16

C	-0.51615	0.077117	-1.413009
C	0.0	0.0	0.0
F	-1.880792	0.387997	-1.386856
H	1.090159	0.0	0.0
H	-0.300511	0.970287	0.415965
N	0.207424	0.963207	-2.212618
H	-0.335075	1.347856	-2.970056
H	0.743321	1.641161	-1.692979
N	-0.503602	-1.258736	-2.169715
O	-1.155695	-1.28573	-3.209253
O	0.202577	-2.164827	-1.744397
C	-0.587195	-1.107422	0.866129
H	-0.365976	-0.896838	1.914036
H	-1.673397	-1.168754	0.755759
H	-0.14756	-2.070704	0.6193
Br	3.659945	0.0	0.0
