16

C	-0.507356	0.016735	-1.416766
C	0.0	0.0	0.0
F	-0.149936	-1.09979	-2.099944
H	1.094078	0.0	0.0
H	-0.32059	0.928066	0.481258
N	-1.925167	0.145597	-1.517105
H	-2.210391	1.009802	-1.075077
H	-2.201344	0.161701	-2.492627
N	0.158828	1.192395	-2.175873
O	-0.086389	2.30153	-1.703104
O	0.794241	0.965409	-3.194604
C	-0.507159	-1.223221	0.755685
H	-0.160937	-2.135097	0.267251
H	-0.093703	-1.215276	1.766195
H	-1.597157	-1.251539	0.81466
Br	3.648298	0.0	0.0
