16

C	-0.485984	-0.00373	-1.421166
C	0.0	0.0	0.0
F	0.136863	-1.019288	-2.124705
H	1.093148	0.0	0.0
H	-0.343306	0.915564	0.481432
N	-1.895508	-0.064215	-1.571614
H	-2.253412	-0.861812	-1.063866
H	-2.114672	-0.16688	-2.556183
N	-0.091626	1.270367	-2.173604
O	0.274937	2.244983	-1.530772
O	-0.240482	1.221957	-3.392469
C	-0.476299	-1.237518	0.758892
H	0.054531	-1.291712	1.710717
H	-1.549266	-1.223006	0.977705
H	-0.235041	-2.14598	0.202486
Br	3.663136	0.0	0.0
