16

C	-0.366496	0.156489	-1.466706
C	0.0	0.0	0.0
F	-1.63934	0.648953	-1.611963
H	1.093293	0.0	0.0
H	-0.385584	-0.943002	0.394821
N	0.506308	0.949753	-2.26738
H	1.458762	0.616787	-2.120491
H	0.469113	1.895835	-1.90359
N	-0.40165	-1.243636	-2.08768
O	0.617673	-1.638475	-2.639319
O	-1.437778	-1.884485	-1.934331
C	-0.486753	1.177294	0.837705
H	-0.116197	2.124794	0.437703
H	-0.089391	1.084591	1.850365
H	-1.576201	1.225178	0.887016
Br	3.592795	0.0	0.0
