16

C	-0.294882	0.097022	-1.475089
C	0.0	0.0	0.0
F	-0.292929	1.436858	-1.879188
H	1.095371	0.0	0.0
H	-0.322638	-0.984949	0.340362
N	0.565483	-0.70685	-2.228709
H	1.522412	-0.619931	-1.889707
H	0.495898	-0.498086	-3.215555
N	-1.72517	-0.327531	-1.857081
O	-2.477396	-0.738548	-0.977929
O	-2.016663	-0.223146	-3.045989
C	-0.578836	1.114536	0.852796
H	-0.277358	0.967384	1.892227
H	-1.670673	1.130329	0.810397
H	-0.197648	2.083069	0.529723
Br	3.606083	0.0	0.0
