13
Coordinates from ORCA-job run
  C   1.24952130767139     -0.59399664790147      0.03813832724722
  C   -0.05608910523231      0.06666430681086      0.40554922991625
  F   2.29226530967762      0.05539500588616      0.67630635561745
  H   -0.14878562155499      0.13513991735171      1.48989995323339
  H   1.41771503517035     -0.53975976676553     -1.03823581379205
  H   1.23896183489292     -1.63571935819676      0.36873267983128
  C   -1.25187352418977     -0.62454311533214     -0.22660674866672
  H   -2.17260420441063     -0.09397909314527      0.02131298233200
  H   -1.33580148170398     -1.64614239977273      0.14924081930504
  H   -1.14540417815699     -0.65305330151330     -1.31202746773094
  N   -0.02598625558586      1.49166746831621     -0.06875649349576
  O   -0.29925189535814      2.36436858742243      0.75034359546785
  O   0.23733277878037      1.67395839683984     -1.25489741926501
