18

C	-0.418216	0.044174	-1.436959
C	0.0	0.0	0.0
F	0.06378	-1.009191	-2.111882
H	1.099247	0.0	0.0
N	-1.929677	0.032193	-1.631445
O	-2.463609	-1.002655	-2.000326
O	-2.496757	1.084155	-1.337861
N	0.01834	1.271593	-2.232221
O	-0.218604	1.204149	-3.436023
O	0.562568	2.200859	-1.65438
N	-0.450306	-1.332029	0.471219
H	0.368755	-1.929568	0.421392
H	-0.681713	-1.249736	1.453873
C	-0.550632	1.090342	0.896633
H	-0.407878	2.083434	0.47855
H	0.010947	1.04127	1.834038
H	-1.61663	0.947576	1.110189
F	2.590994	0.0	0.0
