18

C	-0.442442	-0.005906	-1.425261
C	0.0	0.0	0.0
F	0.224677	-0.889603	-2.16935
H	1.095819	0.0	0.0
N	-1.932816	-0.332049	-1.642853
O	-2.69915	-0.181806	-0.700007
O	-2.24312	-0.711732	-2.767316
N	-0.294634	1.352976	-2.101103
O	-1.213395	2.149385	-1.924372
O	0.731405	1.552573	-2.731991
N	-0.382654	-1.306849	0.538311
H	-1.140679	-1.224169	1.203524
H	0.445057	-1.682585	0.988662
C	-0.418098	1.196524	0.834741
H	-1.498917	1.296668	0.959176
H	0.051057	1.070176	1.81298
H	-0.02168	2.12478	0.421421
F	2.580139	0.0	0.0
