18

C	-0.471727	0.002198	-1.41235
C	0.0	0.0	0.0
F	0.109605	0.955324	-2.156543
H	1.095715	0.0	0.0
N	-0.211761	-1.334924	-2.096106
O	0.932805	-1.507425	-2.485785
O	-1.15357	-2.116814	-2.188923
N	-1.988488	0.208163	-1.600126
O	-2.716672	-0.089802	-0.659844
O	-2.356914	0.656299	-2.681459
N	-0.381392	-1.243375	0.649294
H	-1.228727	-1.145043	1.195384
H	0.390899	-1.511897	1.247598
C	-0.390682	1.287012	0.718619
H	0.236027	1.361717	1.611061
H	-1.446686	1.311966	1.011934
H	-0.169381	2.162053	0.100039
F	2.573926	0.0	0.0
