18

C	-0.615543	0.04503	-1.356719
C	0.0	0.0	0.0
F	-1.968523	0.188862	-1.341451
H	1.090123	0.0	0.0
N	-0.127565	1.155181	-2.280141
O	0.645475	1.993434	-1.837955
O	-0.599065	1.125235	-3.415015
N	-0.314125	-1.222138	-2.136523
O	-1.240184	-1.988384	-2.35721
O	0.852788	-1.348496	-2.477409
N	-0.340244	-1.322017	0.543314
H	0.48146	-1.639618	1.042968
H	-1.123612	-1.277671	1.183153
C	-0.474652	1.147506	0.880281
H	-1.537915	1.06395	1.135968
H	0.115369	1.110926	1.798035
H	-0.296001	2.118869	0.418368
F	2.573539	0.0	0.0
