18

C	-0.389079	-0.000284	-1.445963
C	0.0	0.0	0.0
F	-0.119641	1.166915	-2.050539
H	1.100693	0.0	0.0
N	0.307683	-1.081266	-2.271057
O	0.734446	-2.064296	-1.686255
O	0.350137	-0.873876	-3.47931
N	-1.874722	-0.273361	-1.664424
O	-2.21957	-1.422684	-1.909787
O	-2.61394	0.693287	-1.501965
N	-0.562573	-1.193295	0.654403
H	0.135412	-1.923689	0.560648
H	-0.627682	-0.981028	1.643904
C	-0.489464	1.256854	0.696034
H	0.005826	1.29761	1.670478
H	-0.198514	2.152261	0.147693
H	-1.575417	1.258432	0.841427
F	2.597574	0.0	0.0
