18

C	-0.578242	-0.019551	-1.375382
C	0.0	0.0	0.0
F	-1.929785	0.035885	-1.406525
H	1.093468	0.0	0.0
N	-0.075901	1.142943	-2.221021
O	1.006075	0.992251	-2.772186
O	-0.783533	2.14473	-2.246672
N	-0.190617	-1.250444	-2.186922
O	0.750863	-1.926382	-1.807035
O	-0.870043	-1.434479	-3.196545
N	-0.467455	-1.235045	0.646778
H	0.363366	-1.701208	0.992516
H	-1.065943	-1.017158	1.433616
C	-0.424744	1.25501	0.748491
H	0.064286	1.222156	1.725082
H	-1.511017	1.322359	0.886995
H	-0.081102	2.162171	0.248736
F	2.584251	0.0	0.0
