20

C	0.0	0.0	0.0
C	-0.399633	-0.47252	-1.399056
F	1.429165	0.0	0.0
H	0.193206	-1.381826	-1.566905
N	-0.476471	1.311533	0.263329
H	-0.055464	1.983752	-0.362426
H	-0.288481	1.582297	1.219668
C	-0.434007	-0.938677	1.103737
H	-1.516424	-0.899271	1.2295
H	0.050879	-0.642477	2.039102
H	-0.127669	-1.960543	0.870372
C	-0.000361	0.552574	-2.46129
H	-0.089552	0.111809	-3.458071
H	1.032728	0.88636	-2.330098
H	-0.669693	1.416553	-2.431521
C	-1.885046	-0.80403	-1.49673
H	-2.519904	0.018413	-1.163683
H	-2.146274	-1.037094	-2.533631
H	-2.163432	-1.666711	-0.889633
Br	-5.272002	0.0	0.0
