20

C	0.0	0.0	0.0
C	-0.32186	-0.208604	-1.496524
F	1.400374	0.0	0.0
H	0.386345	0.473198	-1.983328
N	-0.428326	1.316807	0.407356
H	-1.435115	1.374797	0.275469
H	-0.262777	1.416389	1.404246
C	-0.47058	-1.104488	0.926017
H	-0.160211	-0.868343	1.948792
H	-0.045878	-2.072727	0.656524
H	-1.562528	-1.160406	0.89738
C	-1.727542	0.172006	-1.93479
H	-1.864736	-0.096673	-2.987208
H	-1.900341	1.246452	-1.851737
H	-2.514098	-0.318391	-1.360154
C	0.016473	-1.631736	-1.938675
H	-0.738554	-2.341416	-1.589327
H	0.033258	-1.684091	-3.031284
H	0.996334	-1.945534	-1.570809
Br	-4.714667	0.0	0.0
