20

C	0.0	0.0	0.0
C	-0.291689	0.051662	-1.521906
F	1.405795	0.0	0.0
H	0.368144	-0.719419	-1.942776
N	-0.452514	1.112734	0.786176
H	-0.306849	1.981408	0.286955
H	-1.450934	1.012086	0.94993
C	-0.474773	-1.282085	0.645522
H	-0.074635	-1.32883	1.660412
H	-1.566527	-1.306311	0.685254
H	-0.117075	-2.143538	0.07715
C	0.13879	1.395087	-2.113461
H	0.171692	1.328134	-3.204749
H	1.129216	1.694328	-1.761976
H	-0.582808	2.18043	-1.866636
C	-1.725462	-0.264235	-1.913235
H	-1.843402	-0.152219	-2.996848
H	-2.453163	0.384096	-1.424408
H	-2.015807	-1.282693	-1.651027
Br	-4.668924	0.0	0.0
