15

C	0.0	0.0	0.0
C	-0.5017	0.259095	-1.416418
Br	1.945058	0.0	0.0
H	-1.597815	0.147059	-1.387291
H	-0.075467	-0.473832	-2.102838
C	-0.459592	1.011613	1.022173
H	-0.073886	1.99177	0.733799
H	-0.067367	0.752935	2.00413
H	-1.551721	1.020778	1.037927
N	-0.402501	-1.41607	0.396194
O	-0.52091	-1.644946	1.592276
O	-0.510666	-2.235289	-0.509313
C	-0.137726	1.601064	-1.858115
N	0.182746	2.673565	-2.21184
Br	-3.773245	0.0	0.0
