15

C	0.0	0.0	0.0
C	-0.560028	0.216924	-1.399506
Br	1.945274	0.0	0.0
H	-0.224386	-0.572883	-2.071559
H	-1.659485	0.157499	-1.293583
C	-0.509143	1.002949	1.004697
H	-0.109525	0.791961	1.994777
H	-0.203321	2.003491	0.693896
H	-1.601788	0.933432	1.015342
N	-0.368827	-1.42295	0.437712
O	-0.472377	-1.622793	1.640355
O	-0.467787	-2.269499	-0.442972
C	-0.17784	1.518623	-1.929432
N	0.128129	2.562078	-2.372516
Br	-3.832628	0.0	0.0
