13
Coordinates from ORCA-job run
  C   0.50500791502477     -0.07095076554372     -0.48996933023094
  C   -0.70585546732789     -0.42926728193056      0.37398188610913
  Cl  0.30806300674251     -0.49885825660584     -2.17619607757309
  H   -1.08296416993360     -1.41143935636640      0.08539733784812
  H   -0.42589534432469     -0.39737080051339      1.42662385016909
  C   0.87297881393483      1.33087736077538     -0.35265284322860
  N   1.11809868503743      2.47645177161846     -0.25319094024183
  N   1.64916703903009     -0.93323865837429      0.13142655832878
  O   1.76039903372579     -2.07312872987871     -0.28250856200157
  O   2.26512445206072     -0.39522737027473      1.03991893397529
  N   -1.81344225169259      0.56163934513358      0.20402489238722
  O   -2.22498220329298      1.09721272999067      1.22892474085510
  O   -2.22569950898439      0.74330001196956     -0.93578044639671
