13
Coordinates from ORCA-job run
  C   0.54634573138772      0.27413440302683     -0.51772348852384
  C   -0.95033805734497      0.04183252955808     -0.45410145601644
  Cl  0.97460274666205      0.55049390768155     -2.21802497734907
  H   -1.21580254169741     -0.84022636850638     -1.03573667149083
  H   -1.48951573111019      0.91341887086954     -0.82419962978774
  C   0.98635732691504      1.39904246899724      0.29216305979870
  N   1.28783245299316      2.35625983731980      0.90387206572460
  N   1.30243031267494     -0.99880375645051     -0.08403173733968
  O   2.37307040941337     -0.83132311018324      0.47393045160148
  O   0.77269365633126     -2.05272707790501     -0.39767788881619
  N   -1.41199841480216     -0.20341146611221      0.94832816153846
  O   -0.55103814199165     -0.41642535277551      1.79850437377156
  O   -2.62363974943116     -0.19226488552018      1.11569773688899
