13
Coordinates from ORCA-job run
  C   0.53783609582981      0.42204908138049     -0.30661788939599
  C   -0.65263415706121      0.26570088807346      0.63766350304181
  Cl  0.17877855577607      1.26612043119135     -1.81310404482999
  H   -0.32563779914061     -0.25912920812715      1.53538324488430
  H   -1.02220913155324      1.26141635585173      0.88944086055274
  C   1.57602392352799      1.14810645253294      0.41815252703830
  N   2.35437973872330      1.75870689668737      1.05305429532471
  N   1.11116110766407     -0.95736555786205     -0.68963499211929
  O   2.31359624344816     -1.00814632722894     -0.89422243457814
  O   0.29222341520015     -1.85942147677850     -0.79120559804947
  N   -1.82359926289379     -0.50237594212489      0.10338633787739
  O   -2.19657768717849     -1.45271997338601      0.78021173588854
  O   -2.34334104234221     -0.08294162020982     -0.92250754563490
