13
Coordinates from ORCA-job run
  C   0.49121456271018      0.36209575085712     -0.39490598135009
  C   -0.62683568658316      0.37976515536251      0.63757748459323
  Cl  -0.06240466390704      0.92383399815528     -1.95887584583445
  H   -0.97458251586255      1.39799926519154      0.80186400933057
  H   -0.27362392580044     -0.06678205663907      1.56812953935222
  C   1.58586582401621      1.19604126889165      0.08875747759398
  N   2.44870106223387      1.88126249325395      0.49902916229115
  N   1.08290163798424     -1.08400618706149     -0.49606998628573
  O   1.38621164174344     -1.54606686001136      0.59298876261819
  O   1.21990990610423     -1.57884361979015     -1.59399742986784
  N   -1.80479550818233     -0.41971149870153      0.18472066256253
  O   -2.90943006770605      0.02923607701770      0.46520452137804
  O   -1.56413226675062     -1.47482378652615     -0.39342237638183
