13
Coordinates from ORCA-job run
  C   0.45496691462235      0.45307216267347     -0.33908508296091
  C   -0.56522258719128      0.20629636422708      0.76294935101009
  Cl  -0.23647123711560      1.35842094902888     -1.66994606929073
  H   -0.13229655168440     -0.44375614542984      1.52458573986612
  H   -0.89157210953529      1.15003580989241      1.19597508327955
  C   1.59172744143835      1.16931447819465      0.22876820737308
  N   2.49048476111872      1.75314024154696      0.71214075065178
  N   1.03037637796598     -0.91682959496296     -0.83235814537174
  O   1.07071168023323     -1.13272609806726     -2.02446850969357
  O   1.42526200111816     -1.62016030073707      0.08462084641039
  N   -1.78270390844125     -0.48183710527543      0.23727081711199
  O   -1.59845598097361     -1.36997948760758     -0.58893377970573
  O   -2.85680680155537     -0.12599127348331      0.70648079131968
