13
Coordinates from ORCA-job run
  C   0.49492489511552     -0.08221300835584     -0.44184228728452
  C   -0.67964627834514     -0.26624809121696      0.50765115534585
  Cl  0.14483440420206     -0.73694564444111     -2.04119957056326
  H   -0.40794300474139      0.06858969857350      1.51216018814733
  H   -0.97213169984465     -1.31410873261894      0.53534698395103
  C   0.96977439260928      1.28928189934661     -0.52721932783274
  N   1.36519910046312      2.39547469810113     -0.56979912492213
  N   1.63367106264075     -0.95389681216554      0.16762647925674
  O   2.70555513225537     -0.40885862377541      0.37716584186248
  O   1.33059212542123     -2.11722737613080      0.38467785654191
  N   -1.89401942710519      0.51938930594631      0.11387923789800
  O   -2.90247625064699      0.24381137538058      0.75133911624044
  O   -1.78933445202397      1.36295131135648     -0.76878654864115
