13
Coordinates from ORCA-job run
  C   0.57024805990945      0.27233950652427     -0.49247733130634
  C   -0.92039637129996     -0.00161614768588     -0.51354467660666
  Cl  1.09706402810814      0.50310820749777     -2.17187875626390
  H   -1.12609879992575     -0.90945619754039     -1.07939483139938
  H   -1.45903567166544      0.84108257393516     -0.94611084828329
  C   0.92693265994161      1.43731823717477      0.30177573373541
  N   1.16311256504349      2.42389888961550      0.89526909389230
  N   1.33207869430227     -0.96143985606702      0.03278747003384
  O   2.36063716821345     -0.74310067461897      0.64934294157969
  O   0.85230013010584     -2.04092876642687     -0.27455451890462
  N   -1.46255459973663     -0.21376174751415      0.86550433469022
  O   -2.68205751839278     -0.23619803776596      0.95650166792072
  O   -0.65123034460370     -0.37024598712823      1.77477972091201
