13
Coordinates from ORCA-job run
  C   0.49124970974871      0.02555081532864     -0.36362836295608
  C   -0.71597279706619     -0.41896269736461      0.44970662983818
  Cl  0.19445408486306     -0.21590807429300     -2.08915479217304
  H   -0.53616136037394     -0.25621575745305      1.51294965495963
  H   -0.94217488269105     -1.46062845393118      0.24246924195665
  C   0.92113760163127      1.39212064507716     -0.10582686380904
  N   1.31237525807112      2.47800997581759      0.11772655803090
  N   1.69257574370296     -0.88716615256829      0.01759003261003
  O   1.44039870055074     -1.85827962763968      0.71734394681851
  O   2.77246744894996     -0.55250190375136     -0.43645427237593
  N   -1.91473820782383      0.38697947824712      0.06772560904558
  O   -2.85294968206329     -0.22357906374052     -0.43483795026122
  O   -1.86366161749951      1.59058081627119      0.30339056831583
