13
Coordinates from ORCA-job run
  C   0.48046981227625     -0.06487482380120     -0.51711915272475
  C   -0.68718824060152     -0.43435406823075      0.39947905855262
  Cl  0.20628518302871     -0.47530856460329     -2.19584470640281
  H   -1.07871464730421     -1.41310877445885      0.11749285087902
  H   -0.35754867277429     -0.41665669282016      1.43775626425266
  C   0.85334022788851      1.33593782201032     -0.38031409114586
  N   1.10584383170902      2.47958183286180     -0.27730719757105
  N   1.65796496086162     -0.92807526861088      0.04331313675483
  O   1.80531477487494     -2.03810902436860     -0.43434544927188
  O   2.26420707008099     -0.41869931395731      0.97447910331279
  N   -1.80525277975640      0.55521531623942      0.29846417842570
  O   -2.23731172326383      0.79414706285972     -0.82338296451773
  O   -2.20840979701979      1.02630449687979      1.35732896945646
