13
Coordinates from ORCA-job run
  C   0.47410197357733      0.36571332240468     -0.41175974230311
  C   -0.59668592596107      0.37234002501549      0.66987661127776
  Cl  -0.14827251672042      0.94890436510027     -1.94191276134844
  H   -0.93320936692440      1.38911701742312      0.86375132646955
  H   -0.20420828248395     -0.08832051057056      1.57753349264769
  C   1.59093599134649      1.19204157248435      0.03281879900529
  N   2.47219395625939      1.87069085848933      0.41379013234570
  N   1.05726527753591     -1.07929010679201     -0.55787949345307
  O   1.14473296618175     -1.55989718308996     -1.66726827564713
  O   1.40759583991283     -1.55617010624653      0.51063124475558
  N   -1.79587221469414     -0.41822597664257      0.25868131755930
  O   -2.88599184176674      0.03061448273934      0.59139245546027
  O   -1.58358585626299     -1.46751776031492     -0.34065510676937
