13
Coordinates from ORCA-job run
  C   0.48093087981643      0.05262230367560     -0.44490635725528
  C   -0.66079771855425     -0.39526949439425      0.46112340388812
  Cl  0.08540339567107     -0.21210196649605     -2.12880060181838
  H   -0.41706463226837     -0.17987110224555      1.50251412571040
  H   -0.85471705706673     -1.45741970063491      0.31514399089999
  C   0.93419055726005      1.41780976846357     -0.21843229082587
  N   1.36054907128130      2.49853850488075     -0.03840101529506
  N   1.67464679890255     -0.86812063264873     -0.01587444385397
  O   2.02669174448645     -0.68356956047701      1.14111580356601
  O   2.11247521082895     -1.67026117067035     -0.81724074631683
  N   -1.93305079027031      0.32375395996122      0.14551298518565
  O   -2.95718174187011     -0.34808019377051      0.19025782224422
  O   -1.85107571821702      1.52396928435622     -0.08901267612899
