13
Coordinates from ORCA-job run
  C   0.53808366724442      0.30678965521813     -0.50777771198193
  C   -0.96200187281356      0.31783258373601     -0.29061199421295
  Cl  0.84952478815920      0.94905464328133     -2.13311479550540
  H   -1.45128036894523     -0.32015365903837     -1.02563630362135
  H   -1.35125685182065      1.33350920907493     -0.35588550005265
  C   1.26524889801904      1.08832185376030      0.47997327530517
  N   1.80625982370553      1.78621364874178      1.25560042947228
  N   1.06654139766198     -1.14210049795853     -0.50800252041788
  O   2.19739277304133     -1.30816313074345     -0.08449968807786
  O   0.31241297438279     -1.97260733217369     -0.98913118564211
  N   -1.32834509270795     -0.21134449748495      1.06082164510750
  O   -0.44915854050362     -0.78029161283116      1.70332631425809
  O   -2.49342159542328     -0.04706086358234      1.39493803536909
