13
Coordinates from ORCA-job run
  C   0.47825865341626     -0.04151908961063     -0.39286845426168
  C   -0.69951824243169     -0.35806625266203      0.51959733961617
  Cl  0.11860999635621     -0.49290606398404     -2.06405909290689
  H   -0.44752606314637     -0.10841461132053      1.55103515267934
  H   -0.97642786327497     -1.40277233935843      0.41554159360509
  C   0.91820965209510      1.34367473220026     -0.32659709716817
  N   1.28477069470682      2.45903120287204     -0.26560345677662
  N   1.67130200757728     -0.92891854479244      0.05606489464352
  O   2.78299920393821     -0.52524510407545     -0.24038630151327
  O   1.37940881380300     -1.97127456076867      0.62497335072039
  N   -1.87988762948928      0.47101356510176      0.13306595342137
  O   -2.79154038082728     -0.10388529245944     -0.45444731016008
  O   -1.83765884272330      1.65928235885759      0.44168342810083
