13
Coordinates from ORCA-job run
  C   0.49062591108044      0.30497585140281     -0.55469127408657
  C   -0.97983118500696      0.34069895519179     -0.18789006633367
  Cl  0.65070431294949      0.96798129296172     -2.19354546973507
  H   -1.55271708062210     -0.27560232779484     -0.87972819828957
  H   -1.35225288411369      1.36467787963988     -0.19898668325789
  C   1.32864029349138      1.05647052366166      0.36634219167226
  N   1.95884826671768      1.73121393284944      1.09360653171051
  N   0.98676481021996     -1.15325063177096     -0.62893330055847
  O   2.15055989609102     -1.34769070380508     -0.32315097989034
  O   0.17169927387315     -1.96112671614252     -1.04476333843926
  N   -1.21972277655947     -0.20395735267636      1.18547084744463
  O   -2.34208812742272     -0.02386533588445      1.63704467844464
  O   -0.29223071069819     -0.79952536763309      1.72822506131880
