13
Coordinates from ORCA-job run
  C   0.46541054022196      0.39262563433549     -0.39492640608178
  C   -0.59034250488032      0.32780365676167      0.69948078613454
  Cl  -0.18318617129524      1.05689215478542     -1.88046826850231
  H   -0.93085431585055      1.32884403262632      0.95764823824382
  H   -0.18254135996232     -0.18365332929632      1.57248249743095
  C   1.58257814434838      1.20110768826226      0.08030937219638
  N   2.46630382620141      1.86233025752980      0.48535886554140
  N   1.05792300378978     -1.03698507162562     -0.63189764406875
  O   1.13040335975409     -1.45355583149620     -1.76778582647614
  O   1.42986267348550     -1.56983814584534      0.40210690454006
  N   -1.78946388708941     -0.44531907757897      0.25632945336523
  O   -2.87926590455819     -0.01917428007289      0.61867094000203
  O   -1.57682740416509     -1.46107768838562     -0.39830891232543
