13
Coordinates from ORCA-job run
  C   0.48489042519732      0.00624091409754     -0.44150452094818
  C   -0.67586014760632     -0.33881540181141      0.48566546176853
  Cl  0.08676376880162     -0.36180150008678     -2.10542535408064
  H   -0.90111819818754     -1.40242111084834      0.41556979744677
  H   -0.43181222904366     -0.05376907605131      1.50999156334048
  C   0.98290054661698      1.36806685007129     -0.30904787184088
  N   1.44396384653768      2.44455349322353     -0.20524966243285
  N   1.64371484380857     -0.92271679992905      0.05899842056779
  O   1.99790072627977     -0.66835252150468      1.20188041798701
  O   2.05404692983774     -1.79600329684503     -0.67995557377140
  N   -1.92055442834216      0.39409760476258      0.10345193004387
  O   -1.80226368637236      1.58536122817208     -0.16101397295624
  O   -2.96057239752765     -0.25444038325043      0.12563936487573
