17

C	-0.357277	-0.009644	-1.46875
C	0.0	0.0	0.0
F	-1.751511	0.154603	-1.653785
H	1.091956	0.0	0.0
H	0.109387	0.897108	-1.871253
C	0.100631	-1.197571	-2.278245
H	-0.060008	-0.993682	-3.341468
H	-0.450934	-2.094961	-2.000135
H	1.164291	-1.359813	-2.082547
N	-0.451863	-1.217939	0.694942
O	0.006586	-2.299208	0.306874
O	-1.223724	-1.116676	1.659224
C	-0.499273	1.243854	0.702979
H	-1.585946	1.335436	0.664982
H	-0.181276	1.233564	1.746151
H	-0.038485	2.111116	0.219479
H	2.7138	0.0	0.0
