17

C	-0.513566	0.088553	-1.420415
C	0.0	0.0	0.0
F	-0.188687	-1.103415	-2.079516
H	1.091545	0.0	0.0
H	-1.607831	0.146506	-1.438666
C	0.139412	1.236074	-2.163787
H	-0.0844	1.14685	-3.230752
H	-0.245587	2.198093	-1.816737
H	1.220076	1.199963	-2.00783
N	-0.534557	-1.239325	0.637975
O	0.224287	-1.925466	1.312901
O	-1.741353	-1.471988	0.492753
C	-0.455613	1.16991	0.859601
H	-1.538076	1.324356	0.810527
H	0.06704	2.072782	0.540698
H	-0.165119	0.983099	1.896394
H	2.920184	0.0	0.0
