16

C	-0.629225	0.031575	-1.363763
C	0.0	0.0	0.0
Br	-2.617203	-0.059944	-1.276236
H	1.092557	0.0	0.0
C	-0.308518	1.28683	-2.030293
N	-0.061139	2.271182	-2.624073
N	-0.11125	-1.083595	-2.309085
O	-0.879587	-1.906925	-2.769352
O	1.090585	-0.984576	-2.517909
N	-0.341133	-1.228106	0.698671
O	-0.46244	-1.179132	1.93209
O	-0.349525	-2.274866	0.032711
N	-0.29315	1.197061	0.713384
H	-1.061243	1.055553	1.356973
H	0.541828	1.437185	1.244052
H	2.364782	0.0	0.0
