16

C	-0.500956	-0.004258	-1.426702
C	0.0	0.0	0.0
Br	0.55395	1.239166	-2.489589
H	1.090208	0.0	0.0
C	-0.537797	-1.269978	-2.151031
N	-0.634475	-2.205777	-2.858074
N	-1.984524	0.48409	-1.399985
O	-2.323012	1.488447	-1.998259
O	-2.703883	-0.243519	-0.721524
N	-0.352445	-1.23935	0.705773
O	-0.888259	-1.154118	1.820809
O	0.037228	-2.294435	0.191851
N	-0.414204	1.190309	0.65982
H	0.367441	1.503321	1.228663
H	-1.197195	0.990033	1.271508
H	2.436379	0.0	0.0
