16

C	-0.545742	0.065948	-1.393868
C	0.0	0.0	0.0
Br	-2.567288	-0.040841	-1.439516
H	1.094074	0.0	0.0
C	-0.211234	1.351677	-1.990376
N	0.025868	2.394157	-2.482596
N	0.022501	-1.00423	-2.351371
O	-0.686963	-1.900286	-2.772015
O	1.207598	-0.806923	-2.593377
N	-0.375664	-1.286731	0.620241
O	-0.099782	-2.28397	-0.055975
O	-0.837156	-1.316251	1.760354
N	-0.315599	1.116677	0.805692
H	-1.176573	1.590954	0.580395
H	0.479017	1.742811	0.838933
H	2.408951	0.0	0.0
