16

C	-0.604816	0.061062	-1.373809
C	0.0	0.0	0.0
Br	-2.587896	-0.135585	-1.340022
H	1.09651	0.0	0.0
C	-0.334449	1.358996	-1.979183
N	-0.154218	2.388323	-2.517747
N	-0.009924	-0.98498	-2.35243
O	-0.711334	-1.861669	-2.822143
O	1.179422	-0.783468	-2.566215
N	-0.330991	-1.256114	0.654128
O	-0.255114	-2.283418	-0.036303
O	-0.530691	-1.243684	1.878357
N	-0.319829	1.168459	0.745309
H	-1.102908	0.997853	1.363459
H	0.498297	1.39636	1.305688
H	2.367142	0.0	0.0
