16

C	-0.559716	0.063166	-1.39302
C	0.0	0.0	0.0
Br	-2.557935	0.153443	-1.420463
H	1.091819	0.0	0.0
C	-0.094332	1.285922	-2.037317
N	0.261457	2.274612	-2.566442
N	-0.101068	-1.087201	-2.331051
O	-0.921276	-1.780417	-2.901346
O	1.116781	-1.136311	-2.428228
N	-0.398788	-1.24558	0.663524
O	-0.375238	-1.288307	1.893223
O	-0.597457	-2.227072	-0.071905
N	-0.263412	1.152901	0.778523
H	-1.085322	1.675472	0.514177
H	0.573189	1.725261	0.820996
H	2.378518	0.0	0.0
