16

C	-0.510066	0.034663	-1.414349
C	0.0	0.0	0.0
Br	-2.488643	-0.193733	-1.523134
H	1.092555	0.0	0.0
C	-0.212447	1.329219	-2.0129
N	0.031005	2.344002	-2.554865
N	0.169366	-1.016094	-2.32866
O	-0.462865	-1.973138	-2.738365
O	1.34408	-0.746893	-2.543462
N	-0.349678	-1.262182	0.647334
O	-0.060198	-2.29498	0.027045
O	-0.789741	-1.230798	1.807788
N	-0.392781	1.166265	0.703665
H	0.331951	1.375275	1.384281
H	-1.269183	1.015541	1.18808
H	2.400769	0.0	0.0
