16

C	-0.6188	-0.014908	-1.399637
C	0.0	0.0	0.0
Br	0.1038	-1.328739	-2.640639
H	1.088888	0.0	0.0
C	-2.069168	-0.170073	-1.333286
N	-3.227792	-0.32921	-1.199967
N	-0.316507	1.368879	-2.024488
O	-1.261674	2.141653	-2.110154
O	0.835186	1.576878	-2.357308
N	-0.419318	-1.207159	0.751193
O	-0.068177	-2.30104	0.300497
O	-1.001537	-1.047743	1.835462
N	-0.363984	1.216261	0.644922
H	0.417996	1.47714	1.240058
H	-1.194358	1.104319	1.213376
H	2.478749	0.0	0.0
