16

C	-0.424026	-0.003448	-1.463037
C	0.0	0.0	0.0
Br	0.002791	1.733603	-2.256336
H	1.091275	0.0	0.0
C	0.249378	-1.011236	-2.272865
N	0.825409	-1.757465	-2.975723
N	-1.943968	-0.154877	-1.657082
O	-2.642031	0.383051	-0.806827
O	-2.340077	-0.744946	-2.650686
N	-0.439537	-1.27115	0.587326
O	-0.210616	-1.46183	1.779604
O	-0.929105	-2.123003	-0.183377
N	-0.312313	1.102959	0.823901
H	0.504769	1.697425	0.907312
H	-1.141822	1.606962	0.557005
H	2.451245	0.0	0.0
