17

C	0.0	0.0	0.0
C	-0.575971	-0.059556	-1.402228
F	1.340297	0.0	0.0
H	-1.681276	-0.238763	-1.234286
N	-0.516835	1.07722	0.6933
H	-0.058331	1.156235	1.590966
H	-1.555459	0.951891	0.700232
N	-0.252341	-1.383941	0.778301
O	-1.127965	-2.142517	0.408781
O	0.449507	-1.526512	1.780615
N	0.13529	-1.021496	-2.293485
O	0.711073	-1.981789	-1.790229
O	0.035829	-0.805729	-3.498894
N	-0.331485	1.280356	-2.037432
O	0.842491	1.576262	-2.25108
O	-1.301212	2.000845	-2.240863
F	-2.753912	0.0	0.0
