17

C	0.0	0.0	0.0
C	-0.243479	-0.054817	-1.528312
F	1.396711	0.0	0.0
H	0.209938	-0.960465	-1.922054
N	-0.50861	1.021496	0.788587
H	-1.541096	0.76477	0.763152
H	-0.396044	1.886262	0.275611
N	-0.383405	-1.359674	0.60211
O	-0.234796	-2.332425	-0.135543
O	-0.676036	-1.394947	1.783557
N	0.483403	1.083939	-2.203485
O	0.459654	2.193784	-1.691555
O	1.029769	0.803545	-3.267986
N	-1.64592	-0.002984	-2.093447
O	-2.108205	1.102634	-2.316424
O	-2.111552	-1.081487	-2.431475
F	-2.619875	0.0	0.0
