17

C	0.0	0.0	0.0
C	-0.577576	0.001409	-1.423407
F	1.343002	0.0	0.0
H	-1.623384	-0.354991	-1.294676
N	-0.551133	0.954243	0.86097
H	-1.588876	0.80593	0.711147
H	-0.242568	1.874014	0.573482
N	-0.342348	-1.401997	0.61721
O	0.219337	-1.617992	1.685382
O	-1.068532	-2.178451	0.018339
N	0.248487	-0.765649	-2.409747
O	0.715445	-1.833035	-2.030577
O	0.388164	-0.290432	-3.535723
N	-0.652994	1.38934	-1.967333
O	-1.623366	1.658117	-2.666622
O	0.281644	2.151115	-1.712832
F	-2.745401	0.0	0.0
