17

C	0.0	0.0	0.0
C	-0.306208	-0.038981	-1.512258
F	1.378025	0.0	0.0
H	0.056548	0.925802	-1.86271
N	-0.48162	1.172442	0.574753
H	-1.526714	0.968853	0.558343
H	-0.113204	1.210571	1.520458
N	-0.364591	-1.27838	0.762111
O	-0.90904	-2.205573	0.188045
O	-0.035278	-1.250325	1.949927
N	-1.690836	-0.163167	-2.103281
O	-2.189376	0.896392	-2.460692
O	-2.092692	-1.286483	-2.365159
N	0.525603	-1.040857	-2.281832
O	1.018298	-2.011138	-1.722378
O	0.642988	-0.767925	-3.474705
F	-2.564512	0.0	0.0
