17

C	0.0	0.0	0.0
C	-0.619593	-0.099135	-1.38933
F	1.340366	0.0	0.0
H	-1.715348	-0.26466	-1.190219
N	-0.567479	1.088837	0.65248
H	-0.2799	1.063961	1.624317
H	-1.607441	0.899836	0.554906
N	-0.322586	-1.339753	0.754115
O	0.190401	-1.411802	1.870985
O	-1.05683	-2.17352	0.248503
N	-0.007664	-1.117884	-2.284143
O	0.727945	-1.974373	-1.804456
O	-0.324525	-1.036149	-3.469452
N	-0.427277	1.207707	-2.090935
O	-1.426587	1.874032	-2.33446
O	0.730882	1.51075	-2.374842
F	-2.809302	0.0	0.0
