17

C	0.0	0.0	0.0
C	-0.61109	-0.041754	-1.398061
F	1.340397	0.0	0.0
H	-1.712011	-0.155274	-1.212521
N	-0.549443	1.075954	0.683669
H	-1.589049	0.90616	0.593454
H	-0.252774	1.028562	1.651942
N	-0.342811	-1.364435	0.696211
O	-0.83295	-2.278703	0.048863
O	-0.061967	-1.398979	1.892337
N	-0.070957	-1.065094	-2.333791
O	-0.683738	-1.147582	-3.398648
O	0.916244	-1.724574	-2.028411
N	-0.330148	1.267636	-2.066911
O	0.80839	1.422572	-2.509828
O	-1.241025	2.08394	-2.123382
F	-2.78744	0.0	0.0
