16

C	-0.578631	0.021558	-1.394599
C	0.0	0.0	0.0
Br	0.295463	-1.443458	-2.461588
H	1.08931	0.0	0.0
H	-0.295981	-0.969887	0.419972
N	-1.988069	-0.054017	-1.412752
H	-2.337813	-0.058604	-2.362511
H	-2.290492	-0.884426	-0.921387
N	-0.219015	1.28005	-2.181604
O	0.721103	1.953771	-1.787284
O	-0.91186	1.513711	-3.171084
C	-0.52773	1.130416	0.883071
H	-1.617553	1.132637	0.950748
H	-0.19295	2.098147	0.509008
H	-0.109154	1.009456	1.884748
Cl	3.54091	0.0	0.0
