16

C	-0.264116	-0.058551	-1.49054
C	0.0	0.0	0.0
Br	-0.210788	1.867842	-2.238939
H	1.094862	0.0	0.0
H	-0.391568	0.914736	0.438587
N	0.614322	-0.922899	-2.112739
H	0.525896	-0.962695	-3.116936
H	1.571595	-0.771103	-1.792155
N	-1.69741	-0.43403	-1.858886
O	-2.58598	-0.057028	-1.103213
O	-1.865594	-1.071045	-2.895363
C	-0.483422	-1.249343	0.733416
H	-0.151112	-2.149415	0.212859
H	-0.038182	-1.262827	1.730817
H	-1.570336	-1.273758	0.835481
Cl	3.430239	0.0	0.0
