16

C	-0.496316	0.00235	-1.435226
C	0.0	0.0	0.0
Br	0.113285	1.538426	-2.45336
H	1.092272	0.0	0.0
H	-0.327823	-0.95785	0.424668
N	-0.121325	-1.161259	-2.12342
H	-0.503078	-1.211563	-3.057617
H	-0.33646	-1.990908	-1.588544
N	-2.070095	0.125967	-1.327385
O	-2.627078	-0.942355	-1.068596
O	-2.631556	1.210705	-1.408056
C	-0.517558	1.144179	0.862435
H	-1.594987	1.089204	1.04098
H	-0.007044	1.107487	1.82682
H	-0.291086	2.109195	0.406588
Cl	3.501958	0.0	0.0
