16

C	-0.317547	-0.043911	-1.492382
C	0.0	0.0	0.0
Br	-0.198028	1.766615	-2.240515
H	1.094333	0.0	0.0
H	-0.396183	0.906758	0.457451
N	0.510759	-0.89522	-2.280452
H	0.289729	-1.862654	-2.074369
H	1.477107	-0.711082	-2.00698
N	-1.772787	-0.491038	-1.646575
O	-1.965577	-1.628539	-2.071841
O	-2.642481	0.259169	-1.22039
C	-0.484102	-1.246283	0.735984
H	-1.575118	-1.294019	0.805166
H	-0.123394	-2.159428	0.25666
H	-0.075787	-1.234644	1.748494
Cl	3.429112	0.0	0.0
