16

C	-0.340871	0.091117	-1.484121
C	0.0	0.0	0.0
Br	-2.144421	0.825854	-1.76072
H	1.095722	0.0	0.0
H	-0.29785	0.958613	0.437573
N	0.577341	0.86055	-2.270553
H	1.520341	0.55795	-2.012363
H	0.492934	1.82973	-1.986962
N	-0.332947	-1.333976	-2.054705
O	-1.351172	-2.013119	-1.978489
O	0.756666	-1.719207	-2.462386
C	-0.595096	-1.158175	0.780739
H	-1.684852	-1.1898	0.702741
H	-0.195482	-2.112721	0.43365
H	-0.320293	-1.055459	1.832956
Cl	3.437863	0.0	0.0
