16

C	-0.597135	-0.058316	-1.388615
C	0.0	0.0	0.0
Br	0.247597	-1.436138	-2.476809
H	1.089809	0.0	0.0
H	-0.317759	-0.924669	0.491243
N	-1.993817	-0.297358	-1.374728
H	-2.369631	-0.218097	-2.311535
H	-2.44157	0.405713	-0.798443
N	-0.256363	1.278436	-2.122777
O	-1.211907	1.89978	-2.596241
O	0.910697	1.629422	-2.149139
C	-0.482487	1.214735	0.796041
H	-0.188418	2.147803	0.310474
H	-1.564085	1.2298	0.967971
H	0.006826	1.199588	1.771497
Cl	3.549853	0.0	0.0
