17

C	-0.231015	0.037693	-1.500325
C	0.0	0.0	0.0
Cl	-0.052844	-1.615754	-2.179276
H	1.093892	0.0	0.0
H	-0.433272	-0.908273	0.42266
N	-1.674633	0.439573	-1.799938
O	-2.564698	-0.278337	-1.35175
O	-1.867924	1.50137	-2.393428
C	0.776949	0.938064	-2.17644
H	0.593263	1.97598	-1.895864
H	1.745614	0.630342	-1.755715
H	0.740445	0.852636	-3.262855
C	-0.515256	1.245133	0.711499
H	-0.042684	2.148238	0.318938
H	-0.244545	1.18142	1.768281
H	-1.603409	1.362715	0.649038
F	2.716042	0.0	0.0
