16

C	-0.438536	0.015556	-1.444694
C	0.0	0.0	0.0
Cl	0.010097	-1.481777	-2.260588
H	1.088319	0.0	0.0
H	-0.351952	0.903439	0.499157
N	-1.951103	0.238013	-1.562708
O	-2.3918	1.116029	-0.824628
O	-2.593248	-0.372959	-2.403315
C	0.235302	1.185605	-2.142811
H	-0.036896	1.194387	-3.199884
H	1.315474	1.068475	-2.033537
H	-0.076596	2.120783	-1.673175
N	-0.558422	-1.129723	0.783377
O	0.003855	-1.40475	1.836409
O	-1.583899	-1.668065	0.361426
Cl	3.31788	0.0	0.0
