16

C	-0.445127	0.105945	-1.447437
C	0.0	0.0	0.0
Cl	-2.221851	-0.141702	-1.594145
H	1.0877	0.0	0.0
H	-0.399101	0.812937	0.594693
N	-0.24385	1.577139	-1.868935
O	-0.055682	1.785936	-3.061905
O	-0.336905	2.439543	-1.002103
C	0.303309	-0.783405	-2.404097
H	0.117625	-1.81973	-2.133608
H	1.371706	-0.580449	-2.286293
H	-0.013083	-0.594426	-3.427416
N	-0.466835	-1.24987	0.650213
O	-1.00123	-1.126081	1.753118
O	-0.274069	-2.323751	0.084089
Cl	3.273575	0.0	0.0
