16

C	-0.445441	0.046433	-1.442927
C	0.0	0.0	0.0
Cl	-0.040311	-1.452142	-2.280709
H	1.088318	0.0	0.0
H	-0.354729	0.890348	0.520208
N	-1.95566	0.299307	-1.549131
O	-2.370147	1.187734	-0.807256
O	-2.620642	-0.302581	-2.38304
C	0.248185	1.212933	-2.132402
H	1.327837	1.073047	-2.034525
H	-0.03521	1.242047	-3.18731
H	-0.037914	2.148001	-1.647778
N	-0.55648	-1.15211	0.755183
O	-1.62518	-1.629681	0.363472
O	0.050889	-1.503045	1.757592
Cl	3.319761	0.0	0.0
