16

C	-0.65356	-0.018084	-1.367201
C	0.0	0.0	0.0
Cl	-0.048944	1.425818	-2.228539
H	1.089548	0.0	0.0
H	-0.317123	0.904096	0.521773
N	-0.190561	-1.212615	-2.204355
O	0.910322	-1.679244	-1.960249
O	-0.957174	-1.575251	-3.095426
C	-2.166757	0.021078	-1.337176
H	-2.55227	-0.905108	-0.909702
H	-2.561173	0.133602	-2.344014
H	-2.483002	0.870742	-0.727794
N	-0.466606	-1.130456	0.845203
O	-0.829667	-2.168581	0.28543
O	-0.43633	-0.959203	2.060905
Cl	3.29839	0.0	0.0
