13

C	-0.139649	0.145882	0.040973
C	-0.572962	0.388253	-1.424781
Cl	1.520283	-0.530485	0.113306
H	-1.602135	0.75625	-1.346981
H	-0.836193	-0.607248	0.430554
C	-0.197254	1.363639	0.83735
N	-0.259862	2.360126	1.456853
N	-0.609514	-0.789687	-2.259966
H	-1.351495	-1.377323	-1.875118
H	0.271252	-1.285791	-2.185455
C	0.264201	1.43233	-2.038119
N	0.938206	2.259426	-2.528092
Cl	-2.900821	-1.623795	-0.114528
