11
Coordinates from ORCA-job run
  C   -0.84685410659014     -0.87994711637436      0.09693085089330
  C   -0.01151786383150      0.34624997981529     -0.24153023119550
  Br  -2.70844844986845     -0.37136719325811      0.23200729407106
  H   -0.34466617488382      0.78169541759262     -1.18909809354275
  H   -0.54039318627280     -1.30584770850362      1.05138074569969
  H   -0.75781104738099     -1.62093028180129     -0.69195548334511
  N   1.44057638300306     -0.06295425293879     -0.49431287764243
  O   2.29978095664625      0.78109413050676     -0.28636163727098
  O   1.61172449896485     -1.19024480831722     -0.94362492714726
  C   -0.04238820706058      1.36191952334392      0.80435458908956
  N   -0.10000280272587      2.16133230993479      1.66220977039042
