11
Coordinates from ORCA-job run
  C   -0.98310468332821     -0.72183967435232      0.08618331462692
  C   -0.01619893273337      0.38985090466687     -0.28594482838373
  Br  -0.82564629810027     -2.19517391127080     -1.15504914740221
  H   -0.13418470937295      0.70151253261360     -1.32482493086142
  H   -2.00591372570735     -0.35019327183564      0.03771886193259
  H   -0.75908968309745     -1.09049238994860      1.08544574682387
  N   1.41033745317610     -0.11055950505580     -0.16657425830358
  O   1.71162972217994     -0.62816496654061      0.90118871257497
  O   2.12948108455339      0.04948385356567     -1.14443198124384
  C   -0.17809978699261      1.52634744758078      0.61748371583468
  N   -0.34921044057721      2.42922898057686      1.34880479440175
