10
Coordinates from ORCA-job run
  C   -0.00990288887845     -0.31779772956432      0.29621895418531
  C   0.77033071471584      0.57073316266851     -0.34395777320293
  H   0.44741170393352     -0.97725127001526      1.03203949718664
  H   0.35633662021592      1.24842753439302     -1.08598562900808
  C   -1.47854048905111     -0.45828504037848      0.05976292878697
  H   -2.03581520527143     -0.28661711255506      0.98514980423878
  H   -1.71969428943783     -1.47156968786778     -0.27396829767374
  H   -1.83258547528770      0.24746838752243     -0.69363923225948
  C   2.17396539066976      0.67501041019525     -0.08931768156791
  N   3.32849391839147      0.76888134560169      0.11269742931444
