10
Coordinates from ORCA-job run
  C   -0.20086074995312      0.09686348630782     -0.37316099291840
  C   0.96245613130617      0.14647394090401      0.29941197772915
  H   -0.23490729704518      0.49945554458740     -1.38483499675363
  H   1.04188923503734     -0.24212622873382      1.31114087601039
  C   -1.46053139962768     -0.48230238944996      0.18403759747413
  H   -1.81502773536464     -1.30662830238662     -0.44125826887478
  H   -2.25546418904765      0.26869345368809      0.20188959675751
  H   -1.31498316672695     -0.85586050758684      1.19910205728809
  C   2.14850393184739      0.70846762825418     -0.26928390352895
  N   3.12892523957433      1.16896337441574     -0.72604394318352
