10
Coordinates from ORCA-job run
  C   -0.10199740013491     -0.75059334000897     -0.27001048684072
  C   1.14030039532588     -0.25402659160234     -0.41964555773821
  H   -0.27611934764636     -1.76470678267765     -0.62443475373616
  H   1.92696340898690     -0.84686751366563     -0.87503055804288
  C   -1.26090182127482     -0.03162657993762      0.33954493748844
  H   -0.99035919315005      0.97413366591008      0.66354784279815
  H   -1.64086018334219     -0.58545341377691      1.20287782240618
  H   -2.08277908101849      0.04296453030401     -0.37828335904222
  C   1.49537789861925      1.06561023394798      0.00578237351682
  N   1.78937532363477      2.14956579150705      0.35465173919061
