10
Coordinates from ORCA-job run
  C   -0.07357890845224     -0.76050845135520     -0.25013907732635
  C   1.17670511781056     -0.26353201676044     -0.29518268056169
  H   -0.21045286662036     -1.78791276833060     -0.58182964052368
  H   2.00538388119194     -0.86884077177606     -0.64827110832644
  C   -1.28798747434991     -0.02519426991943      0.21467212861426
  H   -1.75102115882918     -0.54843166859322      1.05623469482548
  H   -2.03478187345762      0.01884510376841     -0.58327470203006
  H   -1.05197183132052      0.99307548238467      0.52629376813052
  C   1.48611080931841      1.07288720784950      0.11319845388486
  N   1.74259430470892      2.17061215273237      0.44829816331309
