10
Coordinates from ORCA-job run
  C   -0.11249938431362     -0.51809301836383     -0.60438131048945
  C   1.17411663604967     -0.23229693849085     -0.33003441609880
  H   -0.30233037670598     -1.21673094268037     -1.41684637680119
  H   1.97967521493640     -0.68373456889510     -0.90009957469664
  C   -1.30081787645726      0.03908403654854      0.10899052304507
  H   -1.01182423650474      0.72752417095383      0.90410755716831
  H   -1.89550310670432     -0.76829333375207      0.54587226867693
  H   -1.95099581091295      0.57009484109461     -0.59224109518476
  C   1.55361538043073      0.67015993880270      0.71407399552292
  N   1.86756356018209      1.41128581478254      1.57155842885761
