10
Coordinates from ORCA-job run
  C   -0.07839850416820     -0.72425073397729     -0.34099543330838
  C   1.16854687659850     -0.21723840728871     -0.36049385930531
  H   -0.22223343606006     -1.70425029109310     -0.79210653181092
  H   1.98868902274132     -0.76912548693156     -0.80803640580327
  C   -1.28052951709369     -0.05999827108324      0.24679594265984
  H   -1.03840313379326      0.91350821454158      0.67468170559501
  H   -2.05249924083024      0.07575147803578     -0.51608028242678
  H   -1.71474849512237     -0.68644005001585      1.03145771108111
  C   1.48493020437162      1.06071490231669      0.20097078925743
  N   1.74464622335637      2.11032864549569      0.66380636406125
