10
Coordinates from ORCA-job run
  C   -0.10371228709534     -0.39902253376517      0.13773399742064
  C   0.90178597308767      0.46604892235532     -0.08319468945705
  H   0.13568230698250     -1.38661438645232      0.52858004090333
  H   0.70923160760996      1.46236763550084     -0.47244910437468
  C   -1.54190829467227     -0.08740327930641     -0.12136088860688
  H   -2.12835984365696     -0.18182347760418      0.79702728898656
  H   -1.96443300117043     -0.79197644514226     -0.84338337551442
  H   -1.66851404041019      0.92434581108451     -0.51053285782501
  C   2.26733108279853      0.12983535646925      0.17817665428563
  N   3.39289649652652     -0.13675760313959      0.38940293418187
