13

C	-0.569144	-0.026178	-1.40644
C	0.0	0.0	0.0
F	0.128878	0.822535	-2.230102
H	1.091304	0.0	0.0
H	-1.619271	0.265489	-1.41066
H	-0.462997	-1.04263	-1.791208
N	-0.529367	-1.186207	0.735389
O	0.239331	-1.853551	1.413122
O	-1.737692	-1.399685	0.591514
N	-0.46594	1.193056	0.769711
O	-0.577208	1.074734	1.98642
O	-0.659999	2.219071	0.125266
Cl	3.208396	0.0	0.0
