13

C	-0.548714	-0.041156	-1.410093
C	0.0	0.0	0.0
F	-0.063471	1.023256	-2.133876
H	1.092274	0.0	0.0
H	-1.639933	0.010857	-1.402335
H	-0.199726	-0.965775	-1.870024
N	-0.49722	-1.225869	0.6918
O	-1.493938	-1.125819	1.405214
O	0.091032	-2.267678	0.424421
N	-0.500903	1.164376	0.781794
O	-1.349606	1.89503	0.267756
O	-0.021799	1.29835	1.903002
Cl	3.209689	0.0	0.0
