13

C	-0.471505	0.059191	-1.424225
C	0.0	0.0	0.0
F	-1.836335	0.301279	-1.500509
H	1.089831	0.0	0.0
H	0.051096	0.880244	-1.913337
H	-0.251193	-0.883971	-1.921016
N	-0.461293	-1.212799	0.732028
O	-0.040443	-1.345728	1.875077
O	-1.197883	-2.001685	0.142168
N	-0.497411	1.215187	0.719886
O	-1.282255	1.084962	1.650884
O	-0.088706	2.277273	0.265264
Cl	3.184047	0.0	0.0
