18

C	-0.41933	-0.052389	-1.487479
C	0.0	0.0	0.0
Cl	0.067027	1.556592	-2.165559
H	1.091258	0.0	0.0
C	0.340738	-1.09525	-2.287924
H	-0.021554	-2.091244	-2.048278
H	1.399918	-1.030373	-2.032556
H	0.19815	-0.901769	-3.354996
C	-1.922484	-0.172571	-1.64935
H	-2.436173	0.636589	-1.126622
H	-2.249513	-1.130338	-1.237439
H	-2.192608	-0.13479	-2.708736
N	-0.364509	-1.185452	0.758923
O	-0.115696	-2.287094	0.238251
O	-0.748728	-1.052981	1.932071
C	-0.518924	1.172395	0.67579
N	-0.912005	2.149484	1.199924
H	2.430263	0.0	0.0
