18

C	-0.461273	0.043042	-1.460122
C	0.0	0.0	0.0
Cl	0.416674	-1.217676	-2.416973
H	1.096742	0.0	0.0
C	-1.95141	-0.192449	-1.637683
H	-2.21923	-0.102074	-2.694823
H	-2.22244	-1.186591	-1.288884
H	-2.506734	0.558182	-1.067398
C	-0.023945	1.382329	-2.042167
H	-0.196209	1.38357	-3.120958
H	1.039192	1.534889	-1.845925
H	-0.592807	2.197962	-1.591805
N	-0.375198	-1.169651	0.780849
O	-0.668222	-2.220571	0.194965
O	-0.218125	-1.078637	2.006733
C	-0.420253	1.185023	0.716685
N	-0.752118	2.184704	1.244134
H	2.402858	0.0	0.0
