18

C	-0.315068	-0.023104	-1.494538
C	0.0	0.0	0.0
Cl	-2.124645	-0.108908	-1.759015
H	1.093846	0.0	0.0
C	0.192549	1.289122	-2.073627
H	0.07236	1.285918	-3.159061
H	-0.340609	2.14624	-1.662386
H	1.256364	1.367736	-1.818341
C	0.335345	-1.187869	-2.219879
H	-0.125675	-2.137183	-1.964185
H	0.254112	-1.024216	-3.297116
H	1.388403	-1.212351	-1.920814
N	-0.41446	-1.184931	0.759835
O	-0.024235	-2.277937	0.339355
O	-1.039791	-1.027856	1.816264
C	-0.487541	1.1976	0.654889
N	-0.797769	2.215343	1.156262
H	2.496793	0.0	0.0
