16

C	-0.51779	0.020182	-1.441956
C	0.0	0.0	0.0
Cl	-0.107219	-1.549405	-2.212517
H	1.090575	0.0	0.0
H	-1.610834	0.062748	-1.427807
C	0.08253	1.156675	-2.246158
H	1.171114	1.121186	-2.168246
H	-0.215437	1.084661	-3.293946
H	-0.26444	2.116172	-1.85524
N	-0.475565	-1.053231	0.843739
H	0.2065	-1.798865	0.845691
H	-1.375467	-1.405262	0.545527
N	-0.500271	1.301826	0.584069
O	0.293621	2.212915	0.790311
O	-1.717508	1.364254	0.781218
Cl	3.401436	0.0	0.0
