16

C	-0.492815	-0.006781	-1.451676
C	0.0	0.0	0.0
Cl	-0.137039	-1.614078	-2.170213
H	1.093204	0.0	0.0
H	-1.582348	0.085074	-1.464562
C	0.182504	1.07679	-2.27044
H	1.266099	0.979826	-2.17325
H	-0.111206	2.062951	-1.901969
H	-0.10379	1.001783	-3.321152
N	-0.488238	-1.030275	0.862907
H	0.212781	-1.753565	0.929468
H	-1.360705	-1.422574	0.538115
N	-0.500215	1.319003	0.546561
O	-1.722976	1.405895	0.693173
O	0.301699	2.216123	0.781722
Cl	3.388738	0.0	0.0
