13

C	0.0	0.0	0.0
C	-0.509728	0.108266	-1.430958
F	1.391741	0.0	0.0
H	-0.196608	1.060391	-1.867995
H	-0.331732	0.890747	0.540301
H	-1.608171	0.090011	-1.38534
C	-0.473294	-1.25104	0.700558
H	-1.564491	-1.256325	0.72642
H	-0.083185	-1.26816	1.721485
H	-0.107865	-2.135325	0.172309
C	-0.013431	-0.975681	-2.275267
N	0.397407	-1.838218	-2.956669
Br	-3.887996	0.0	0.0
