15

C	0.0	0.0	0.0
C	-0.193347	-0.154179	-1.544456
Cl	1.851029	0.0	0.0
H	0.367077	0.69564	-1.946377
H	0.362885	-1.054492	-1.826744
N	-0.605406	1.181123	0.483579
H	-1.650931	0.887822	0.33641
H	-0.445998	1.239738	1.485444
C	-0.354348	-1.251653	0.697013
N	-0.461483	-2.339677	1.133329
C	-1.556157	-0.185224	-2.213317
H	-2.117577	0.723818	-2.033476
H	-1.372804	-0.294519	-3.293411
H	-2.180276	-0.994832	-1.850151
F	-2.804025	0.0	0.0
