15

C	0.0	0.0	0.0
C	-0.449385	-0.041929	-1.466205
Cl	1.798448	0.0	0.0
H	-1.531956	-0.192607	-1.383143
H	0.029722	-0.901571	-1.945065
N	-0.562056	1.136352	0.652464
H	-0.340232	1.08986	1.643091
H	-1.600187	0.904928	0.515214
C	-0.346185	-1.29452	0.640477
N	-0.537563	-2.331002	1.15907
C	-0.128037	1.246844	-2.212036
H	-0.448358	1.161264	-3.255002
H	0.942023	1.470288	-2.202524
H	-0.654744	2.082959	-1.75415
F	-2.780575	0.0	0.0
