15

C	0.0	0.0	0.0
C	-0.197701	0.061038	-1.565254
Cl	1.805827	0.0	0.0
H	0.368737	0.951848	-1.863114
H	0.356003	-0.791029	-1.976252
N	-0.615622	1.017963	0.768601
H	-0.446305	1.898713	0.290199
H	-1.652863	0.743151	0.615299
C	-0.403662	-1.318694	0.514362
N	-0.617762	-2.393119	0.9355
C	-1.573135	0.118571	-2.211214
H	-1.414499	0.050928	-3.297979
H	-2.221281	-0.676951	-1.858769
H	-2.098346	1.039435	-1.971305
F	-2.832313	0.0	0.0
