15

C	0.0	0.0	0.0
C	-0.222734	-0.042427	-1.552197
Cl	1.795355	0.0	0.0
H	0.211389	0.908353	-1.880124
H	0.442739	-0.829362	-1.920374
N	-0.626897	1.127187	0.583496
H	-0.480599	1.094119	1.589069
H	-1.667213	0.850699	0.402352
C	-0.36225	-1.299894	0.614164
N	-0.580138	-2.342652	1.110852
C	-1.580201	-0.232496	-2.210977
H	-2.292819	0.528706	-1.919664
H	-1.400496	-0.218129	-3.29565
H	-2.035334	-1.179741	-1.930235
F	-2.841238	0.0	0.0
