15

C	0.0	0.0	0.0
C	-0.445761	-0.001236	-1.465107
Cl	1.797682	0.0	0.0
H	0.036942	0.869254	-1.919953
H	-1.528371	0.149126	-1.390109
N	-0.541495	1.15658	0.643668
H	-1.576644	0.93778	0.525378
H	-0.308675	1.118879	1.632881
C	-0.363536	-1.2741	0.665029
N	-0.557082	-2.29597	1.212399
C	-0.127686	-1.278621	-2.226969
H	0.937999	-1.525884	-2.204556
H	-0.686849	-2.11801	-1.808942
H	-0.424571	-1.170235	-3.273843
F	-2.764815	0.0	0.0
