15

C	0.0	0.0	0.0
C	-0.2236	-0.012179	-1.552654
Cl	1.795515	0.0	0.0
H	0.192112	0.953547	-1.861023
H	0.453531	-0.78	-1.939017
N	-0.626073	1.115926	0.607347
H	-0.475684	1.062533	1.611662
H	-1.665843	0.844581	0.423263
C	-0.364849	-1.31042	0.588489
N	-0.582399	-2.361146	1.068439
C	-1.581206	-0.217456	-2.206216
H	-1.411861	-0.19411	-3.292283
H	-2.016979	-1.175454	-1.929116
H	-2.305355	0.527146	-1.901297
F	-2.844923	0.0	0.0
