15

C	0.0	0.0	0.0
C	-0.444836	0.268075	-1.451912
Cl	1.801991	0.0	0.0
H	0.095713	-0.409736	-2.119906
H	-1.513772	0.028136	-1.415096
N	-0.557104	0.854996	1.000535
H	-1.592795	0.665368	0.811527
H	-0.347311	1.81355	0.739886
C	-0.365664	-1.393626	0.334026
N	-0.545802	-2.529034	0.573229
C	-0.255282	1.718975	-1.873332
H	-0.462531	1.828635	-2.94161
H	-0.964863	2.355458	-1.341479
H	0.759834	2.081536	-1.687485
F	-2.770916	0.0	0.0
