15

C	-0.506921	0.001638	-1.409796
C	0.0	0.0	0.0
Br	0.332234	-1.385166	-2.440905
H	1.091047	0.0	0.0
H	-0.334373	-0.943328	0.450237
N	-2.027438	-0.201724	-1.540107
O	-2.500671	-0.25723	-2.667887
O	-2.662656	-0.287033	-0.492717
N	-0.258042	1.365822	-2.04762
O	-1.21359	2.133956	-2.072498
O	0.883459	1.603487	-2.405531
N	-0.438863	1.203215	0.688446
H	0.337132	1.518907	1.254142
H	-1.249196	1.040458	1.267307
F	2.592516	0.0	0.0
