15

C	-0.50127	0.018436	-1.407358
C	0.0	0.0	0.0
Br	-2.425997	0.36743	-1.567877
H	1.090975	0.0	0.0
H	-0.341839	0.915473	0.491084
N	0.153935	1.114117	-2.234746
O	0.358357	2.169253	-1.651736
O	0.364593	0.879645	-3.419145
N	-0.165027	-1.305774	-2.085213
O	1.036485	-1.511781	-2.164244
O	-1.064825	-2.044689	-2.454922
N	-0.437515	-1.240641	0.632512
H	0.367455	-1.608028	1.122072
H	-1.184683	-1.087454	1.294189
F	2.573622	0.0	0.0
