15

C	-0.478079	0.00738	-1.423417
C	0.0	0.0	0.0
Br	-0.065183	-1.653123	-2.297914
H	1.095775	0.0	0.0
H	-0.360284	-0.938699	0.427422
N	-1.991867	0.235936	-1.473877
O	-2.394351	1.305844	-1.915697
O	-2.677881	-0.650525	-0.982055
N	0.109352	1.154577	-2.245129
O	-0.012042	1.091702	-3.463579
O	0.611284	2.073413	-1.611776
N	-0.583635	1.145516	0.711369
H	-0.851569	0.843981	1.639295
H	0.159922	1.825777	0.814544
F	2.609336	0.0	0.0
