15

C	-0.510367	-0.008458	-1.404108
C	0.0	0.0	0.0
Br	-2.440247	-0.349587	-1.548278
H	1.090972	0.0	0.0
H	-0.338385	-0.92077	0.484781
N	-0.178798	1.31988	-2.073156
O	-1.079196	2.087063	-2.374893
O	1.021309	1.501184	-2.210381
N	0.128757	-1.098955	-2.248012
O	0.269893	-0.875614	-3.444677
O	0.390228	-2.14005	-1.665272
N	-0.433747	1.234977	0.642491
H	0.35996	1.576152	1.171664
H	-1.214113	1.086427	1.269339
F	2.570928	0.0	0.0
