15

C	-0.424931	-0.0018	-1.438769
C	0.0	0.0	0.0
Br	0.097749	1.576384	-2.377135
H	1.093488	0.0	0.0
H	-0.363186	-0.94156	0.427203
N	0.151476	-1.254992	-2.100437
O	1.087556	-1.167071	-2.86973
O	-0.398606	-2.289487	-1.728847
N	-1.935384	-0.184463	-1.655819
O	-2.324026	-0.316607	-2.811104
O	-2.642945	-0.208083	-0.655273
N	-0.469084	1.192411	0.686163
H	-1.259762	0.987497	1.278519
H	0.300154	1.530494	1.248183
F	2.595824	0.0	0.0
