15

C	-0.510008	-0.023086	-1.41319
C	0.0	0.0	0.0
Br	0.488095	-1.213738	-2.530818
H	1.091948	0.0	0.0
H	-0.39257	0.899295	0.481421
N	-2.002971	-0.38618	-1.425562
O	-2.399158	-1.404616	-1.963139
O	-2.694745	0.427196	-0.812325
N	-0.498217	1.347281	-2.082553
O	-1.119092	1.441442	-3.136838
O	0.116848	2.244045	-1.525268
N	-0.435337	-1.246644	0.639801
H	0.395982	-1.669248	1.034102
H	-1.087997	-1.061471	1.388247
F	2.606872	0.0	0.0
