15

C	-0.517893	0.009799	-1.400694
C	0.0	0.0	0.0
Br	-2.44349	0.362362	-1.539459
H	1.091008	0.0	0.0
H	-0.336905	0.918587	0.488708
N	0.13253	1.094646	-2.244083
O	0.343316	0.845179	-3.425681
O	0.336912	2.156552	-1.674991
N	-0.192345	-1.319347	-2.074681
O	1.007055	-1.543042	-2.133932
O	-1.097085	-2.04161	-2.464814
N	-0.436754	-1.2359	0.643694
H	0.37499	-1.60517	1.125455
H	-1.175179	-1.074126	1.316191
F	2.574445	0.0	0.0
