15

C	-0.403603	0.004564	-1.444806
C	0.0	0.0	0.0
Br	-2.325454	-0.302219	-1.759198
H	1.091588	0.0	0.0
H	-0.351923	-0.937369	0.435393
N	-0.004392	1.33719	-2.061075
O	1.195095	1.457897	-2.267446
O	-0.863035	2.204147	-2.190564
N	0.277504	-1.088864	-2.25449
O	0.455419	-0.876506	-3.447172
O	0.522742	-2.122487	-1.652368
N	-0.47934	1.148678	0.742947
H	-1.415245	1.433166	0.476881
H	0.159708	1.920751	0.60007
F	2.563383	0.0	0.0
