15

C	-0.314951	0.084911	-1.478692
C	0.0	0.0	0.0
Br	0.058715	-1.586745	-2.35059
H	1.091982	0.0	0.0
H	-0.3988	-0.949669	0.361542
N	-1.773827	0.404522	-1.839573
O	-1.998581	0.861881	-2.954429
O	-2.616162	0.145467	-0.986214
N	0.468838	1.221288	-2.125074
O	0.099547	2.330969	-1.744659
O	1.374314	0.984167	-2.903595
N	-0.432542	1.108154	0.82334
H	-1.350014	1.454829	0.579094
H	0.24313	1.855156	0.739332
F	2.582705	0.0	0.0
