17
Coordinates from ORCA-job run
  C   -0.41873055947326      0.31781278977997      0.28326204728813
  C   1.05025547315967     -0.08420317862823      0.14615085672759
  Br  -0.57253523228052      2.25917054322689     -0.08733720882331
  H   1.63664609435712      0.52578878628990      0.84081995131482
  H   1.11794970644433     -1.11996578591234      0.50664212665525
  C   -1.32077326758541     -0.40648531352129     -0.70381960731112
  H   -1.21328576373474     -1.48769076697571     -0.55955807365414
  H   -1.06878257816090     -0.16756416207771     -1.73701465115769
  H   -2.36603101869229     -0.13792813201764     -0.53845480358184
  C   -0.89320644982211      0.10578201324064      1.71369429202469
  H   -1.92093373846589      0.45069076924342      1.84256728768691
  H   -0.25780501424501      0.64149649406476      2.42184998724593
  H   -0.85360574631832     -0.96329093081413      1.94972367594660
  C   1.64813740547901      0.00197811117444     -1.25321323329914
  H   1.54081746971804      1.00638889803637     -1.66627101707767
  H   1.17867967952353     -0.70525712364469     -1.93965669283339
  H   2.71420354009674     -0.23472301146466     -1.21838493715162
