17
Coordinates from ORCA-job run
  C   -0.53063378205785      0.49642594691534      0.18280133296642
  C   0.87665312747447      0.69667181005216     -0.38475234455147
  Br  -1.30273798109520      2.31145648736311      0.38867302460676
  H   1.43614090709823      1.33878705272353      0.30310064166357
  H   0.79189053235775      1.24951201438558     -1.32584872507682
  C   -1.44109816413532     -0.26651461148726     -0.76783704709849
  H   -1.09201745664448     -1.29848388729411     -0.86763205860773
  H   -1.45249944155751      0.19623604251259     -1.75709004983438
  H   -2.46414842202428     -0.29090637375343     -0.38787251925206
  C   -0.51834961117681     -0.13862323032803      1.56529671210808
  H   0.13082742284863      0.41576132290076      2.24655705030708
  H   -1.52368850465494     -0.16066896644951      1.99004202682180
  H   -0.15667464747468     -1.16882498564934      1.49708633300131
  C   1.65166117715709     -0.60027725633870     -0.62019112723490
  H   2.63966666122607     -0.36611117168855     -1.02385317292182
  H   1.80318118257045     -1.16163715919673      0.30381786722741
  H   1.15282700008839     -1.25180303466740     -1.34029794412478
