15

C	-0.371595	-0.014485	-1.475664
C	0.0	0.0	0.0
Br	-0.151553	1.83616	-2.08721
H	1.089159	0.0	0.0
H	-0.408474	0.835182	0.558919
N	0.380868	-0.856921	-2.326709
H	0.164588	-1.817766	-2.089198
H	1.368292	-0.691063	-2.127138
N	-1.864828	-0.320676	-1.628554
O	-2.221718	-1.016291	-2.568079
O	-2.596059	0.175123	-0.777215
N	-0.447205	-1.235977	0.691675
O	-0.489775	-1.198579	1.915294
O	-0.722479	-2.224379	0.007502
Br	3.401774	0.0	0.0
