15

C	-0.440201	0.232638	-1.438419
C	0.0	0.0	0.0
Br	-2.309466	0.788758	-1.487207
H	1.091886	0.0	0.0
H	-0.325489	0.850876	0.596924
N	0.365857	1.230448	-2.083591
H	1.345342	0.983652	-1.917683
H	0.191764	2.12834	-1.647755
N	-0.266263	-1.037367	-2.292044
O	-1.243631	-1.637567	-2.709486
O	0.907559	-1.320039	-2.483484
N	-0.543962	-1.201133	0.666758
O	-0.529128	-2.260166	0.042359
O	-0.94797	-1.063902	1.821142
Br	3.414676	0.0	0.0
