15

C	-0.529794	0.019345	-1.419224
C	0.0	0.0	0.0
Br	-2.49936	0.470037	-1.460751
H	1.096098	0.0	0.0
H	-0.387089	0.866866	0.539488
N	0.229182	0.885509	-2.216352
H	-0.215573	1.082746	-3.098681
H	0.485071	1.727461	-1.741817
N	-0.397395	-1.368734	-2.082207
O	-1.019858	-1.56107	-3.11732
O	0.45144	-2.104176	-1.58128
N	-0.450918	-1.198178	0.788898
O	0.399659	-1.774999	1.46395
O	-1.641998	-1.493349	0.740015
Br	3.579538	0.0	0.0
