15

C	-0.329644	0.176295	-1.468686
C	0.0	0.0	0.0
Br	-2.237181	0.694246	-1.759351
H	1.096405	0.0	0.0
H	-0.435615	-0.901773	0.412092
N	0.532085	1.043156	-2.107271
H	1.470803	1.001036	-1.707354
H	0.535131	0.918846	-3.109357
N	-0.323371	-1.267368	-2.116243
O	0.112287	-1.327906	-3.260789
O	-0.774097	-2.201639	-1.466675
N	-0.465309	1.138201	0.825615
O	-1.173194	0.862319	1.796748
O	-0.097981	2.265868	0.512814
Br	3.407839	0.0	0.0
