17

C	0.0	0.0	0.0
C	-0.509047	0.129444	-1.481161
Cl	1.754359	0.0	0.0
H	-1.603097	0.072204	-1.327448
N	-0.542645	0.916133	0.914184
H	-1.582772	0.763982	0.747839
H	-0.283773	1.855615	0.640347
N	-0.424198	-1.407843	0.525758
O	-0.446402	-1.549433	1.734763
O	-0.638352	-2.29833	-0.289753
N	-0.011616	-0.732918	-2.509358
H	-0.360629	-1.657277	-2.305096
H	1.0005	-0.755441	-2.488221
N	-0.174419	1.534905	-1.90193
O	-0.919573	2.446089	-1.539218
O	0.843405	1.700712	-2.576476
F	-2.741598	0.0	0.0
