17

C	0.0	0.0	0.0
C	-0.530814	-0.213937	-1.445426
Cl	1.788375	0.0	0.0
H	-1.611854	-0.345442	-1.282713
N	-0.574317	1.123636	0.558538
H	-0.330544	1.17998	1.540631
H	-1.624361	0.897339	0.432461
N	-0.337985	-1.303385	0.83665
O	-0.428339	-1.133722	2.044688
O	-0.454098	-2.384752	0.270034
N	0.063971	-1.211795	-2.282722
H	1.072237	-1.120986	-2.263269
H	-0.189079	-2.111868	-1.901501
N	-0.356618	1.099734	-2.160186
O	-1.326062	1.842394	-2.262967
O	0.759756	1.326921	-2.631017
F	-2.774985	0.0	0.0
