17

C	0.0	0.0	0.0
C	-0.504736	0.236044	-1.465078
Cl	1.816301	0.0	0.0
H	0.321998	0.070194	-2.161042
N	-0.482625	0.840806	1.009815
H	-0.314819	1.790344	0.694823
H	-1.513729	0.643113	0.942465
N	-0.246615	-1.475715	0.46827
O	0.330657	-2.344662	-0.17265
O	-0.924494	-1.651536	1.465841
N	-0.983524	1.574758	-1.511973
H	-1.859872	1.489184	-0.981779
H	-1.219034	1.794103	-2.470618
N	-1.596459	-0.719448	-2.059772
O	-1.633853	-1.904249	-1.786656
O	-2.266719	-0.186178	-2.943127
F	-2.66105	0.0	0.0
