17

C	0.0	0.0	0.0
C	-0.529864	-0.3446	-1.400067
Cl	1.771606	0.0	0.0
H	-1.604523	-0.515241	-1.220451
N	-0.573056	1.175163	0.464824
H	-0.313243	1.304543	1.436268
H	-1.61987	0.941687	0.370924
N	-0.357997	-1.216244	0.947546
O	-0.782002	-2.26315	0.48708
O	-0.180812	-0.982976	2.141087
N	0.178647	-1.39921	-2.040638
H	-0.416419	-1.83983	-2.728016
H	1.00904	-1.030192	-2.487092
N	-0.446868	0.940809	-2.225275
O	0.629527	1.16832	-2.787143
O	-1.443575	1.644863	-2.322143
F	-2.781877	0.0	0.0
