17

C	0.0	0.0	0.0
C	-0.2804	-0.121585	-1.544375
Cl	1.788278	0.0	0.0
H	0.209351	0.775509	-1.929233
N	-0.623729	1.154823	0.482728
H	-1.653623	0.927981	0.377105
H	-0.399142	1.256135	1.467254
N	-0.417798	-1.233275	0.833966
O	-1.081969	-2.110192	0.306433
O	-0.105285	-1.174813	2.022995
N	-1.590148	-0.276542	-2.038173
H	-2.283162	-0.355825	-1.244688
H	-1.832152	0.54498	-2.571372
N	0.586057	-1.220432	-2.208123
O	0.766708	-2.303851	-1.666032
O	0.975784	-0.931246	-3.340599
F	-2.976725	0.0	0.0
