13

C	-0.576385	0.033835	-1.392476
C	0.0	0.0	0.0
Br	-2.508556	0.195869	-1.374268
H	1.091034	0.0	0.0
H	-0.189062	0.91577	-1.901151
H	-0.337796	0.878133	0.548571
N	-0.13141	-1.12955	-2.270393
O	-0.948086	-1.938437	-2.679202
O	1.069044	-1.105595	-2.507252
N	-0.465096	-1.175572	0.774315
O	-0.768098	-0.992893	1.950901
O	-0.478984	-2.258696	0.193639
Br	3.442211	0.0	0.0
