13

C	-0.556414	0.032661	-1.402094
C	0.0	0.0	0.0
Br	-2.492186	0.09347	-1.420596
H	1.091047	0.0	0.0
H	-0.204932	0.94554	-1.882815
H	-0.355857	0.86682	0.554508
N	-0.02328	-1.083547	-2.298828
O	1.182784	-0.995217	-2.484162
O	-0.786419	-1.913459	-2.770925
N	-0.449931	-1.196474	0.754731
O	-0.439769	-2.269024	0.155501
O	-0.753131	-1.036818	1.934505
Br	3.428544	0.0	0.0
