13

C	-0.605773	0.008146	-1.380025
C	0.0	0.0	0.0
Br	0.261466	-1.250462	-2.557498
H	1.085788	0.0	0.0
H	-1.660932	-0.252572	-1.374333
H	-0.345135	0.865122	0.571199
N	-0.536163	1.382316	-2.003492
O	-1.182898	1.530099	-3.03797
O	0.123083	2.245449	-1.432095
N	-0.49201	-1.194657	0.753556
O	0.188675	-1.558638	1.703119
O	-1.572756	-1.695541	0.425098
Br	3.488294	0.0	0.0
