14

C	-0.573289	-0.013644	-1.421861
C	0.0	0.0	0.0
Cl	-0.036212	-1.479192	-2.295884
H	1.089876	0.0	0.0
H	-1.663838	-0.068321	-1.368463
C	-0.213997	1.174041	-2.193074
N	0.038715	2.121061	-2.840427
N	-0.407168	-1.097862	0.811092
H	0.376828	-1.735339	0.886204
H	-1.236738	-1.574575	0.488092
N	-0.569828	1.263607	0.603188
O	-1.80139	1.294774	0.716098
O	0.187892	2.16619	0.937482
H	2.742646	0.0	0.0
