14

C	-0.45567	-0.035454	-1.433476
C	0.0	0.0	0.0
Cl	-2.26371	0.034024	-1.574004
H	1.098266	0.0	0.0
H	-0.080512	0.841066	-1.959853
C	0.000847	-1.252236	-2.095578
N	0.341897	-2.205452	-2.689565
N	-0.409498	-1.126017	0.763443
H	-1.270225	-0.941401	1.260583
H	0.321271	-1.319778	1.439241
N	-0.350656	1.302926	0.584043
O	-0.618008	1.344004	1.79314
O	-0.233462	2.304571	-0.13559
H	2.503821	0.0	0.0
