14

C	-0.388608	-0.00622	-1.460045
C	0.0	0.0	0.0
Cl	-2.189152	0.016509	-1.69304
H	1.092979	0.0	0.0
H	-0.009792	0.891225	-1.945464
C	0.124514	-1.201351	-2.121356
N	0.49828	-2.163462	-2.681745
N	-0.415001	-1.105971	0.778162
H	0.374332	-1.72261	0.921808
H	-1.21143	-1.600681	0.406345
N	-0.395697	1.306665	0.583922
O	-0.680394	1.370243	1.778706
O	-0.288335	2.292277	-0.160627
H	2.542686	0.0	0.0
