14

C	-0.388332	0.011265	-1.461263
C	0.0	0.0	0.0
Cl	-2.188853	0.038219	-1.695319
H	1.092952	0.0	0.0
H	-0.008298	0.912985	-1.937274
C	0.124196	-1.178341	-2.134584
N	0.496903	-2.136408	-2.702472
N	-0.416168	-1.113842	0.764549
H	-1.232422	-1.585632	0.404422
H	0.363774	-1.749488	0.87969
N	-0.397804	1.299477	0.598287
O	-0.680072	1.350092	1.794404
O	-0.300209	2.292723	-0.137336
H	2.544372	0.0	0.0
