14

C	-0.496177	0.194609	-1.435891
C	0.0	0.0	0.0
Cl	-0.312094	-1.329413	-2.366147
H	1.099183	0.0	0.0
H	-1.562623	0.431142	-1.439108
C	0.211297	1.242267	-2.176137
N	0.719798	2.04656	-2.864076
N	-0.390471	-1.259139	0.584291
H	-0.754177	-1.0493	1.507604
H	0.47602	-1.777047	0.729325
N	-0.415876	1.114459	0.790365
O	-0.413342	0.993249	2.034724
O	-0.632261	2.199853	0.20532
H	2.402993	0.0	0.0
