14

C	-0.45476	-0.005435	-1.434698
C	0.0	0.0	0.0
Cl	-2.262397	0.058479	-1.577455
H	1.099578	0.0	0.0
H	-0.08321	0.884713	-1.940171
C	0.007159	-1.206589	-2.121804
N	0.339341	-2.162767	-2.715979
N	-0.407688	-1.143272	0.737913
H	0.322038	-1.35839	1.407366
H	-1.268497	-0.972733	1.236735
N	-0.351365	1.290008	0.609491
O	-0.624287	1.307333	1.818078
O	-0.228944	2.305814	-0.0896
H	2.499602	0.0	0.0
