14

C	-0.446893	0.073056	-1.450186
C	0.0	0.0	0.0
Cl	0.190052	1.476132	-2.363493
H	1.094429	0.0	0.0
H	0.015563	-0.799359	-1.920004
C	-1.896094	-0.025149	-1.621305
N	-3.051778	-0.19443	-1.752773
N	-0.336816	-1.235011	0.634131
H	0.491313	-1.820089	0.668266
H	-1.128884	-1.717489	0.232154
N	-0.508266	1.137419	0.798981
O	-0.150687	1.182353	1.974559
O	-1.204404	1.998985	0.241564
H	2.568505	0.0	0.0
