14

C	-0.506575	0.304044	-1.418763
C	0.0	0.0	0.0
Cl	-0.340112	-1.146394	-2.475856
H	1.10234	0.0	0.0
H	-1.571664	0.548346	-1.41002
C	0.195101	1.409254	-2.074272
N	0.68814	2.283779	-2.684108
N	-0.348645	-1.259552	0.564113
H	-1.109614	-1.723575	0.090576
H	0.479698	-1.846534	0.550331
N	-0.437007	1.102395	0.867141
O	-0.881955	2.132001	0.319895
O	-0.231535	0.998863	2.076287
H	2.505994	0.0	0.0
