14

C	-0.511354	-0.039517	-1.441878
C	0.0	0.0	0.0
Cl	-0.283796	-1.680808	-2.133703
H	1.101381	0.0	0.0
H	-1.585914	0.160643	-1.467275
C	0.152567	0.907997	-2.342708
N	0.612015	1.620721	-3.156361
N	-0.36943	-1.159579	0.776054
H	0.509541	-1.613051	1.023321
H	-0.766471	-0.820729	1.644782
N	-0.422553	1.21915	0.614612
O	-0.693298	2.189859	-0.12546
O	-0.382998	1.29552	1.860905
H	2.402325	0.0	0.0
