15
Coordinates from ORCA-job run
  C   0.59771906911935      0.10526027919406      0.72975589843522
  C   -0.48796524413471      0.47839987986324     -0.26542090226214
  Cl  -0.02747322656820     -0.90904655611292      2.05116697321542
  H   -0.11603930431408      1.25257111447155     -0.93865116595802
  H   0.90871784910787      1.04098747142570      1.19562842600772
  C   1.76235395784049     -0.57707576312995      0.03399998430346
  H   2.12516467170407      0.03227169341568     -0.79812950287037
  H   2.57702801113473     -0.72254057740241      0.74329970775042
  H   1.46652937940930     -1.55520406575865     -0.34853138371203
  N   -1.70241946077505      1.07202808331533      0.40065310369211
  O   -1.44397501310989      1.93027225013475      1.23499652036300
  O   -2.80696525253357      0.71761204925059      0.01685760433420
  N   -0.87585654460614     -0.67075437621255     -1.13536150623780
  O   -0.55405778163906     -0.56593486330580     -2.31856357089553
  O   -1.42276111063512     -1.62784661914861     -0.60270018616566
