15
Coordinates from ORCA-job run
  C   0.62853466579441     -0.13855438176757      0.82153201726093
  C   -0.80336567027744      0.11008543003712      0.37231491262040
  Cl  0.60670587365761     -1.60409556784207      1.84859238454351
  H   -1.50699030425211      0.03028296097768      1.20062793369914
  H   0.88693047130243      0.69055294408606      1.48079841997143
  C   1.66139584718824     -0.28338462271791     -0.27859151153474
  H   1.48509683994628     -1.17668247478309     -0.87623877870301
  H   2.64868957492429     -0.36393948683412      0.17775356277062
  H   1.64684610647117      0.59010804634444     -0.93020782205712
  N   -1.25274632418734     -0.86466472418205     -0.67118492218731
  O   -0.82046169155828     -0.68436525830501     -1.80545163994585
  O   -1.98992347325047     -1.76822760754250     -0.29305368559835
  N   -1.00155453794933      1.48550152126176     -0.21896660215856
  O   -0.08613778831781      2.29451428782125     -0.11256571793147
  O   -2.10301958949165      1.68286893344603     -0.71535855074961
