15
Coordinates from ORCA-job run
  C   0.77567094527049      0.26181625295817      0.47325514749173
  C   -0.55687892826528      0.37867912083680     -0.24234404620433
  Cl  0.59266863720002     -0.37046879272021      2.12717648666040
  H   -0.44657337757010      0.98727534753453     -1.14080233112265
  H   1.11829680933322      1.29194843325630      0.59175849841046
  C   1.78650247469651     -0.54671392547107     -0.32040084832930
  H   1.86733796303638     -0.15752276937854     -1.33975081559799
  H   2.76531284813555     -0.47130808075052      0.15359468084922
  H   1.50046800305177     -1.59691034149768     -0.35631448723016
  N   -1.56257952597494      1.10106159681015      0.61874306731505
  O   -1.24639401638514      2.25269226357644      0.88786057729556
  O   -2.56353123256420      0.49791747279507      0.97552946741079
  N   -1.17882900543877     -0.90419670040195     -0.69394401276914
  O   -0.95183439285973     -1.92233652416631     -0.05132872228302
  O   -1.89963720166578     -0.80293335338117     -1.68403266189662
