16

C	0.0	0.0	0.0
C	-0.501871	0.111379	-1.456299
F	1.380671	0.0	0.0
H	-1.6083	0.119607	-1.386329
N	-0.452142	1.181917	0.676839
H	-1.474739	1.178725	0.642283
H	-0.187633	1.110385	1.653945
C	-0.420535	-1.320304	0.622909
H	-1.508869	-1.395205	0.618105
H	0.023955	-2.164923	0.091172
H	-0.061791	-1.335395	1.65603
C	-0.078743	-1.034591	-2.26346
N	0.253987	-1.952301	-2.91585
C	-0.032364	1.348777	-2.084801
N	0.360647	2.31232	-2.627611
Br	-3.740521	0.0	0.0
