16

C	0.0	0.0	0.0
C	-0.456616	-0.086646	-1.492612
F	1.386289	0.0	0.0
H	-1.562714	-0.116347	-1.445087
N	-0.464539	1.179376	0.648833
H	-1.478568	1.099348	0.747134
H	-0.259467	2.00164	0.089983
C	-0.442637	-1.234377	0.755955
H	0.032204	-2.120878	0.331203
H	-1.528661	-1.332439	0.725868
H	-0.115101	-1.11484	1.79007
C	0.047342	-1.282938	-2.166609
N	0.431805	-2.256686	-2.698932
C	-0.035388	1.110056	-2.222406
N	0.279436	2.093046	-2.782564
Br	-3.726065	0.0	0.0
