14
Coordinates from ORCA-job run
  C   -0.61975576102880     -0.43992148654036      0.26534729695364
  C   0.72102652391979      0.01575720895365     -0.30605425542294
  Cl  -0.85937131458555     -2.14031804055659     -0.22204356020552
  H   0.75479757949898     -0.13294876657747     -1.38728222573333
  H   -0.54366919605299     -0.43405125621219      1.35370454619024
  C   -1.76760473180381      0.42100468494262     -0.22432225531949
  H   -2.70875879293472      0.03704223335067      0.16978526277337
  H   -1.64504296758831      1.45106809857012      0.11745454839407
  H   -1.82352083450883      0.41018046361072     -1.31470602218602
  N   1.83761644603771     -0.83760668373486      0.26012713990898
  O   2.56790854057301     -1.39236701674168     -0.55102937615390
  O   1.90458935064562     -0.89482653868936      1.48160115430843
  C   0.99708191388679      1.40628924680027      0.04009784144331
  N   1.18570324394112      2.53169785282446      0.31831990504917
