14
Coordinates from ORCA-job run
  C   -0.61630421475350     -0.69054989785595     -0.28218298906778
  C   0.84153010617025     -0.24186828228941     -0.44891669177017
  Cl  -1.26069893857594     -1.00535891105827     -1.91559492398308
  H   1.40293985116460     -1.01039805384974     -0.98459008504076
  H   -0.59650471275924     -1.65226742949970      0.23295020046084
  C   -1.47231354884909      0.31930065256075      0.45247624034424
  H   -1.08340034293222      0.49226710868690      1.45890616779413
  H   -2.49186832162254     -0.05751968626958      0.54055457047207
  H   -1.49934243029257      1.26972991755375     -0.08323096047103
  N   1.45257578495134     -0.18038205998959      0.93723106550315
  O   1.65875522842997      0.91813449301912      1.43778332916013
  O   1.64156033163258     -1.27492184055015      1.45765522669674
  C   0.96890312413705      1.04525083830693     -1.11833098592325
  N   1.05316808329920      2.06958315123490     -1.68571016417515
