14
Coordinates from ORCA-job run
  C   -0.62860949996023     -0.43583260960379      0.25240066581784
  C   0.72917085055335      0.01057188715162     -0.28532062333380
  Cl  -0.85965862569318     -2.13990816014832     -0.22541082367803
  H   0.79163569624640     -0.14774110160081     -1.36394457327614
  H   -0.58363838328831     -0.41965901941321      1.34236024668230
  C   -1.75890767832185      0.42446620067488     -0.27779134913618
  H   -2.71326808727130      0.04265278775519      0.08579382565275
  H   -1.64592702533277      1.45540906759144      0.06507529792084
  H   -1.77863718121326      0.41048052376642     -1.36961563641563
  N   1.82659994196912     -0.84111223945947      0.31891876836936
  O   2.57676566700520     -1.40595260635161     -0.46669846716167
  O   1.85972723275874     -0.88766317994004      1.54214725134069
  C   0.99993369661994      1.40342295784868      0.05532842203999
  N   1.18481339592815      2.53086549172901      0.32775699517768
