14
Coordinates from ORCA-job run
  C   -0.70288158980224      0.10371035309484     -0.52192240877269
  C   0.78233284446350     -0.23224663195278     -0.32044005383678
  Cl  -0.91740235943198      1.86619682803737     -0.66295539365534
  H   0.87797635221269     -1.31802580543435     -0.23110823550446
  H   -0.96768854504302     -0.31347394560113     -1.49698431764478
  C   -1.60880932253332     -0.46095849372399      0.55629250361272
  H   -1.42927868085904      0.01712164850368      1.51838755825703
  H   -2.64853659908021     -0.29130493888778      0.27451747222875
  H   -1.44450459154334     -1.53551753310263      0.66727300231234
  N   1.28365338383493      0.31532808142112      0.99582759578702
  O   1.02249948941502     -0.37544015176475      1.97697386344767
  O   1.86724011021929      1.39108363256193      0.98645420638983
  C   1.61704431793375      0.24973598530769     -1.41331503623690
  N   2.26935519021397      0.58479097154078     -2.33000075638442
