14
Coordinates from ORCA-job run
  C   -0.68316431079185      0.31877607245721     -0.45473487827388
  C   0.66508449336444     -0.41430207821462     -0.39390561040507
  Cl  -0.41982058688911      2.07951393815691     -0.50812002328564
  H   0.46812356186537     -1.48931339372117     -0.35330704418701
  H   -1.12057387712880      0.04745238232503     -1.41910430128868
  C   -1.62951104300864     -0.04656280212451      0.67356473204353
  H   -2.60049834004898      0.41412768866993      0.48875227001758
  H   -1.75855098043094     -1.13041453043465      0.72555033323620
  H   -1.25793371303575      0.30423764144782      1.63541794704458
  N   1.39087331613769     -0.09929886612991      0.89367472782697
  O   2.24586036019238      0.77619553492506      0.87277838050353
  O   1.02113416800264     -0.74805110539405      1.86857421548182
  C   1.51768656792126     -0.11009064955434     -1.53586630800847
  N   2.16229038385030      0.09973016759130     -2.49427444070547
