16

C	0.0	0.0	0.0
C	-0.346929	0.090981	-1.540225
Cl	1.770848	0.0	0.0
H	0.396304	0.784867	-1.939405
N	-0.32863	1.400769	0.62666
O	-0.613493	1.402605	1.817442
O	-0.232143	2.389645	-0.093607
N	-0.619169	-1.044151	0.669145
H	-0.457208	-0.979755	1.666588
H	-1.6301	-0.981316	0.498079
N	-1.627507	0.550316	-1.989571
H	-2.411095	0.089045	-1.52462
H	-1.71502	1.534353	-1.769306
C	-0.045944	-1.231314	-2.115055
N	0.201509	-2.261194	-2.621004
Cl	-3.924087	0.0	0.0
