16

C	0.0	0.0	0.0
C	-0.355013	-0.148181	-1.521164
Cl	1.81098	0.0	0.0
H	0.373001	0.481277	-2.037452
N	-0.299319	1.479968	0.416168
O	-0.566859	1.662486	1.596694
O	-0.198981	2.347771	-0.44447
N	-0.602107	-0.932024	0.827591
H	-0.432476	-0.722483	1.803581
H	-1.614435	-0.918235	0.657497
N	-1.651853	0.223901	-2.002555
H	-1.734756	1.232329	-1.972205
H	-2.427224	-0.142443	-1.445716
C	-0.048298	-1.54208	-1.892936
N	0.202959	-2.634427	-2.241634
Cl	-3.991518	0.0	0.0
