16

C	0.0	0.0	0.0
C	-0.348924	0.051339	-1.545529
Cl	1.771515	0.0	0.0
H	0.379338	0.731378	-1.992902
N	-0.395658	1.372698	0.580635
O	-0.174156	2.337578	-0.14595
O	-0.855087	1.410288	1.710325
N	-0.577618	-0.99802	0.800786
H	-1.587285	-0.831981	0.863283
H	-0.40567	-1.910029	0.393413
N	-1.652346	0.462645	-1.967566
H	-2.414096	0.02755	-1.439393
H	-1.746188	1.459308	-1.820437
C	-0.055636	-1.301091	-2.050908
N	0.175678	-2.392075	-2.419068
Cl	-3.99213	0.0	0.0
