16

C	-0.205064	0.112326	-1.527655
C	0.0	0.0	0.0
Cl	-1.849508	0.868685	-1.905428
H	1.10816	0.0	0.0
N	0.8535	0.946568	-1.989004
H	1.702795	0.724522	-1.433748
H	1.012946	0.830209	-2.980395
C	-0.257809	-1.168909	-2.256863
N	-0.248583	-2.098452	-2.978365
N	-0.542905	-1.295314	0.531107
O	-1.461174	-1.24847	1.355742
O	-0.018398	-2.334732	0.136239
N	-0.465721	1.144218	0.687495
H	-1.438133	1.053176	0.950313
H	0.10305	1.280118	1.511778
F	2.602051	0.0	0.0
