16

C	-0.220569	0.209894	-1.516815
C	0.0	0.0	0.0
Cl	-1.849864	1.042386	-1.816663
H	1.109526	0.0	0.0
N	0.855214	1.031941	-1.945216
H	1.006926	0.966893	-2.941803
H	1.702108	0.782583	-1.398279
C	-0.344242	-1.015679	-2.325574
N	-0.41406	-1.895855	-3.101626
N	-0.535235	-1.325516	0.458128
O	-0.04826	-2.336987	-0.041814
O	-1.403964	-1.331474	1.337417
N	-0.450093	1.099467	0.766448
H	-1.420281	1.000945	1.035484
H	0.129573	1.178884	1.590684
F	2.600385	0.0	0.0
