16

C	-0.179768	0.12003	-1.521988
C	0.0	0.0	0.0
Cl	-1.893529	0.584393	-1.928187
H	1.095987	0.0	0.0
N	0.722936	1.148326	-2.002893
H	1.63024	0.867346	-1.591956
H	0.455728	1.983514	-1.485259
C	0.096978	-1.109096	-2.276789
N	0.307225	-2.025691	-2.980569
N	-0.583948	-1.249198	0.569819
O	-1.416943	-1.144041	1.477858
O	-0.184915	-2.321021	0.117758
N	-0.44404	1.188698	0.645269
H	0.136784	1.344427	1.458714
H	-1.409978	1.110513	0.937122
F	2.565667	0.0	0.0
