16

C	-0.559858	-0.014333	-1.388509
C	0.0	0.0	0.0
Br	0.661302	1.324429	-2.453494
H	1.088264	0.0	0.0
N	-0.232604	-1.333406	-2.052324
O	-0.886839	-1.617652	-3.053565
O	0.694021	-1.983201	-1.588675
N	-1.915609	0.256706	-1.565084
H	-2.172295	1.126186	-1.116033
H	-2.148937	0.269516	-2.552377
N	-0.361098	-1.23757	0.774069
O	0.395589	-1.525135	1.7159
O	-1.373541	-1.860069	0.404069
C	-0.507128	1.137725	0.714036
N	-0.938396	2.089065	1.26062
H	2.446652	0.0	0.0
