16

C	-0.361611	-0.053773	-1.469156
C	0.0	0.0	0.0
Br	-2.288195	-0.550643	-1.733281
H	1.09545	0.0	0.0
N	-0.243015	1.388877	-2.070839
O	0.544018	2.139315	-1.50226
O	-0.788861	1.595025	-3.150521
N	0.492295	-0.898079	-2.165211
H	0.476319	-0.738271	-3.162617
H	1.432121	-0.856434	-1.753742
N	-0.305631	-1.255614	0.71961
O	-0.631453	-1.1541	1.906433
O	-0.082646	-2.314855	0.137011
C	-0.575976	1.116321	0.710508
N	-0.994918	2.052853	1.28599
H	2.426663	0.0	0.0
