16

C	-0.277466	-0.002541	-1.484721
C	0.0	0.0	0.0
Br	0.369458	-1.683751	-2.380255
H	1.095485	0.0	0.0
N	-1.761364	0.066068	-1.85399
O	-2.018168	0.340927	-3.0221
O	-2.575367	-0.128435	-0.960148
N	0.352167	1.140339	-1.99777
H	1.32589	1.133624	-1.670753
H	0.304975	1.158964	-3.009029
N	-0.443028	-1.127097	0.828785
O	-0.28551	-0.969847	2.041217
O	-0.837132	-2.163564	0.29836
C	-0.419359	1.242747	0.609431
N	-0.701789	2.255814	1.135283
H	2.434029	0.0	0.0
