16

C	-0.603184	0.030529	-1.411984
C	0.0	0.0	0.0
Br	0.029589	1.678846	-2.263929
H	1.091571	0.0	0.0
N	-0.026691	-1.116387	-2.269671
O	1.190237	-1.194837	-2.316991
O	-0.828232	-1.839027	-2.844138
N	-2.022322	-0.016106	-1.528591
H	-2.418588	0.679119	-0.904972
H	-2.322026	-0.944416	-1.247756
N	-0.369605	-1.186039	0.708572
O	-0.661639	-2.199769	0.027985
O	-0.187118	-1.193558	1.942922
C	-0.409591	1.162453	0.755539
N	-0.75517	2.117041	1.351102
H	2.29969	0.0	0.0
