13

C	0.0	0.0	0.0
C	-0.565673	-0.101214	-1.431135
Br	1.949982	0.0	0.0
H	-1.654883	0.116746	-1.14995
H	-0.327583	0.933549	0.452984
C	-0.440407	-1.124013	0.819773
N	-0.624348	-2.070625	1.491117
N	-0.502941	-1.414615	-2.039094
H	0.39864	-1.851175	-1.878455
H	-1.218653	-1.97487	-1.591607
C	0.009296	0.921936	-2.293121
N	0.432664	1.77048	-2.989113
F	-2.623262	0.0	0.0
