13

C	0.0	0.0	0.0
C	-0.566493	0.270382	-1.408252
Br	1.947169	0.0	0.0
H	-1.661183	0.388123	-1.08051
H	-0.331155	0.78365	0.67823
C	-0.440275	-1.299546	0.497547
N	-0.624204	-2.3927	0.88678
N	-0.47321	-0.831273	-2.344809
H	-1.16756	-1.51448	-2.064839
H	0.443265	-1.266327	-2.308037
C	-0.011499	1.496636	-1.963553
N	0.398015	2.50482	-2.410118
F	-2.627331	0.0	0.0
