13

C	0.0	0.0	0.0
C	-0.439967	-0.118715	-1.516204
Br	1.949866	0.0	0.0
H	0.477026	-0.136261	-2.115726
H	-0.338185	0.955158	0.387917
C	-0.433581	-1.066173	0.893264
N	-0.589728	-1.938297	1.665737
N	-1.277365	0.958353	-2.000074
H	-0.760843	1.826246	-1.895841
H	-2.049073	0.91386	-1.306396
C	-1.092598	-1.410094	-1.769017
N	-1.494736	-2.468891	-2.078219
F	-2.442714	0.0	0.0
