13

C	0.0	0.0	0.0
C	-0.437696	0.009125	-1.476042
Br	1.9523	0.0	0.0
H	-0.044871	-0.916442	-1.926044
H	-0.332486	0.90703	0.493928
C	-0.411375	-1.196142	0.725767
N	-0.573293	-2.197477	1.318803
N	0.099687	1.21398	-2.123901
H	1.034251	1.029948	-2.468917
H	-0.50199	1.396631	-2.918532
C	-1.918867	0.019977	-1.704374
N	-2.665142	0.071666	-2.631423
F	-2.443326	0.0	0.0
