16
Coordinates from ORCA-job run
  C   1.03586120912981      0.42130367103900     -0.57511902306771
  C   -0.47462919290067      0.34741625553969     -0.35919223310050
  Br  1.75490067493160      2.20377683324397     -0.39247546092026
  H   -0.88787416991124      1.02767672694342     -1.11395669312998
  H   1.30816950622688      0.07518561146161     -1.57032920851740
  N   1.74373485927842     -0.51960517932995      0.36533816584603
  O   2.05626840041980     -1.60442392594930     -0.12474121948318
  O   1.89292620222010     -0.18353364805549      1.53357682623773
  C   -0.94056898320387      0.81137347038855      1.01723180708345
  H   -0.59062691330265      1.81758435261685      1.24917256081463
  H   -2.03295889945880      0.81744474197431      1.03954941226481
  H   -0.59015113288098      0.14010143790336      1.80292407739610
  C   -0.96746648438619     -1.06952142015337     -0.66274220203109
  H   -0.62786462090316     -1.78035003002537      0.09413604517786
  H   -0.62003528964160     -1.42385450067628     -1.63619742395257
  H   -2.05968516561744     -1.08257439692101     -0.66617543061791
