16
Coordinates from ORCA-job run
  C   1.02841805609160      0.40952810464435     -0.59679963501987
  C   -0.47890999577897      0.34456744521082     -0.35637890974339
  Br  1.75524623089569      2.19250283060990     -0.45521077398902
  H   -0.90198819869830      1.01806819863891     -1.11163470013471
  H   1.28356278151749      0.04702934108736     -1.59072958074560
  N   1.74723379330402     -0.51816009561191      0.34815428074975
  O   1.91789930105695     -0.16142878723256      1.50720982183100
  O   2.04664894585035     -1.61285004336988     -0.12770335837022
  C   -0.91990067571516      0.82437382843135      1.02291610813718
  H   -0.57116194480960      0.15130804529884      1.80787557853993
  H   -0.55004350774277      1.82561250730099      1.24526743617887
  H   -2.01166917484162      0.84910873493840      1.05868401077954
  C   -0.98303642055590     -1.07317331264180     -0.63720787216994
  H   -0.65830302881109     -1.43620764443547     -1.61528946713807
  H   -2.07515042172985     -1.08178441729577     -0.61673272193929
  H   -0.62984574003285     -1.77949473557352      0.11757978303384
