14

C	0.0	0.0	0.0
C	-0.461921	-0.324676	-1.429649
Cl	1.80705	0.0	0.0
H	-1.543916	-0.455006	-1.342821
H	-0.003272	-1.264717	-1.756522
N	-0.495081	1.240434	0.516049
H	-1.502147	1.092305	0.64934
H	-0.396696	1.904174	-0.249732
C	-0.36791	-1.109661	0.893528
N	-0.580349	-2.040683	1.576937
N	-0.170232	0.810459	-2.296213
H	0.662103	0.648239	-2.844813
H	-0.949634	0.974097	-2.917557
Cl	-3.596459	0.0	0.0
