14

C	0.0	0.0	0.0
C	-0.482146	0.434942	-1.386361
Cl	1.784678	0.0	0.0
H	-0.003592	-0.210821	-2.127535
H	-1.561521	0.255428	-1.385466
N	-0.539513	0.881579	0.997176
H	-1.561814	0.80257	0.895077
H	-0.293651	0.543675	1.921338
C	-0.354914	-1.423388	0.198743
N	-0.569213	-2.56679	0.359298
N	-0.108107	1.830167	-1.630043
H	-0.710188	2.176518	-2.368853
H	-0.354552	2.347744	-0.792727
Cl	-3.605739	0.0	0.0
