14

C	0.0	0.0	0.0
C	-0.412485	0.048841	-1.495191
Cl	1.760083	0.0	0.0
H	-1.497688	0.16718	-1.435967
H	-0.169038	-0.946794	-1.880554
N	-0.464748	1.240159	0.742076
O	-0.501487	1.166342	1.962743
O	-0.665934	2.246157	0.07813
C	-0.514435	-1.187339	0.671025
N	-0.627897	-2.245218	1.173051
N	0.324536	1.057502	-2.250136
H	-0.251972	1.881169	-2.339715
H	0.538923	0.705329	-3.172249
F	-2.458769	0.0	0.0
