14

C	0.0	0.0	0.0
C	-0.423329	-0.040061	-1.489185
Cl	1.759572	0.0	0.0
H	-1.511588	0.048316	-1.427556
H	-0.142498	-1.043422	-1.825625
N	-0.467373	1.265501	0.694358
O	-0.532495	1.229411	1.915022
O	-0.627925	2.258101	-0.003084
C	-0.504939	-1.157015	0.732085
N	-0.637918	-2.183184	1.291859
N	0.285056	0.939954	-2.313709
H	0.2445	0.623588	-3.274818
H	-0.218065	1.815351	-2.250102
F	-2.472536	0.0	0.0
