14

C	0.0	0.0	0.0
C	-0.315961	-0.160051	-1.57203
Cl	1.773363	0.0	0.0
H	-0.388506	-1.246334	-1.689971
H	0.59434	0.169344	-2.074781
N	-0.403745	1.343118	0.556979
O	-0.649796	1.417023	1.751
O	-0.338902	2.287452	-0.223254
C	-0.499053	-1.073284	0.842804
N	-0.636473	-2.035931	1.504337
N	-1.432585	0.469729	-2.209289
H	-2.20673	0.28607	-1.548352
H	-1.272102	1.468898	-2.18377
F	-2.41958	0.0	0.0
