17

C	0.0	0.0	0.0
C	-0.517905	-0.176436	-1.415318
Br	1.956474	0.0	0.0
H	-1.567441	0.135638	-1.384719
H	0.02645	0.498915	-2.076544
N	-0.336492	1.41878	0.481852
O	-0.443111	1.595196	1.689495
O	-0.417215	2.291344	-0.374888
C	-0.515667	-1.009091	0.991868
H	-1.610616	-0.973178	0.949504
H	-0.158063	-2.000867	0.712794
H	-0.170856	-0.773152	1.996279
C	-0.437842	-1.620149	-1.898817
H	-0.629762	-1.659793	-2.973515
H	0.543057	-2.06675	-1.716238
H	-1.202568	-2.223149	-1.408015
Cl	-3.778326	0.0	0.0
