17

C	0.0	0.0	0.0
C	-0.531864	-0.116043	-1.415347
Br	1.956021	0.0	0.0
H	-1.593866	0.147637	-1.341994
H	-0.032431	0.622887	-2.042871
N	-0.335772	1.398145	0.540523
O	-0.430873	2.304067	-0.279163
O	-0.42591	1.527074	1.755389
C	-0.52254	-1.043435	0.952445
H	-0.167278	-0.857289	1.963782
H	-1.616313	-0.985085	0.919629
H	-0.187942	-2.029853	0.629099
C	-0.399158	-1.520374	-1.993331
H	0.611165	-1.922422	-1.876863
H	-1.111185	-2.197403	-1.520038
H	-0.630709	-1.498413	-3.060754
Cl	-3.769535	0.0	0.0
