14

C	-0.440779	0.106268	-1.443106
C	0.0	0.0	0.0
Br	-0.0528	-1.580003	-2.384545
H	1.088676	0.0	0.0
H	-1.517162	0.228793	-1.566352
H	-0.362079	0.894347	0.523953
C	0.386643	1.216171	-2.069999
H	0.064894	2.176902	-1.650887
H	1.430335	1.044149	-1.783446
H	0.270365	1.25447	-3.155182
N	-0.645551	-1.133452	0.705126
O	0.030454	-1.811306	1.474504
O	-1.854747	-1.308349	0.50983
F	2.636483	0.0	0.0
