14

C	-0.246728	-0.049922	-1.485179
C	0.0	0.0	0.0
Br	-2.170832	-0.247344	-1.968171
H	1.092592	0.0	0.0
H	-0.008538	0.955238	-1.839821
H	-0.420387	0.885083	0.471578
C	0.620786	-1.048116	-2.226422
H	0.296653	-2.070626	-2.044805
H	1.622156	-0.902977	-1.801622
H	0.617043	-0.84504	-3.300434
N	-0.494629	-1.149487	0.762098
O	-0.433221	-2.272459	0.259314
O	-0.915204	-0.933218	1.90284
F	2.588739	0.0	0.0
