14

C	-0.235868	-0.077454	-1.487584
C	0.0	0.0	0.0
Br	-2.155515	-0.306859	-1.978063
H	1.092557	0.0	0.0
H	-0.007232	0.92428	-1.857669
H	-0.43251	0.8893	0.452275
C	0.648333	-1.079914	-2.204333
H	0.655562	-0.892899	-3.280311
H	0.332274	-2.101991	-2.011796
H	1.643192	-0.92128	-1.767692
N	-0.499949	-1.142539	0.769633
O	-0.347462	-2.277709	0.315224
O	-1.021081	-0.908435	1.865577
F	2.593379	0.0	0.0
