14

C	-0.230599	-0.053935	-1.487766
C	0.0	0.0	0.0
Br	-2.148443	-0.253747	-1.98666
H	1.092573	0.0	0.0
H	0.015805	0.949647	-1.84159
H	-0.426827	0.886475	0.462579
C	0.636556	-1.057408	-2.220978
H	0.644292	-0.853666	-3.293569
H	0.304175	-2.07754	-2.042459
H	1.632155	-0.915768	-1.784099
N	-0.510987	-1.146985	0.753748
O	-0.388518	-2.278718	0.278736
O	-1.016696	-0.921506	1.858877
F	2.588325	0.0	0.0
