16

C	0.0	0.0	0.0
C	-0.50709	-0.17757	-1.473262
Cl	1.79613	0.0	0.0
H	-1.591794	-0.081727	-1.361817
C	-0.416986	1.277363	0.579394
N	-0.601862	2.347715	1.028636
C	-0.412646	-1.133469	0.831178
N	-0.58753	-2.111451	1.459146
N	-0.223335	-1.486618	-2.015065
H	-0.811125	-2.17618	-1.562738
H	0.747838	-1.743152	-1.879471
C	0.02146	0.91765	-2.383317
H	-0.164406	1.910633	-1.968357
H	1.092033	0.807923	-2.574585
H	-0.505254	0.834058	-3.334618
Cl	-3.398817	0.0	0.0
