16

C	0.0	0.0	0.0
C	-0.437465	-0.216558	-1.553987
Cl	1.795173	0.0	0.0
H	0.491553	0.006044	-2.086662
C	-0.412878	1.326509	0.454612
N	-0.599782	2.444513	0.764664
C	-0.444455	-1.039123	0.920571
N	-0.709019	-1.929935	1.639686
N	-1.447556	0.648716	-2.074215
H	-1.16168	1.618219	-2.006856
H	-2.316521	0.529317	-1.541495
C	-0.807045	-1.674583	-1.763714
H	-0.017455	-2.342595	-1.404912
H	-0.950049	-1.84063	-2.832335
H	-1.740931	-1.896237	-1.243368
Cl	-3.666879	0.0	0.0
