16

C	0.0	0.0	0.0
C	-0.587422	-0.009911	-1.430349
Cl	1.81081	0.0	0.0
H	-1.643917	0.233567	-1.254897
C	-0.385631	1.230016	0.702665
N	-0.581534	2.263996	1.225044
C	-0.406979	-1.18584	0.758702
N	-0.626872	-2.169232	1.362707
N	-0.420876	-1.352682	-1.974441
H	-0.416703	-1.300755	-2.985671
H	-1.23589	-1.895933	-1.705975
C	0.056683	1.036578	-2.318744
H	-0.539423	1.137256	-3.229577
H	1.074227	0.748967	-2.592449
H	0.082255	2.012549	-1.830262
Cl	-3.550103	0.0	0.0
