16

C	0.0	0.0	0.0
C	-0.47306	-0.280101	-1.48399
Cl	1.800328	0.0	0.0
H	0.446198	-0.238103	-2.074099
C	-0.410697	1.321395	0.484577
N	-0.593418	2.378215	0.964234
C	-0.41664	-1.025336	0.959766
N	-0.669084	-1.862603	1.744271
N	-1.303406	0.826726	-1.922914
H	-1.482511	0.714614	-2.915301
H	-2.203619	0.751577	-1.436114
C	-1.070605	-1.678646	-1.63396
H	-0.393822	-2.45822	-1.26928
H	-1.245766	-1.85873	-2.698856
H	-2.023248	-1.732854	-1.106484
Cl	-3.695804	0.0	0.0
