16

C	0.0	0.0	0.0
C	-0.576269	0.241768	-1.415776
Cl	1.796838	0.0	0.0
H	-1.655511	0.297762	-1.220325
C	-0.407204	1.056365	0.932359
N	-0.609947	1.948592	1.669374
C	-0.402451	-1.318089	0.502614
N	-0.610416	-2.394426	0.923766
N	-0.238586	-0.911714	-2.237419
H	0.110886	-0.621696	-3.140146
H	-1.066588	-1.477036	-2.375826
C	-0.092639	1.55057	-2.012816
H	0.974824	1.513567	-2.245777
H	-0.278865	2.387958	-1.337585
H	-0.649309	1.737491	-2.934316
Cl	-3.548123	0.0	0.0
