10
Coordinates from ORCA-job run
  C   0.13436281976985     -0.03834762431883      0.53919281846881
  C   -1.09024738618338     -0.09966136675140     -0.35930472816710
  H   0.13838161592883     -0.90479831726025      1.20655994682898
  H   -2.01217138594723     -0.10644733258004      0.22704490761514
  H   0.07448280385386      0.85682474152783      1.17757760132491
  H   -1.12665612507281      0.76641537557238     -1.02669155932803
  H   -1.05389136863930     -0.99945508100037     -0.97524054334930
  N   1.35172438465039     -0.09960077899780     -0.27162576561642
  H   2.16781437007251     -0.10870625989414      0.32804776808967
  H   1.41520027156726      0.73377664370262     -0.84456044586666
