16

C	0.153417	-0.011086	-0.057469
C	-0.548499	0.037855	-1.420627
Br	1.975396	-0.791175	-0.251531
H	0.205679	0.284817	-2.177124
H	0.357691	1.015949	0.242997
C	-0.614011	-0.775274	0.99943
H	-0.539334	-1.84524	0.801828
H	-1.679382	-0.520239	0.91602
H	-0.22202	-0.565995	1.998429
N	-1.502638	1.154021	-1.341399
H	-2.323687	0.741037	-0.853372
H	-1.815083	1.333153	-2.291928
N	-1.120488	-1.271312	-1.726708
H	-2.016783	-1.27467	-1.206282
H	-1.368859	-1.268061	-2.711458
F	-3.296924	-0.50964	-0.231311
