16

C	-0.024103	0.013077	-0.050617
C	-0.348961	0.120062	-1.548468
Br	1.986791	-0.125166	0.1357
H	0.32264	0.894158	-1.959901
H	-0.239659	0.975923	0.416537
C	-0.696418	-1.111426	0.687881
H	-0.455692	-2.070105	0.229543
H	-0.394484	-1.114793	1.738989
H	-1.783109	-0.901233	0.618196
N	-1.711466	0.53557	-1.799908
H	-1.75217	1.542718	-1.688865
H	-2.389437	0.170737	-1.070784
N	-0.145287	-1.178295	-2.18888
H	-0.573803	-1.10553	-3.103214
H	0.846564	-1.358069	-2.295714
F	-3.302467	-0.021735	0.196533
