20

C	0.0	0.0	0.0
C	-0.407251	0.045417	-1.475634
F	1.42796	0.0	0.0
H	0.150113	0.902951	-1.882786
N	-0.455964	1.170234	0.665539
H	-0.129508	2.001018	0.186106
H	-0.132297	1.187439	1.624209
C	-0.449865	-1.228239	0.758202
H	-0.042345	-2.133698	0.307916
H	-1.539351	-1.274383	0.773213
H	-0.085357	-1.169947	1.788495
C	-1.901274	0.28738	-1.670141
H	-2.235601	1.22134	-1.221859
H	-2.132853	0.314459	-2.73988
H	-2.52514	-0.483661	-1.216509
C	0.053681	-1.20274	-2.22591
H	1.090129	-1.455338	-1.993012
H	-0.583708	-2.055864	-1.980851
H	-0.026513	-1.038399	-3.304812
Cl	-5.142243	0.0	0.0
