20

C	0.0	0.0	0.0
C	-0.329517	0.138978	-1.501596
F	1.399916	0.0	0.0
H	0.357636	-0.578501	-1.970354
N	-0.466079	1.135209	0.748638
H	-0.439162	0.918684	1.739682
H	-1.444327	1.286948	0.514252
C	-0.425978	-1.33691	0.581616
H	0.002109	-1.439315	1.584451
H	-1.514438	-1.386536	0.651753
H	-0.060527	-2.164229	-0.033516
C	0.0431	1.53394	-2.005787
H	-0.676502	2.278517	-1.657987
H	0.036615	1.545198	-3.100605
H	1.033717	1.829108	-1.655442
C	-1.748154	-0.230361	-1.908658
H	-2.518699	0.362867	-1.413726
H	-1.85762	-0.091647	-2.990786
H	-1.989563	-1.270126	-1.677878
Cl	-4.583925	0.0	0.0
