18

C	0.0	0.0	0.0
C	-0.489588	0.051052	-1.4523
Br	1.960478	0.0	0.0
H	-1.58568	0.064164	-1.298549
N	-0.469278	1.19301	0.665329
H	-1.499277	1.100971	0.596769
H	-0.235285	1.119321	1.650934
N	-0.457376	-1.262867	0.556969
H	-0.171701	-1.310659	1.530066
H	-1.486977	-1.152207	0.539739
N	-0.044903	-1.142502	-2.183243
H	-0.131683	-1.922665	-1.538631
H	-0.713593	-1.301063	-2.930589
C	-0.074361	1.299199	-2.207987
H	-0.364452	2.197877	-1.663667
H	-0.565153	1.306799	-3.18783
H	1.005639	1.300729	-2.370699
H	-3.101574	0.0	0.0
