18

C	0.0	0.0	0.0
C	-0.335807	0.0315	-1.530334
Br	1.966195	0.0	0.0
H	0.435736	0.665265	-1.979376
N	-0.38385	1.263802	0.589117
H	-1.38242	1.366128	0.395464
H	-0.275185	1.188104	1.597155
N	-0.508652	-1.19912	0.61572
H	-0.296995	-1.161733	1.609553
H	-1.533846	-1.098967	0.530002
N	-1.613438	0.687291	-1.7818
H	-1.887731	0.484432	-2.73889
H	-2.367356	0.324596	-1.157258
C	-0.22063	-1.368555	-2.14197
H	-1.031745	-2.002218	-1.784459
H	-0.297893	-1.281941	-3.232307
H	0.729799	-1.851654	-1.902349
H	-3.375073	0.0	0.0
