18

C	0.0	0.0	0.0
C	-0.337868	0.114033	-1.53624
Br	1.97359	0.0	0.0
H	0.511779	0.620027	-2.003026
N	-0.408094	1.142457	0.783478
H	-0.226136	1.984124	0.243749
H	-1.430611	1.056301	0.824975
N	-0.517418	-1.209538	0.561713
H	-0.369236	-1.14456	1.566141
H	-1.538761	-1.128819	0.416895
N	-1.492571	0.990445	-1.731199
H	-2.28267	0.62726	-1.159607
H	-1.770806	0.912387	-2.705576
C	-0.460582	-1.265297	-2.187772
H	0.413765	-1.888419	-1.980721
H	-0.549451	-1.137641	-3.273557
H	-1.351763	-1.781386	-1.828495
H	-3.227265	0.0	0.0
