18

C	0.0	0.0	0.0
C	-0.483546	0.102751	-1.443396
Br	2.005441	0.0	0.0
H	-1.577602	0.145367	-1.25721
N	-0.381945	1.202328	0.700384
H	0.333999	1.908603	0.696789
H	-0.678675	0.993399	1.641033
N	-0.575422	-1.176548	0.551725
H	-1.613018	-0.984116	0.459342
H	-0.347159	-1.24579	1.541861
N	-0.079977	-1.083244	-2.2149
H	-0.802949	-1.23155	-2.913333
H	-0.149914	-1.865878	-1.569613
C	-0.060769	1.363079	-2.173274
H	1.023244	1.388088	-2.311972
H	-0.398066	2.251887	-1.637221
H	-0.526234	1.374613	-3.164422
H	-3.143263	0.0	0.0
