18

C	0.0	0.0	0.0
C	-0.55518	0.143813	-1.417368
Br	2.047032	0.0	0.0
H	-1.632123	0.268912	-1.209687
C	-0.27799	1.202421	0.796629
N	-0.447468	2.169277	1.442373
N	-0.499061	-1.12226	0.654269
H	-0.337645	-1.992233	0.171882
H	-0.280713	-1.17481	1.637709
C	-0.378059	-1.129148	-2.236062
H	0.670779	-1.442441	-2.276007
H	-0.996011	-1.940293	-1.844144
H	-0.717074	-0.946474	-3.258858
C	-0.024502	1.36846	-2.148834
H	-0.621568	1.526419	-3.051041
H	-0.107326	2.270356	-1.537674
H	1.02131	1.241772	-2.441736
Br	-3.953113	0.0	0.0
