18

C	0.0	0.0	0.0
C	-0.521891	0.317241	-1.409767
Br	1.970728	0.0	0.0
H	-1.611447	0.294639	-1.26682
C	-0.314162	1.106263	0.9299
N	-0.52758	1.972946	1.696136
N	-0.499486	-1.272218	0.437356
H	-0.281459	-1.406537	1.419177
H	-1.523548	-1.209747	0.352897
C	-0.137804	-0.76297	-2.414085
H	0.925974	-0.711856	-2.664895
H	-0.714313	-0.615917	-3.332177
H	-0.35774	-1.756369	-2.023319
C	-0.138611	1.706713	-1.900807
H	0.940987	1.797759	-2.051596
H	-0.463864	2.483691	-1.205449
H	-0.633195	1.892944	-2.858305
Br	-3.774674	0.0	0.0
