18

C	0.0	0.0	0.0
C	-0.549722	0.149442	-1.417929
Br	2.047573	0.0	0.0
H	-1.626527	0.27222	-1.208182
C	-0.280241	1.198901	0.801168
N	-0.445152	2.161091	1.455111
N	-0.498637	-1.124978	0.646816
H	-0.337149	-1.996123	0.169176
H	-0.314431	-1.173126	1.636245
C	-0.370754	-1.121129	-2.24074
H	-0.707495	-0.935079	-3.263729
H	0.678305	-1.433717	-2.279468
H	-0.989838	-1.932833	-1.852485
C	-0.019364	1.377206	-2.143619
H	-0.103127	2.276608	-1.528798
H	1.026461	1.251902	-2.436639
H	-0.616054	1.538865	-3.045511
Br	-3.948426	0.0	0.0
