11
Coordinates from ORCA-job run
  C   -0.81755941303484     -0.26347180448155      0.14998933385364
  C   0.54846772206694      0.40097416784928      0.10571864780968
  Br  -0.63233883102281     -2.17136690596614      0.49772830248570
  H   1.13417683009217      0.20758427933085      1.00190990020750
  H   -1.30006911892828     -0.17776455001399     -0.82457329624822
  H   0.43634324284138      1.47634402918132     -0.05672249497448
  C   -1.64240035613875      0.35248520509917      1.17833287165161
  N   -2.30937511843587      0.87253286467270      1.99368529044880
  N   1.33306563131868     -0.11697320134757     -1.05819910604479
  O   0.73429507551087     -0.20599411317748     -2.12598920665877
  O   2.51539433573051     -0.37334997114660     -0.86188024253066
