11
Coordinates from ORCA-job run
  C   -0.90500392985431     -0.35175172696381      0.12187156874219
  C   0.52115839504132     -0.50694407200187     -0.38400493629338
  Br  -1.66438674673862     -2.12997381672547      0.36696177501193
  H   1.16741087956158     -0.99039278308525      0.34579636948724
  H   -1.51928957934908      0.15230701871728     -0.62284200511755
  H   0.53340906414153     -1.05814974598021     -1.32571581770002
  C   -0.94841937637677      0.38661652483587      1.37643697813700
  N   -0.95348142923541      0.98921573059099      2.38486523662972
  N   1.11037964769123      0.84180764263125     -0.67116593354215
  O   2.30225637760099      0.98892747643782     -0.42982506422944
  O   0.35596669751752      1.67833775154339     -1.16237817112553
