11
Coordinates from ORCA-job run
  C   -0.89004979076405     -0.38035305198506      0.14363622277997
  C   0.54238589518423     -0.50835333039508     -0.35175104938930
  Br  -1.57635354414253     -2.16961846242407      0.49939611153425
  H   1.20584914492179     -0.92069780823815      0.40572842874343
  H   -1.52271080134479      0.05036813074524     -0.63112718189414
  H   0.57862199561938     -1.11476642665577     -1.25822110513617
  C   -0.96822456144940      0.43300874663582      1.34916253613477
  N   -1.00313472987022      1.09859571967215      2.31649633061045
  N   1.07794042445571      0.84281713285977     -0.72074903056587
  O   0.29090596329052      1.61817724308379     -1.25877121892383
  O   2.26377000409935      1.04982210670137     -0.49380004389356
