11
Coordinates from ORCA-job run
  C   -0.81573390450058     -0.49169841146389      0.29058998579631
  C   0.28580670018481     -0.29921967287821     -0.73809085838186
  Br  -0.13560645105568     -1.43705398761259      1.85339383941817
  H   0.66814353883617     -1.25911591790656     -1.07962136746071
  H   -1.55884312941915     -1.16233488157637     -0.14872885572491
  H   -0.08765463661600      0.28104803628982     -1.58660953548836
  C   -1.49467349133409      0.73520640921382      0.68695281586117
  N   -2.11401167609476      1.69285748598357      0.96767206310016
  N   1.46129139103264      0.45505316038366     -0.20066694196669
  O   1.22747346123915      1.38975317279173      0.55691810258378
  O   2.56380819772750      0.09550460677503     -0.59980924773706
