15

C	-0.529087	-0.002152	-1.428495
C	0.0	0.0	0.0
F	-0.070651	-1.128758	-2.038056
H	1.094281	0.0	0.0
C	-1.993771	0.023795	-1.530521
N	-3.166154	-0.020777	-1.591775
N	0.023936	1.163967	-2.259646
O	-0.414271	1.202217	-3.404777
O	0.857311	1.891601	-1.74859
C	-0.472752	-1.192911	0.687048
N	-0.859542	-2.164885	1.222103
N	-0.475725	1.201311	0.76047
O	-0.156446	1.253737	1.938669
O	-1.136987	2.036866	0.145015
Cl	3.086173	0.0	0.0
