15

C	-0.509881	-0.005947	-1.430594
C	0.0	0.0	0.0
F	-1.860893	0.005721	-1.506074
H	1.09155	0.0	0.0
C	0.034681	1.088925	-2.236832
N	0.447984	1.955034	-2.915874
N	-0.029691	-1.328242	-2.080406
O	1.183041	-1.444579	-2.158346
O	-0.896081	-2.107335	-2.44169
C	-0.544519	-1.123228	0.727257
N	-0.941592	-2.069507	1.304721
N	-0.456811	1.304968	0.609035
O	-1.500436	1.304334	1.261491
O	0.312696	2.248122	0.455347
Cl	2.675838	0.0	0.0
