15

C	-0.424784	0.008728	-1.463889
C	0.0	0.0	0.0
F	0.332522	0.835691	-2.197381
H	1.09646	0.0	0.0
C	-0.386722	-1.343029	-2.037326
N	-0.349065	-2.415767	-2.515794
N	-1.894597	0.476873	-1.616286
O	-2.668196	0.044666	-0.773531
O	-2.148388	1.185305	-2.573887
C	-0.494336	-1.143631	0.742654
N	-0.86029	-2.083194	1.345738
N	-0.401244	1.272753	0.685483
O	-0.659669	2.233343	-0.035652
O	-0.376816	1.26578	1.908704
Cl	3.058974	0.0	0.0
