15

C	-0.572386	0.008616	-1.411498
C	0.0	0.0	0.0
F	-0.141935	-1.117282	-2.045179
H	1.094135	0.0	0.0
C	-2.040449	0.039328	-1.443748
N	-3.21406	-0.016481	-1.438348
N	-0.050618	1.171579	-2.26111
O	-0.627793	1.296293	-3.338541
O	0.909746	1.795949	-1.845403
C	-0.464459	-1.193457	0.692718
N	-0.847899	-2.169435	1.22243
N	-0.455606	1.205214	0.766497
O	-1.031362	2.089854	0.133034
O	-0.196267	1.220789	1.960711
Cl	3.093684	0.0	0.0
