15

C	-0.521917	0.081857	-1.428791
C	0.0	0.0	0.0
F	-0.057629	-1.006674	-2.100598
H	1.094157	0.0	0.0
C	-1.986065	0.111424	-1.539134
N	-3.158631	0.068718	-1.601774
N	0.035576	1.295529	-2.186325
O	0.853723	2.001641	-1.622684
O	-0.383472	1.390993	-3.335219
C	-0.472343	-1.233041	0.612437
N	-0.860232	-2.236103	1.085774
N	-0.480209	1.152279	0.829423
O	-0.159444	1.136925	2.008672
O	-1.148043	2.018255	0.264877
Cl	3.086317	0.0	0.0
