15

C	-0.570503	0.003752	-1.415788
C	0.0	0.0	0.0
F	-0.145776	-1.128317	-2.043011
H	1.094291	0.0	0.0
C	-2.038698	0.044137	-1.444294
N	-3.212688	0.002331	-1.427809
N	-0.04407	1.159701	-2.274524
O	-0.714091	1.389719	-3.276785
O	1.008431	1.671842	-1.942661
C	-0.472972	-1.185643	0.698572
N	-0.858137	-2.160468	1.22946
N	-0.450116	1.21758	0.747701
O	-0.938198	2.130695	0.081473
O	-0.265418	1.220432	1.95589
Cl	3.084662	0.0	0.0
