15

C	-0.554889	0.154544	-1.413058
C	0.0	0.0	0.0
F	-1.90335	0.32385	-1.374171
H	1.091764	0.0	0.0
C	0.039439	1.215983	-2.22411
N	0.410345	2.059496	-2.951276
N	-0.288755	-1.175875	-2.149552
O	-1.21933	-1.967813	-2.177677
O	0.834156	-1.30619	-2.608016
C	-0.52252	-1.200489	0.636349
N	-0.922082	-2.184816	1.140165
N	-0.410766	1.21962	0.795189
O	-0.858909	1.053679	1.921965
O	-0.213439	2.295632	0.242165
Cl	3.068574	0.0	0.0
