15

C	-0.611254	0.001993	-1.39665
C	0.0	0.0	0.0
F	-0.196542	-1.123979	-2.04078
H	1.094594	0.0	0.0
C	-2.078425	0.023395	-1.36756
N	-3.250745	-0.02882	-1.305508
N	-0.129994	1.164253	-2.266222
O	-0.868231	1.438614	-3.208069
O	0.96231	1.637265	-2.003426
C	-0.452248	-1.191962	0.705252
N	-0.822419	-2.17162	1.237629
N	-0.441636	1.212418	0.762114
O	-0.247942	1.206292	1.967383
O	-0.933977	2.129895	0.107433
Cl	3.087109	0.0	0.0
