15

C	-0.516924	-0.00193	-1.429485
C	0.0	0.0	0.0
F	-1.86265	0.113065	-1.49415
H	1.094004	0.0	0.0
C	0.117212	0.982601	-2.30883
N	0.636972	1.71555	-3.066577
N	-0.15261	-1.391092	-2.017144
O	1.044985	-1.627785	-2.052423
O	-1.078445	-2.090782	-2.390717
C	-0.513128	-1.14434	0.719013
N	-0.928559	-2.104877	1.258915
N	-0.438264	1.261053	0.692313
O	-0.563925	1.203943	1.909778
O	-0.49078	2.272757	-0.001741
Cl	2.66724	0.0	0.0
