14

C	-0.458255	-0.002352	-1.450246
C	0.0	0.0	0.0
F	-0.056112	1.172779	-2.07209
H	1.095764	0.0	0.0
H	-1.552962	-0.03713	-1.541282
C	0.095079	-1.139003	-2.209179
N	0.464923	-2.047103	-2.853706
C	-0.530485	-1.183675	0.646504
N	-0.98158	-2.135152	1.172483
C	-0.440955	1.275992	0.713318
H	0.05741	2.122131	0.240012
H	-0.105274	1.23277	1.751139
H	-1.526761	1.434714	0.696572
F	2.533205	0.0	0.0
