14

C	-0.313539	0.007908	-1.473453
C	0.0	0.0	0.0
F	-1.690869	-0.002209	-1.756739
H	1.096801	0.0	0.0
H	0.11563	-0.882682	-1.939825
C	0.24711	1.200316	-2.1328
N	0.632573	2.155292	-2.695441
C	-0.510168	-1.220762	0.5926
N	-0.917097	-2.205471	1.091369
C	-0.4812	1.243552	0.740369
H	0.028484	2.118459	0.329831
H	-0.197925	1.165822	1.79228
H	-1.56404	1.390204	0.674409
F	2.524449	0.0	0.0
