14

C	-0.304119	0.033818	-1.484655
C	0.0	0.0	0.0
F	-0.031209	-1.189491	-2.07481
H	1.095887	0.0	0.0
H	0.364794	0.773264	-1.937609
C	-1.7075	0.37994	-1.803674
N	-2.818323	0.680917	-2.041665
C	-0.614636	-1.141895	0.641411
N	-1.126733	-2.050867	1.185512
C	-0.384243	1.318787	0.669628
H	0.183273	2.123929	0.19565
H	-1.454209	1.547666	0.623044
H	-0.075322	1.285758	1.715575
F	2.538091	0.0	0.0
