14

C	0.0	0.0	0.0
C	-0.421384	0.065047	-1.474031
Br	1.920072	0.0	0.0
H	-1.552979	-0.082546	-1.297421
H	-0.401923	0.844076	0.55889
N	-0.49563	-1.247779	0.65666
O	-0.591698	-2.242486	-0.067215
O	-0.509688	-1.256274	1.882037
C	0.254946	-0.869349	-2.348912
N	0.775856	-1.60566	-3.103687
N	-0.228907	1.463946	-1.966283
O	0.540127	1.644961	-2.924662
O	-0.884588	2.334415	-1.372315
H	-2.432568	0.0	0.0
