14

C	0.0	0.0	0.0
C	-0.251094	0.252538	-1.506238
Br	1.927981	0.0	0.0
H	0.20854	-0.585768	-2.033522
H	-0.303933	0.784501	0.676859
N	-0.526762	-1.284232	0.461229
O	-0.523739	-2.209381	-0.373535
O	-0.568239	-1.444589	1.6932
C	0.352555	1.519625	-1.928646
N	0.764641	2.5483	-2.318948
N	-1.682893	0.27901	-2.041582
O	-2.251152	1.365197	-2.115974
O	-2.070238	-0.771362	-2.546573
H	-1.949061	0.0	0.0
