16

C	-0.403574	-0.056542	-1.455841
C	0.0	0.0	0.0
F	-1.787838	-0.34176	-1.579346
H	1.094795	0.0	0.0
H	-0.319607	-0.954774	0.436047
C	-0.228081	1.252848	-2.118818
N	-0.132484	2.29673	-2.64776
C	0.378041	-1.126625	-2.190329
H	0.144139	-2.09384	-1.73944
H	1.44684	-0.9304	-2.051522
H	0.112236	-1.148898	-3.249943
C	-0.572362	1.174254	0.776715
H	-1.66413	1.219182	0.712952
H	-0.290272	1.09023	1.829362
H	-0.162947	2.117536	0.406971
H	2.993418	0.0	0.0
