16

C	-0.38641	-0.105548	-1.461364
C	0.0	0.0	0.0
F	-1.776499	-0.352819	-1.605103
H	1.09464	0.0	0.0
H	-0.366377	0.946278	0.408692
C	-0.166592	1.190304	-2.14012
N	-0.063945	2.226725	-2.682586
C	0.372395	-1.203278	-2.179761
H	0.076066	-2.169082	-1.765981
H	0.149394	-1.19292	-3.248579
H	1.442812	-1.053042	-2.002353
C	-0.489654	-1.175364	0.838041
H	0.005777	-2.101617	0.541285
H	-1.571711	-1.315506	0.774929
H	-0.222035	-0.99893	1.883043
H	2.980537	0.0	0.0
