16

C	-0.406268	0.057459	-1.463768
C	0.0	0.0	0.0
F	-0.178629	-1.203095	-2.034884
H	1.09477	0.0	0.0
H	-0.370742	-0.943807	0.41332
C	-1.858154	0.310365	-1.62958
N	-3.006362	0.532471	-1.742437
C	0.417895	1.065071	-2.243316
H	0.187476	2.083788	-1.925161
H	1.470408	0.85671	-2.026298
H	0.209364	0.96947	-3.311779
C	-0.489475	1.188057	0.819234
H	-0.123221	1.08461	1.843405
H	-1.580978	1.27186	0.84871
H	-0.07892	2.125084	0.434409
H	3.037001	0.0	0.0
