16

C	-0.401837	-0.086847	-1.457147
C	0.0	0.0	0.0
F	-1.80994	-0.213568	-1.588249
H	1.094664	0.0	0.0
H	-0.36205	0.945955	0.415319
C	-0.068068	1.173864	-2.150371
N	0.157928	2.187672	-2.699336
C	0.248975	-1.257898	-2.166292
H	0.019348	-1.236759	-3.233661
H	-0.132468	-2.188292	-1.742882
H	1.329455	-1.202297	-2.000008
C	-0.493674	-1.182041	0.826272
H	-0.273623	-0.993009	1.879906
H	-1.569003	-1.348914	0.721989
H	0.037442	-2.097145	0.556359
H	2.975331	0.0	0.0
