12

C	-0.496176	0.031009	-1.411594
C	0.0	0.0	0.0
Cl	0.017158	1.526062	-2.246429
H	1.090287	0.0	0.0
H	-0.353983	-0.915434	0.484527
H	-0.373904	0.874244	0.532853
C	-0.063165	-1.123956	-2.193293
N	0.288029	-2.055852	-2.81492
N	-2.045488	0.062364	-1.487462
O	-2.584857	-0.552987	-2.403108
O	-2.619665	0.730477	-0.637196
H	2.87135	0.0	0.0
