12

C	-0.526641	-0.030855	-1.416092
C	0.0	0.0	0.0
Cl	-0.052506	-1.514736	-2.254083
H	1.091241	0.0	0.0
H	-0.368248	-0.882652	0.527169
H	-0.370495	0.902788	0.490615
C	-1.98406	0.095536	-1.49821
N	-3.157493	0.165345	-1.532432
N	0.031122	1.203014	-2.174104
O	-0.364718	2.267678	-1.710582
O	0.773061	1.046426	-3.127684
H	2.877059	0.0	0.0
