12

C	-0.520069	-0.024547	-1.412408
C	0.0	0.0	0.0
Cl	-0.003467	1.410052	-2.312621
H	1.089833	0.0	0.0
H	-0.369683	0.902754	0.492871
H	-0.357165	-0.89188	0.523099
C	-0.123333	-1.219905	-2.15577
N	0.182914	-2.175593	-2.765964
N	-2.066439	-0.034642	-1.358153
O	-2.586187	-1.145285	-1.278479
O	-2.648312	1.038985	-1.28945
H	2.829704	0.0	0.0
