19

C	0.0	0.0	0.0
C	-0.387817	0.104754	-1.492397
Cl	1.872846	0.0	0.0
H	0.368131	0.729788	-1.975542
C	-0.43762	1.182237	0.83636
H	-0.034116	1.090418	1.847714
H	-0.075029	2.118783	0.411194
H	-1.528531	1.192809	0.886014
N	-0.502461	-1.202398	0.533714
H	-0.380969	-1.264893	1.534462
H	-0.095225	-1.998339	0.061917
C	-1.763449	0.729406	-1.701987
H	-2.019149	0.660836	-2.763899
H	-1.783415	1.785973	-1.427914
H	-2.552818	0.228076	-1.136096
N	-0.284558	-1.240365	-2.076415
H	-1.197759	-1.677261	-1.997014
H	-0.077186	-1.156917	-3.064049
Br	-5.012582	0.0	0.0
