19

C	0.0	0.0	0.0
C	-0.307576	-0.703167	-1.336846
Cl	1.898505	0.0	0.0
H	0.314357	-0.202754	-2.093081
C	-0.407556	1.455363	0.036313
H	-0.001954	1.93958	0.928216
H	-1.498448	1.505788	0.066782
H	-0.028429	1.984043	-0.840294
N	-0.53626	-0.721997	1.052766
H	-0.373126	-0.348605	1.973788
H	-0.382891	-1.715929	0.960028
C	-1.767044	-0.583504	-1.740063
H	-1.928783	-1.151446	-2.664022
H	-2.455479	-0.939603	-0.974278
H	-2.04442	0.44981	-1.947487
N	0.054541	-2.117663	-1.188326
H	1.053576	-2.229744	-1.310001
H	-0.419874	-2.660863	-1.897786
Br	-4.961183	0.0	0.0
