19

C	0.0	0.0	0.0
C	-0.468264	-0.055475	-1.467966
Cl	1.814481	0.0	0.0
H	-1.552343	0.090277	-1.387942
C	-0.439204	1.299504	0.65128
H	-0.05995	2.149315	0.08799
H	-0.069107	1.32425	1.678387
H	-1.532436	1.32103	0.656544
N	-0.458529	-1.094415	0.819416
H	-1.473343	-0.989848	0.886477
H	-0.264305	-1.977961	0.364542
C	-0.220175	-1.406013	-2.139769
H	-0.810276	-2.204653	-1.68591
H	0.840266	-1.676151	-2.105354
H	-0.523521	-1.342873	-3.188535
N	0.076105	1.07587	-2.221247
H	1.022581	0.856986	-2.514012
H	-0.483589	1.202625	-3.057088
Br	-3.928175	0.0	0.0
