19

C	0.0	0.0	0.0
C	-0.37007	0.42909	-1.439667
Cl	1.877043	0.0	0.0
H	0.233072	1.319184	-1.653438
C	-0.441658	0.990756	1.053472
H	-1.530781	0.952531	1.126067
H	-0.123135	2.000618	0.789908
H	-0.007349	0.736587	2.023836
N	-0.498834	-1.283109	0.290233
H	-0.149907	-1.984627	-0.345845
H	-0.337186	-1.562847	1.247061
C	-1.847039	0.779335	-1.560416
H	-2.507297	-0.007734	-1.192333
H	-2.072627	0.959925	-2.61367
H	-2.10692	1.678032	-1.003602
N	-0.041064	-0.565018	-2.456614
H	0.88556	-0.946464	-2.308115
H	-0.726132	-1.311716	-2.43543
Br	-5.12732	0.0	0.0
