16

C	-0.577836	-0.068746	-1.575698
C	0.098946	-0.06227	-0.193664
F	-0.060138	0.935249	-2.368973
H	1.184252	-0.108969	-0.379362
C	-0.369907	-1.343165	-2.29879
N	-0.183781	-2.357924	-2.86032
C	-2.03014	0.154861	-1.431983
N	-3.189897	0.284281	-1.299567
C	-0.307758	-1.272395	0.639977
H	-1.370957	-1.225845	0.903032
H	-0.110075	-2.229482	0.146696
H	0.282581	-1.222428	1.556872
N	-0.156712	1.213391	0.424121
H	0.773175	1.422622	0.897424
H	-0.843889	1.093811	1.162665
H	2.24845	1.107999	1.39382
