16

C	-0.578041	-0.033702	-1.53029
C	0.121709	-0.055498	-0.17068
F	-1.958696	0.067754	-1.351052
H	1.199384	-0.155855	-0.342046
C	-0.146111	1.124042	-2.333786
N	0.191322	1.993164	-3.047409
C	-0.338552	-1.267243	-2.308977
N	-0.132232	-2.25762	-2.905873
C	-0.33127	-1.24402	0.672758
H	-1.393334	-1.156379	0.921025
H	0.262135	-1.194166	1.588128
H	-0.159771	-2.21045	0.186281
N	-0.064117	1.2361	0.445158
H	-0.894872	1.204976	1.029202
H	0.779166	1.290631	1.090816
H	2.104043	0.760431	1.794955
