16

C	-0.606127	-0.002985	-1.528709
C	0.103713	-0.058583	-0.175374
F	-1.987085	0.067495	-1.336988
H	1.181929	-0.134594	-0.357116
C	-0.200705	1.189369	-2.294659
N	0.115201	2.084006	-2.986321
C	-0.350502	-1.204465	-2.351022
N	-0.131031	-2.170832	-2.98163
C	-0.3226	-1.282707	0.630269
H	0.276117	-1.253237	1.543094
H	-0.137427	-2.228908	0.110181
H	-1.384363	-1.222617	0.888004
N	-0.099855	1.208179	0.484672
H	-0.925547	1.142983	1.073071
H	0.747113	1.255723	1.125943
H	2.086004	0.724626	1.801698
