16

C	-0.43201	-0.039414	-1.477287
C	0.022136	-0.153288	-0.015757
F	-0.145714	-1.215394	-2.176921
H	1.108171	-0.280303	-0.076707
C	-1.89908	0.147052	-1.550865
N	-3.066718	0.271964	-1.586673
C	0.198931	1.073557	-2.214261
N	0.589071	1.907934	-2.943572
C	-0.643569	-1.350341	0.651913
H	-0.203316	-1.452514	1.645114
H	-0.489617	-2.279177	0.094658
H	-1.717449	-1.182008	0.780914
N	-0.162833	1.073155	0.717301
H	-0.915942	1.647078	0.352602
H	0.776054	1.555197	0.623112
H	2.327549	1.493243	0.247142
