16

C	-0.426595	-0.062698	-1.480755
C	0.035937	-0.125302	-0.023094
F	-1.818136	0.124105	-1.527287
H	1.127035	-0.221913	-0.059747
C	0.160944	1.064934	-2.226608
N	0.525	1.948135	-2.909608
C	-0.147711	-1.31284	-2.21482
N	0.07069	-2.321639	-2.775621
C	-0.604527	-1.315683	0.685618
H	-0.23367	-1.313116	1.711044
H	-1.691602	-1.206482	0.719222
H	-0.354527	-2.276194	0.222468
N	-0.194955	1.118333	0.672109
H	-0.897921	1.687374	0.214463
H	0.750795	1.584804	0.640751
H	2.361466	1.453494	0.330496
