16

C	-0.412592	-0.032652	-1.477049
C	0.042911	-0.126014	-0.018508
F	-1.802157	0.167414	-1.523826
H	1.133173	-0.232647	-0.050205
C	0.187791	1.102371	-2.201037
N	0.561494	1.992507	-2.86975
C	-0.142452	-1.271533	-2.233485
N	0.070298	-2.270859	-2.813124
C	-0.611444	-1.323556	0.665208
H	-0.244035	-1.343543	1.691659
H	-0.368389	-2.277099	0.184362
H	-1.697612	-1.205487	0.697303
N	-0.180354	1.106684	0.697666
H	-0.885576	1.684189	0.254386
H	0.765888	1.571486	0.668822
H	2.37753	1.436258	0.354543
