15

C	-0.511268	-0.012401	-1.426912
C	0.0	0.0	0.0
F	0.048605	1.082778	-2.114647
H	1.092675	0.0	0.0
H	-0.333526	-0.926382	0.476875
C	-0.078017	-1.22161	-2.163201
N	0.197658	-2.185223	-2.773215
N	-1.939549	0.038236	-1.493887
H	-2.260594	0.872574	-1.019681
H	-2.235133	0.082472	-2.461288
C	-0.482937	1.217898	0.783798
H	-1.550566	1.179804	1.028275
H	0.071373	1.273381	1.723627
H	-0.271138	2.134754	0.228666
Br	3.6753	0.0	0.0
