15

C	-0.529845	-0.019045	-1.425318
C	0.0	0.0	0.0
F	-0.047312	1.094174	-2.090772
H	1.093911	0.0	0.0
H	-0.322996	-0.928313	0.485728
C	-0.070182	-1.22912	-2.146685
N	0.218906	-2.206576	-2.727462
N	-1.975147	0.030279	-1.582849
H	-2.319274	0.820958	-1.049593
H	-2.38074	-0.812573	-1.190739
C	-0.481546	1.216723	0.785196
H	-0.24218	2.134095	0.244345
H	-1.554892	1.199826	1.000971
H	0.049229	1.254166	1.737665
Br	3.647364	0.0	0.0
