15

C	-0.329139	0.287643	-1.45827
C	0.0	0.0	0.0
F	-0.22406	-0.929972	-2.176073
H	1.093309	0.0	0.0
H	-0.375699	-0.994246	0.248776
C	-1.737946	0.707151	-1.670793
N	-2.857074	1.019614	-1.838247
N	0.544077	1.280927	-1.953772
H	1.504239	1.06104	-1.688471
H	0.463068	1.382145	-2.957725
C	-0.510302	1.068151	0.956852
H	-0.125888	0.874401	1.960739
H	-1.603245	1.092968	1.003001
H	-0.152106	2.051239	0.647519
Br	3.625556	0.0	0.0
