16

C	-0.516887	0.009331	-1.434121
C	0.0	0.0	0.0
Br	0.204848	1.515305	-2.432106
H	1.094846	0.0	0.0
N	-0.07002	-1.305603	-2.110593
O	-0.868845	-2.233499	-1.99823
O	1.0315	-1.346993	-2.626771
C	-1.971415	0.069721	-1.523008
N	-3.145938	0.142591	-1.546917
C	-0.38209	-1.262499	0.77518
H	0.164069	-2.116671	0.370214
H	-0.042631	-1.125261	1.804293
H	-1.454945	-1.472759	0.771668
C	-0.480528	1.190996	0.673296
N	-0.859328	2.142628	1.253468
H	2.583935	0.0	0.0
