16

C	-0.42692	0.020184	-1.446619
C	0.0	0.0	0.0
Br	0.475149	-1.396374	-2.472801
H	1.095868	0.0	0.0
N	-1.93787	-0.221031	-1.553289
O	-2.341153	-1.373773	-1.448289
O	-2.638623	0.789625	-1.621617
C	-0.124625	1.287247	-2.100657
N	0.146766	2.302121	-2.62946
C	-0.391248	-1.248007	0.784431
H	-0.065532	-2.138564	0.245868
H	-1.463181	-1.31843	0.982906
H	0.153258	-1.214087	1.731778
C	-0.456602	1.203366	0.664743
N	-0.806752	2.154588	1.264333
H	2.487756	0.0	0.0
