13
Coordinates from ORCA-job run
  C   0.79957054001230      0.28250710661488      0.35080454324930
  C   -0.37760820955031      0.26849711923521     -0.63206946913420
  H   1.68721873829017      0.74977276389957     -0.08320453639141
  H   -0.04574752526567     -0.22402145130352     -1.54960076158793
  H   0.54459059896991      0.77418053806010      1.28928562368986
  N   1.18256268862000     -1.12029681227524      0.69568105931167
  O   1.50421025800412     -1.34578895953917      1.85764776977848
  O   1.16283206559369     -1.94239838799580     -0.21866230895874
  C   -0.69046678645262      1.66844248919748     -0.95322080255017
  N   -0.91089408167108      2.80084294555043     -1.16974900327519
  N   -1.57291576291466     -0.41546587228939     -0.17891406323037
  H   -1.87181019583135     -0.08296344896417      0.72951908783351
  H   -1.41254232780450     -1.41330803019038     -0.13851713873480
