13
Coordinates from ORCA-job run
  C   0.49405652365622     -0.65500798085461      0.47547604938745
  C   -0.40050273837927      0.05570878604050     -0.53250154378849
  H   0.67422681397734     -1.67494173740602      0.13318228265211
  H   0.10927575651006      0.04789191700716     -1.49767305318956
  H   0.06490860379186     -0.66530015887878      1.47673261012617
  N   1.82371662600681      0.01647893759033      0.58474828072464
  O   2.32415106601914      0.42332865555139     -0.46142774881596
  O   2.33093769529342      0.07827838459337      1.69997118289528
  C   -0.59509333673156      1.46616153180386     -0.13672527093323
  N   -0.81239970967721      2.57088069623374      0.19861209012935
  N   -1.63561670246499     -0.70663606809788     -0.65206456659511
  H   -2.16320608606052     -0.38883820025983     -1.45573604580489
  H   -2.21545451194131     -0.56700476332322      0.16740573321221
