13
Coordinates from ORCA-job run
  C   0.44963497914143     -0.61245878095421      0.53106193215813
  C   -0.44544499164816      0.12943256447497     -0.45808089630962
  H   0.52704873461745     -1.66533539617753      0.24906882440830
  H   0.03431665163967      0.11843951016383     -1.44343765796262
  H   0.06902505870153     -0.52797467848114      1.54627153757941
  N   1.84243450888874     -0.07429969618329      0.52520311659825
  O   2.42695734608099     -0.02889691235351      1.60275810138358
  O   2.31066428780902      0.24827160156782     -0.56484461446823
  C   -0.57224346328246      1.53391957199881     -0.05221298401234
  N   -0.68301733369633      2.65675979363799      0.27144023874497
  N   -1.76106249563258     -0.51315565834245     -0.41581522306624
  H   -1.73460047550207     -1.35983922371884     -0.97259667350678
  H   -2.46171280711722      0.09613730436756     -0.81981570154680
