13
Coordinates from ORCA-job run
  C   0.73923561861409      0.32153210168378      0.43693103089260
  C   -0.32842953433681      0.26051613537016     -0.66182187550130
  H   1.63395006378393      0.85605156959854      0.10746937258805
  H   0.12502595799212     -0.18809146978934     -1.54926998263198
  H   0.35884379860169      0.76952256751900      1.35466430868666
  N   1.17744212582220     -1.06321812660965      0.79079490017940
  O   1.29236284059144     -1.86463652329521     -0.13486357383698
  O   1.40760742751700     -1.29426158392125      1.97328978282954
  C   -0.69448666856070      1.64645039542160     -0.98864584648384
  N   -0.96447411604510      2.76754161649588     -1.20746658341477
  N   -1.51859145243184     -0.50550044499506     -0.34704392087941
  H   -1.92835903792299     -0.21363426912643      0.53156975209750
  H   -1.30012702362502     -1.49227196835201     -0.30760736452547
