16

C	-0.463616	0.044113	-1.451265
C	0.0	0.0	0.0
F	-0.031365	-1.053156	-2.12009
H	1.090634	0.0	0.0
N	-1.996242	-0.005503	-1.599406
O	-2.499709	0.654303	-2.496194
O	-2.562778	-0.787382	-0.848694
C	0.028315	1.251878	-2.119807
N	0.425181	2.206607	-2.67798
N	-0.45404	-1.224774	0.739628
O	-0.05178	-2.281976	0.27724
O	-1.148525	-1.074194	1.736287
N	-0.479689	1.201413	0.726323
O	-1.378397	1.860869	0.194389
O	0.054807	1.440594	1.799322
Cl	3.06987	0.0	0.0
