16

C	-0.452312	0.010836	-1.452352
C	0.0	0.0	0.0
F	0.004597	-1.111664	-2.042692
H	1.090515	0.0	0.0
N	-1.992874	0.010608	-1.594768
O	-2.47721	-0.753282	-2.408171
O	-2.566779	0.835269	-0.898084
C	-0.000905	1.180533	-2.212184
N	0.336348	2.035182	-2.945226
N	-0.488919	-1.22176	0.695002
O	0.140769	-1.559154	1.687978
O	-1.48366	-1.783694	0.234218
N	-0.451562	1.198175	0.770293
O	-1.084595	1.019333	1.803066
O	-0.103366	2.272259	0.29836
Cl	3.075365	0.0	0.0
