16

C	-0.438341	0.004034	-1.471042
C	0.0	0.0	0.0
F	-0.0925	-1.214295	-2.013427
H	1.117512	0.0	0.0
N	-1.92479	0.178682	-1.642698
O	-2.347435	-0.273915	-2.792515
O	-2.290334	1.410826	-1.377022
C	0.223051	1.053091	-2.402838
N	0.095888	0.97924	-3.602821
N	-0.48243	-1.215697	0.702795
O	-1.73582	-1.113653	1.045314
O	0.325633	-1.542285	1.698609
N	-0.400279	1.20441	0.758035
O	0.113113	2.288718	0.212189
O	-0.131733	1.080193	2.036743
Cl	2.568669	0.0	0.0
