17

C	0.0	0.0	0.0
C	-0.266377	-0.07521	-1.576261
Cl	1.798618	0.0	0.0
H	0.592178	0.459873	-1.991877
C	-0.467332	1.281522	0.532127
N	-0.539841	2.388153	0.941927
C	-0.62741	-1.102569	0.721832
N	-0.642233	-2.118821	1.337848
C	-1.487933	0.608124	-2.188903
H	-1.279532	0.745144	-3.262162
H	-1.666011	1.589691	-1.746444
H	-2.395303	0.018745	-2.071212
C	-0.181744	-1.529443	-2.022288
H	0.722753	-2.014652	-1.650543
H	-0.179874	-1.582507	-3.116442
H	-1.045454	-2.084141	-1.646167
H	-2.032271	0.0	0.0
