17

C	0.0	0.0	0.0
C	-0.258219	-0.044455	-1.579989
Cl	1.798839	0.0	0.0
H	0.598345	0.506988	-1.980213
C	-0.495688	1.257416	0.562829
N	-0.565311	2.349202	1.014195
C	-0.607032	-1.128832	0.697567
N	-0.634841	-2.159047	1.290193
C	-1.484263	0.640075	-2.183341
H	-1.680303	1.606307	-1.715072
H	-2.384594	0.033717	-2.093061
H	-1.264272	0.812028	-3.249254
C	-0.162151	-1.488869	-2.056325
H	-1.039586	-2.045574	-1.721604
H	-0.122103	-1.520611	-3.150444
H	0.727235	-1.986795	-1.665337
H	-2.026673	0.0	0.0
