17

C	0.0	0.0	0.0
C	-0.273524	0.032587	-1.576543
Cl	1.798828	0.0	0.0
H	0.599268	-0.485062	-1.987121
C	-0.590749	1.136151	0.698469
N	-0.627495	2.167415	1.286659
C	-0.493777	-1.249464	0.575745
N	-0.539748	-2.343463	1.025894
C	-0.237995	1.477199	-2.057998
H	0.653735	2.000133	-1.704899
H	-0.244348	1.504922	-3.15283
H	-1.117161	2.009921	-1.687493
C	-1.47732	-0.703822	-2.162701
H	-1.26381	-0.871906	-3.229987
H	-2.39874	-0.133177	-2.063464
H	-1.628477	-1.673426	-1.686041
H	-2.026609	0.0	0.0
