17

C	0.0	0.0	0.0
C	-0.254223	0.055341	-1.579613
Cl	1.798718	0.0	0.0
H	0.570008	-0.55018	-1.973996
C	-0.622012	1.122665	0.698845
N	-0.627453	2.156473	1.290425
C	-0.509992	-1.257002	0.550575
N	-0.613145	-2.350103	0.990674
C	-0.067183	1.48922	-2.066183
H	-0.864433	2.132676	-1.683199
H	-0.100763	1.513964	-3.160874
H	0.889736	1.904613	-1.743012
C	-1.518236	-0.556594	-2.181579
H	-2.387703	0.089334	-2.077319
H	-1.755832	-1.51844	-1.72485
H	-1.316949	-0.721979	-3.251994
H	-2.025108	0.0	0.0
