17

C	0.0	0.0	0.0
C	-0.27995	-0.034336	-1.575508
Cl	1.798652	0.0	0.0
H	0.605294	0.45436	-1.99224
C	-0.461386	1.266935	0.571575
N	-0.537852	2.357877	1.01978
C	-0.619316	-1.117859	0.703719
N	-0.633416	-2.146791	1.300477
C	-1.463134	0.734549	-2.160571
H	-1.58114	1.711587	-1.688533
H	-2.401706	0.195559	-2.051957
H	-1.254336	0.891454	-3.231014
C	-0.284983	-1.482092	-2.0479
H	0.592897	-2.026143	-1.691789
H	-0.29505	-1.515729	-3.142529
H	-1.177491	-1.988667	-1.672224
H	-2.030212	0.0	0.0
