13
Coordinates from ORCA-job run
  C   -0.30869261921858     -0.13382261952724      0.42132964098728
  C   0.92118864477338     -0.74859569906560     -0.23173523360051
  Br  -0.50924121786082     -1.03823653007573      2.21343503906901
  H   1.77644963003766     -0.65785808499126      0.43677341825006
  H   0.73006496950859     -1.81373867728627     -0.39059097372299
  N   -0.04447342949291      1.32575897834808      0.79461573494144
  O   1.12223953538969      1.65289904232599      0.96193057954161
  O   -1.03288301092534      2.03502409468820      0.92257774310564
  N   -1.43274776061973     -0.16305183483821     -0.39468965392795
  H   -2.22001228488027      0.33250305962484      0.00214289147866
  H   -1.68406986093287     -1.09624327000508     -0.68978392688030
  C   1.21658947157592     -0.10157653880417     -1.50936192389590
  N   1.46658793264527      0.40693807960644     -2.53664333534606
