13
Coordinates from ORCA-job run
  C   -0.17013429844797     -0.06235885832723      0.51422026120408
  C   0.90724041971065      0.09561843655424     -0.57859449911718
  Br  0.47907041745314     -1.24372373729092      1.89073346282311
  H   1.85448129841780      0.42092902159388     -0.13930943405227
  H   0.56376161189818      0.86608276591810     -1.27711060538099
  N   -0.35572508943227      1.36533309885619      1.06543333266401
  O   0.15133144917828      1.68685279661717      2.12678085878962
  O   -0.98925370340766      2.09128254575221      0.30352077018742
  N   -1.46130769944108     -0.49488045493005      0.09897226979441
  H   -1.80357775492851      0.07909431493496     -0.66234562107734
  H   -1.45157468759859     -1.47156501360111     -0.16409764453957
  C   1.08624416037974     -1.15861159754300     -1.29874749856750
  N   1.19144387621830     -2.17305331853444     -1.87945565272779
