13
Coordinates from ORCA-job run
  C   -0.23548966374145     -0.27831371810982      0.38489591011982
  C   0.44926304100237     -0.50760997820073     -0.95855843856547
  Br  0.57676250471739     -1.37281435874080      1.74983651953808
  H   -0.06336327788071      0.07837417845392     -1.72499408117354
  H   0.33889563976253     -1.56724714116804     -1.19736205028784
  N   -0.04710300421136      1.21847337482731      0.78234011146768
  O   -0.03554599967757      1.52017302359512      1.96552085711188
  O   -0.07006525602926      1.99544358691778     -0.17019746375924
  N   -1.61606428820404     -0.58704951983586      0.28562230385843
  H   -2.07051070976275      0.00643160542245     -0.40024416675149
  H   -2.08447618150338     -0.51441435081792      1.18067882157300
  C   1.86099608971368     -0.14077942393625     -0.94752352397196
  N   2.99770110581455      0.14933272159283     -0.95001479915935
