13
Coordinates from ORCA-job run
  C   -0.30272730452996     -0.13220492674461      0.42614319644976
  C   0.88600445551785     -0.77398887965108     -0.27485684830356
  Br  -0.49619354661920     -1.08402930577186      2.19463829732219
  H   1.76108819802988     -0.73130995145894      0.37243775700470
  H   0.65154483458411     -1.82733699989866     -0.45341003104491
  N   0.02605844967352      1.30368755158680      0.83777269595590
  O   1.20900763713104      1.58826528777689      0.96393737844790
  O   -0.93237002465556      2.03911558408561      1.02928239668243
  N   -1.44559407656023     -0.09132024265463     -0.36242406718092
  H   -1.73471903449399     -1.00213410726021     -0.69043823069862
  H   -2.20718927626020      0.41298315834605      0.07245064971488
  C   1.17218523179853     -0.10900246790897     -1.54518239177758
  N   1.41290445638421      0.40827529955362     -2.57035080257217
