13
Coordinates from ORCA-job run
  C   -0.30619185381175     -0.14206324127258      0.42040132575021
  C   0.86786708591997     -0.78234707389239     -0.30625910558954
  Br  -0.52253069732822     -1.15912218836623      2.14866836618925
  H   1.74311365939761     -0.78640257987067      0.34226451272999
  H   0.60904488246937     -1.82184948659403     -0.52723394599822
  N   0.05451715459310      1.26860945183662      0.88800442648607
  O   -0.88761741877967      2.01550124244044      1.11451258841367
  O   1.24357431914312      1.52253444678262      1.02263893495345
  N   -1.44780497163221     -0.04392878870123     -0.36567801141119
  H   -1.75865515866299     -0.93516461871642     -0.72617558522536
  H   -2.19675186391909      0.46106978447046      0.08949957282018
  C   1.17153009077301     -0.07373142445026     -1.54878829485591
  N   1.42790477183775      0.47789447633367     -2.55185478426260
