13
Coordinates from ORCA-job run
  C   -0.27449362190433     -0.30323496751612      0.46959924236815
  C   0.90463056146497     -0.76196368544150     -0.38234432538458
  Br  -0.36682328051495     -1.39351777903422      2.07912855984889
  H   1.82799884441979     -0.69103429577966      0.19075149389538
  H   0.73140885815887     -1.80363743911004     -0.66032629832991
  N   0.05109927500103      1.13213921151283      1.00493138235912
  O   1.22022547844018      1.38430016157467      1.26478465228344
  O   -0.90776659782265      1.88203842697379      1.13736240063161
  N   -1.49224121084234     -0.36888623499229     -0.22067832209532
  H   -2.25916463689376     -0.02289750128425      0.34163809196770
  H   -1.44849104222613      0.14932417257169     -1.09200010993344
  C   0.99842362348553      0.06257104397875     -1.58583204638406
  N   1.01519374923381      0.73479888654635     -2.54801472122698
