13
Coordinates from ORCA-job run
  C   -0.27604640220048     -0.17430625702737      0.47173312000101
  C   0.43265228411341     -0.51200710625220     -0.85094437234914
  Br  0.47498961179745     -1.22183239080915      1.90060903336525
  H   0.28400827603730     -1.57508214693477     -1.05617810014643
  H   -0.05055313742796      0.06685556913139     -1.64366690604193
  N   -0.03251095803564      1.32809455563184      0.70658171951448
  O   0.64801543300916      1.71393030187179      1.64004123724383
  O   -0.58086043978893      2.02333030540463     -0.14610343367012
  N   -1.69574316889867     -0.33034528302342      0.47231426486348
  H   -1.95931934662381     -1.30586221814727      0.49555471397175
  H   -2.10636984788455      0.13787272416563     -0.32686952936687
  C   1.85958121226075     -0.20574212532855     -0.83535406103733
  N   3.00415648364197      0.05409407131747     -0.82771768634798
