13
Coordinates from ORCA-job run
  C   -0.32887551896648     -0.09208928632194      0.29594668962838
  C   0.55362485341535     -0.48433115808592     -0.88204800210440
  Br  0.26512598550369     -1.09078127855172      1.91740868411762
  H   0.30624407823526      0.17972813053560     -1.71432758416193
  H   0.27928267495762     -1.50395953600917     -1.16995270488188
  N   -0.14594481460283      1.38194488484830      0.65472577899232
  O   0.78275733949326      1.97905532343022      0.12627190822745
  O   -0.96704939531859      1.84338047909055      1.43553172016590
  N   -1.68741488244218     -0.24102711697566     -0.02796733004755
  H   -1.91941839751187     -1.20208893179297     -0.24246219690933
  H   -2.27996748714275      0.10444686933868      0.71786686550099
  C   1.98936018436626     -0.44369027555411     -0.62837990148720
  N   3.15327538001327     -0.43058810395186     -0.48361392704037
