13
Coordinates from ORCA-job run
  C   -0.32423642827951     -0.09691699504779      0.29937517447207
  C   0.53863059293922     -0.46840192079920     -0.89981831639275
  Br  0.29691096736065     -1.12466956162541      1.89276244838973
  H   0.25965154421503     -1.48302032211009     -1.20051796924320
  H   0.27724644188751      0.20998776846329     -1.71616498924590
  N   -0.13500690250962      1.37051892761554      0.68131579900812
  O   0.78579529658545      1.97642602920363      0.14906925401236
  O   -0.94337608983002      1.81795218317813      1.48336116267746
  N   -1.68792740385204     -0.24052369885247     -0.00426502479099
  H   -2.26759528850920      0.09078326159173      0.75797583145012
  H   -1.92393982242118     -1.19753721081624     -0.23212886997818
  C   1.97840910204356     -0.43112824327124     -0.66954465017150
  N   3.14443799037015     -0.42247021752987     -0.54241985018733
