13
Coordinates from ORCA-job run
  C   -0.18202854277163     -0.03888086477303      0.51256543383546
  C   0.90829714298125     -0.05728428538573     -0.57898363929960
  Br  0.24635638938441     -1.33675536385458      1.87106538281196
  H   0.70542779200124      0.77035437753745     -1.26719492895335
  H   1.89667570465964      0.09271527531499     -0.13534821971471
  N   -0.10805351898290      1.39059689629963      1.08532593368000
  O   0.48088235419798      1.60244073348655      2.13196142770922
  O   -0.62911564865260      2.22720442739002      0.35221658714014
  N   -1.52826571199586     -0.23019309656775      0.09354304123691
  H   -1.69153589086766     -1.18898858482877     -0.18395727695509
  H   -1.76556470224298      0.40744809642253     -0.65686263892691
  C   0.86847276581448     -1.31456104222060     -1.31490013268200
  N   0.79845186647462     -2.32509656882070     -1.90743096988203
