13
Coordinates from ORCA-job run
  C   -0.11712055976596      0.04377674899864      0.52615187570918
  C   0.82385883950127      0.01384496381160     -0.69707027472238
  Br  0.81131000844615     -0.70000057041232      2.05674610481375
  H   0.35111671286568      0.59446430028591     -1.49890654114207
  H   1.78074344751040      0.47952130288792     -0.45283489891015
  N   -0.34847195158635      1.54760151317992      0.76286415819085
  O   0.62186159434855      2.20533652105921      1.11037740065151
  O   -1.46279353784629      1.97505564340869      0.48518309547462
  N   -1.37931816396403     -0.58366976010678      0.40985455700555
  H   -1.94213349923628     -0.16610257945568     -0.32018424731966
  H   -1.28220178028512     -1.58180620822452      0.27724121469248
  C   1.01437857471733     -1.35703973271485     -1.15279404673048
  N   1.12777031529466     -2.46998214271775     -1.50762839771320
