13
Coordinates from ORCA-job run
  C   -0.16072361376474     -0.07393390417971      0.41622303049642
  C   0.93221252241380      0.03867550528339     -0.64233977556854
  Br  0.49734105407525     -0.98181932118614      2.00295305087628
  H   0.56081782099061      0.67159218109713     -1.45803282160382
  H   1.80307173244401      0.53736897861407     -0.21757885505054
  N   -0.45092848918408      1.38789063337857      0.90431314050849
  O   0.50449039786421      2.14447188495549      1.02028463444154
  O   -1.62442232468189      1.65119184969737      1.13583844420459
  N   -1.29978567995892     -0.72972668585685     -0.06464610785856
  H   -1.64036826774161     -0.30986662229160     -0.92167356837411
  H   -2.04125250354498     -0.76384265099454      0.62248533180851
  C   1.30036262251497     -1.26893550750696     -1.17280414757236
  N   1.62018472857336     -2.30306634101022     -1.62502235630792
