13
Coordinates from ORCA-job run
  C   -0.09630561309544      0.09460608394381      0.38709055913594
  C   0.79820392564315      0.02936046480076     -0.84619302352942
  Br  0.98485088932708     -0.50554405202125      1.96994786057162
  H   0.28224334796871      0.54520200589830     -1.66128823743227
  H   1.74227276864044      0.53844961333349     -0.65785746971696
  N   -0.41538432080188      1.55357671257713      0.70889204984195
  O   0.33312944894573      2.40505716688937      0.24654284804265
  O   -1.39110271488919      1.74443667808548      1.42124158568682
  N   -1.31096862960764     -0.56490295738712      0.20119015553007
  H   -1.18766096839282     -1.54420066773866     -0.02410657926650
  H   -1.93436374569827     -0.44657797195083      0.98963360309496
  C   1.02751637202469     -1.36177740956743     -1.22029555063328
  N   1.16856923993545     -2.48868566686307     -1.51579780132559
