13
Coordinates from ORCA-job run
  C   -0.18947710452809      0.07824265487949      0.35509582453990
  C   1.00078844655633     -0.02011730544774     -0.59293054390631
  Br  0.32889240169363     -0.78475061203834      2.09305836897676
  H   0.79786001508775      0.62341065484209     -1.45399508079363
  H   1.90634198298197      0.33414006804944     -0.10241905221608
  N   -0.41588842273643      1.53936296488984      0.73939928977057
  O   0.52341784991443      2.30992614246222      0.58741663646052
  O   -1.52212064245405      1.81134890535911      1.18465857449641
  N   -1.37139847804845     -0.38730596135702     -0.22076445536238
  H   -2.17157382699974     -0.24349320023534      0.38217121642356
  H   -1.30277312719711     -1.35421622868605     -0.51244751661551
  C   1.16344311552909     -1.39771384220649     -1.04444157941166
  N   1.25148779020068     -2.50783424051122     -1.41480168236214
