13
Coordinates from ORCA-job run
  C   -0.21861322070814     -0.18300683305056      0.45792720689804
  C   0.84659424727785     -0.70660463690723     -0.49485671424522
  Br  -0.06346942551644     -1.28530487729317      2.13975278553360
  H   0.61584112013948     -1.75027041480830     -0.72714448274387
  H   1.82034213376781     -0.68023503248922     -0.00709457578057
  N   0.13110829034615      1.22861512086892      0.93243157016729
  O   1.30674410400889      1.56036035404367      0.86992726796884
  O   -0.80031261006383      1.89615471278531      1.36079760708586
  N   -1.48480720652862     -0.13164505627457     -0.11177831360451
  H   -2.17012934328662      0.30251647289496      0.49235949101369
  H   -1.80062385661973     -1.02588418497537     -0.46001909787411
  C   0.88616840396950      0.07905395987983     -1.72731869081697
  N   0.93215736321369      0.69625041532571     -2.72398405360206
