13
Coordinates from ORCA-job run
  C   -0.04802283095632     -0.03857459620056      0.44948769235549
  C   0.74882650916034      0.07056519186827     -0.84707829762942
  Br  1.07957318977449     -0.64211781504354      1.91171351943636
  H   0.11348533798073      0.54593286986695     -1.60492112564723
  H   1.61050191499869      0.71989629483969     -0.69433727584912
  N   -0.43905343031844      1.42773966104982      0.84693000365460
  O   0.39357153110770      2.30504195847264      0.65753290889552
  O   -1.55875477346158      1.57268577442212      1.32152971412691
  N   -1.15302616412981     -0.88782476443859      0.32389027705960
  H   -1.73849968429923     -0.62871716714018     -0.46147870119141
  H   -1.70547676809341     -0.92647394877278      1.17011245832058
  C   1.17295178657574     -1.24006510733230     -1.32652086318904
  N   1.52492338166108     -2.27708835159156     -1.74686031034286
