13
Coordinates from ORCA-job run
  C   -0.20267685212467      0.03955898552081      0.35604992544661
  C   1.02265743150281     -0.08443768705225     -0.54289199927127
  Br  0.02532648795640     -1.23533049871096      1.89235073294876
  H   1.93510418429067     -0.00770468613953      0.04685783958761
  H   0.99977849088071      0.74326804305060     -1.25782640078713
  N   -0.20458915060423      1.40980304956560      1.03074820022769
  O   0.86370377495182      2.00513366089318      1.08942394973158
  O   -1.27975232182361      1.78738217436130      1.47518935920232
  N   -1.39854372400011     -0.07727795323053     -0.35146520138701
  H   -1.47503429637129     -0.96164495112361     -0.83779123562463
  H   -2.20682090076027      0.08994063651911      0.23403876996911
  C   0.98440504371507     -1.35107702411554     -1.26578672857800
  N   0.93544183238670     -2.35661374953817     -1.86889721146564
