13
Coordinates from ORCA-job run
  C   -0.29499015100736     -0.22412870245553      0.34264834214404
  C   0.55124523281633     -0.50032728896152     -0.89543677550767
  Br  0.34055934833611     -1.25031182171753      1.85771282365004
  H   0.33977066000634     -1.53166112010162     -1.18742181998159
  H   0.22010811720511      0.16159880431903     -1.70209642688602
  N   -0.15094101085215      1.26882021976836      0.75726025833895
  O   0.62470841512852      1.96759487084676      0.11320761442113
  O   -0.88684868120653      1.63791498345532      1.66270663687414
  N   -1.64905443667658     -0.54972112843037      0.09332882690546
  H   -2.00527516070713     -0.03148694049574     -0.70297345032481
  H   -2.22201229638898     -0.36323843095845      0.90766657892081
  C   1.98748407936336     -0.33724603354549     -0.70278374159232
  N   3.14624588398296     -0.24880741172320     -0.54381886696216
