13
Coordinates from ORCA-job run
  C   -0.31654188753949     -0.20664972338116      0.54708303404042
  C   0.83640308936599     -0.75751205701417     -0.31299275508412
  Br  -0.42929007684723     -1.30617399809564      2.14629574056175
  H   0.61502433414554     -1.79755685097210     -0.56580439864486
  H   1.77209677913916     -0.72835412099778      0.24816601787889
  N   0.12843644603142      1.20958306185644      0.96648388513116
  O   -0.56159957127543      2.14299999477917      0.57835381695687
  O   1.17490733487344      1.28149558036689      1.59538522079164
  N   -1.59906083983928     -0.10809740440805     -0.03627141662503
  H   -1.94672240767006     -1.01189860418960     -0.32570596092688
  H   -1.62077100040743      0.56127755148680     -0.79573604709776
  C   0.95109572505199      0.03203752133937     -1.53709774373911
  N   0.99502207497139      0.68884904922983     -2.50915939324296
