13
Coordinates from ORCA-job run
  C   -0.28728582337974     -0.22142095656078      0.35383876561247
  C   0.55592987566469     -0.50284237512727     -0.88495279836397
  Br  0.39695373759614     -1.18569446833650      1.88953239198567
  H   0.36597409872308     -1.54485307118824     -1.15331046517131
  H   0.20304659185536      0.13380673726424     -1.70290147699206
  N   -0.18339448157466      1.28494688326558      0.73089809801155
  O   -0.94891125762934      1.66184708398756      1.60843255357928
  O   0.60010238672135      1.98129358287575      0.09412501341712
  N   -1.63210225445231     -0.59612906309473      0.12857370352355
  H   -2.20290230516092     -0.40087342558277      0.94236318854981
  H   -2.01142483165324     -0.11365250027198     -0.67948705414216
  C   1.99035839675200     -0.30423090115294     -0.71318887548772
  N   3.15365586653760     -0.19119752607793     -0.61392304452222
