13
Coordinates from ORCA-job run
  C   -0.26576401771007     -0.09870076839950      0.35138321665452
  C   0.42590732622491     -0.48433412172527     -0.94994476608333
  Br  0.66839332581295     -0.98485800163234      1.87524976036641
  H   0.18147197176129     -1.53178573333194     -1.15190405526122
  H   -0.00927381501009      0.12443903224787     -1.74670933610324
  N   -0.12871031106793      1.39842639314755      0.62486565781570
  O   0.65115007517488      2.02976922712604     -0.07620051394390
  O   -0.83449283533609      1.84058812942939      1.52108023994359
  N   -1.64555146455987     -0.34902968233888      0.27571785344849
  H   -1.84334008363741     -1.33103089688563      0.13433949273705
  H   -2.12351476682128     -0.01030763668641      1.10243992888309
  C   1.87725255320063     -0.33897850828841     -0.95281496328593
  N   3.04647204196808     -0.26319743266247     -1.00750251517124
