13
Coordinates from ORCA-job run
  C   -0.27553730145657     -0.28001039195994      0.40355879531988
  C   0.48601123241294     -0.54234362826137     -0.89592953944254
  Br  0.46098623814498     -1.29874691438961      1.86024118990312
  H   -0.00508696060788      0.02012130007889     -1.69649014083933
  H   0.40263838842494     -1.60775484734484     -1.11991315762345
  N   -0.07538879373087      1.24954819130473      0.69513143751420
  O   -0.69782442544381      1.95584560670225     -0.09638403977080
  O   0.65322342183069      1.63023229102581      1.59535467124119
  N   -1.64091766168084     -0.60695432034440      0.22901935435818
  H   -2.05996100802090      0.00883499751971     -0.45899463813050
  H   -2.15508629658101     -0.55071019681866      1.09930377823735
  C   1.88914186586604     -0.14813791563616     -0.82647057040090
  N   3.01780130084229      0.17107582812359     -0.78742714036642
