15

C	0.0	0.0	0.0
C	-0.455036	-0.090823	-1.449807
F	1.3783	0.0	0.0
H	-1.54743	-0.184107	-1.408599
H	-0.018209	-1.007913	-1.855903
N	-0.450048	1.265151	0.543526
H	-1.47833	1.176657	0.516339
H	-0.175066	1.304622	1.521099
N	-0.455673	-1.187243	0.682938
H	-0.223297	-1.086959	1.668264
H	-1.482669	-1.12076	0.615873
N	0.011203	1.077265	-2.219078
H	-0.042847	1.862954	-1.576548
H	-0.67711	1.256169	-2.943652
H	-3.115019	0.0	0.0
