15

C	0.0	0.0	0.0
C	-0.426028	0.054324	-1.454383
F	1.421915	0.0	0.0
H	-0.0865	1.005229	-1.898604
H	-1.523132	0.04898	-1.411034
N	-0.411785	1.190469	0.670492
H	0.187073	1.954347	0.38332
H	-0.317376	1.037695	1.66692
N	-0.510403	-1.122599	0.714156
H	-1.532199	-0.942376	0.725318
H	-0.375463	-1.927245	0.109062
N	0.074213	-1.131814	-2.156467
H	-0.429984	-1.245491	-3.026152
H	1.054495	-1.002631	-2.372865
H	-3.380745	0.0	0.0
