15

C	0.0	0.0	0.0
C	-0.5242	0.088899	-1.411161
F	1.452021	0.0	0.0
H	-1.619421	0.082792	-1.286782
H	-0.207085	-0.815716	-1.942631
N	-0.372569	1.17571	0.721842
H	-0.227761	1.973654	0.111065
H	0.211907	1.257302	1.545454
N	-0.431352	-1.229658	0.589177
H	-1.460859	-1.132984	0.620533
H	-0.093431	-1.258259	1.548084
N	-0.099356	1.34152	-2.044636
H	-0.738782	1.563611	-2.796466
H	0.827346	1.230372	-2.435138
H	-3.440093	0.0	0.0
