17

C	-0.60694	0.038965	-1.390943
C	0.0	0.0	0.0
F	-1.966552	-0.05103	-1.311167
H	1.092926	0.0	0.0
C	-0.26422	1.283016	-2.090228
N	-0.068772	2.293846	-2.65537
N	-0.138795	-1.09101	-2.33075
O	-1.002629	-1.825463	-2.777283
O	1.057374	-1.090524	-2.563348
N	-0.411802	-1.281305	0.660592
O	-0.354534	-2.300587	-0.024067
O	-0.735529	-1.245515	1.843162
C	-0.446378	1.199277	0.818332
H	0.003396	1.131048	1.806806
H	-0.070844	2.108579	0.346395
H	-1.531544	1.252252	0.918529
Br	3.359182	0.0	0.0
