17

C	-0.594361	0.027199	-1.397975
C	0.0	0.0	0.0
F	-1.946867	-0.151514	-1.327388
H	1.09203	0.0	0.0
C	-0.326652	1.302485	-2.072867
N	-0.158922	2.351726	-2.574633
N	-0.045686	-1.069683	-2.336416
O	-0.828216	-1.9362	-2.68626
O	1.120341	-0.923102	-2.655613
N	-0.416822	-1.301245	0.624301
O	-0.069265	-2.319554	0.033143
O	-1.046191	-1.273472	1.680116
C	-0.477645	1.176923	0.827359
H	-1.565309	1.238656	0.875302
H	-0.064894	2.094137	0.404313
H	-0.083944	1.070983	1.83678
Br	3.369413	0.0	0.0
