15

C	-0.555069	-0.0264	-1.409642
C	0.0	0.0	0.0
Cl	0.150319	1.413338	-2.327466
H	1.092103	0.0	0.0
H	-0.323898	0.949141	0.447951
C	-0.130942	-1.215752	-2.162757
N	0.207643	-2.162468	-2.769236
N	-1.990154	0.012892	-1.422823
H	-2.335726	0.118126	-2.370239
H	-2.293649	0.810784	-0.876122
C	-0.474299	-1.18901	0.827917
H	-0.151063	-2.125563	0.365812
H	-1.55833	-1.224368	0.95993
H	0.0084	-1.137049	1.807295
H	2.944435	0.0	0.0
