15

C	-0.532997	-0.002413	-1.42025
C	0.0	0.0	0.0
Cl	0.008886	1.459316	-2.330362
H	1.093004	0.0	0.0
H	-0.303926	-0.961863	0.439777
C	-0.007858	-1.161973	-2.170991
N	0.265022	-2.126883	-2.784236
N	-1.988321	0.013882	-1.443117
H	-2.319397	-0.125681	-2.392437
H	-2.315636	-0.759453	-0.873001
C	-0.510923	1.157524	0.845501
H	-0.026378	1.10426	1.823776
H	-0.223689	2.109406	0.395564
H	-1.595219	1.15302	0.980126
H	2.945739	0.0	0.0
