15

C	-0.530163	-0.002717	-1.421532
C	0.0	0.0	0.0
Cl	0.011762	1.45983	-2.330201
H	1.093011	0.0	0.0
H	-0.304567	-0.961802	0.439246
C	-0.001893	-1.161804	-2.171097
N	0.269898	-2.128076	-2.783013
N	-1.985362	0.011044	-1.447006
H	-2.312147	-0.762326	-0.877304
H	-2.315029	-0.12914	-2.396392
C	-0.514373	1.157365	0.843786
H	-0.223548	2.109256	0.397653
H	-1.599017	1.154699	0.972253
H	-0.036289	1.101253	1.824328
H	2.946826	0.0	0.0
