15

C	-0.307767	0.042223	-1.498769
C	0.0	0.0	0.0
Cl	-0.127976	-1.617269	-2.212543
H	1.09535	0.0	0.0
H	-0.301228	0.986288	0.38087
C	-1.696674	0.445173	-1.77097
N	-2.799485	0.814045	-1.938523
N	0.607452	0.913219	-2.211155
H	1.541116	0.686769	-1.84167
H	0.413017	1.86535	-1.910316
C	-0.633386	-1.104931	0.821159
H	-0.222107	-2.076009	0.544336
H	-1.722261	-1.141296	0.704262
H	-0.409966	-0.941501	1.878883
H	2.959479	0.0	0.0
