16
Coordinates from ORCA-job run
  C   -1.01189346050276     -0.30770005237309      0.32800311411708
  C   0.47886457802490     -0.07657534217694      0.10765764059057
  Br  -1.28435805225528     -2.14545009831578      1.16845714992458
  H   0.96640627399785     -0.11656057025822      1.09123200186308
  H   -1.53277936584406     -0.41688401395900     -0.62529298751451
  N   -1.61655147550324      0.71501013067401      1.09190141092103
  H   -2.61218774512414      0.57177265579680      1.19658520784714
  H   -1.19714910630349      0.78528604369399      2.01113907822747
  C   0.68341441993922      1.31688212524537     -0.49510444813283
  H   0.30424075854258      2.10250284271617      0.15649244474036
  H   0.15986827408054      1.39689516748434     -1.45319536569866
  H   1.74665871406733      1.49092518954287     -0.67965111051062
  C   1.10589958621980     -1.13424586087573     -0.79572880287815
  H   0.59379842833589     -1.16114443710575     -1.76314431465220
  H   1.06016287264908     -2.13098483823291     -0.35872097429109
  H   2.15460529967579     -0.89072894185611     -0.98263004455327
