16
Coordinates from ORCA-job run
  C   -0.95309384687250     -0.41305741623771      0.43375059693491
  C   0.51460390050425     -0.12896456562070      0.13464506078148
  Br  -1.15294005755528     -2.15459475723350      1.31823117358090
  H   1.05368748323075     -0.22291702228374      1.08388344175919
  H   -1.50251213548127     -0.54159739005179     -0.50998180878514
  N   -1.51862903699938      0.57877377529194      1.32909438736335
  H   -2.44500377336273      0.28886655765726      1.61964819402346
  H   -1.61877094065407      1.45348177681146      0.82530968095178
  C   0.66755906743187      1.30686098129645     -0.37499449902684
  H   0.03031017420100      1.48480961446110     -1.24873641461825
  H   0.42461319793992      2.03898308602079      0.39657567107293
  H   1.70032363654007      1.48657988896684     -0.68251364125341
  C   1.08695661003225     -1.11187648222725     -0.88236645004852
  H   0.54802890917717     -1.04163716689645     -1.83299251204323
  H   1.02659163407482     -2.14246680695689     -0.53161806984194
  H   2.13727517779311     -0.88324407299781     -1.07893481085069
