16
Coordinates from ORCA-job run
  C   -0.89604814344298     -0.52674774064388      0.62066137571602
  C   0.12682951115276     -0.08560094255035     -0.43397583320768
  Br  -0.04447995980737     -0.67363798958693      2.38932829135574
  H   -0.46233859849259     -0.06608211708763     -1.36449370337232
  H   -1.21676257689063     -1.54686019482098      0.39342756922126
  N   -2.08070706305936      0.28037661413569      0.77421073964281
  H   -1.84061481175069      1.24260613470153      0.97600085843205
  H   -2.62553648214902      0.24867184390121     -0.08044447445184
  C   1.24600320373928     -1.10677299447239     -0.61466435216812
  H   0.84790718057943     -2.11872086528103     -0.73375150043781
  H   1.91574712244326     -1.10730012190746      0.24723827904304
  H   1.83598515394018     -0.87089304668235     -1.50410949752558
  C   0.68551975251724      1.31439269932166     -0.20552030528208
  H   -0.10253887691002      2.06808496060033     -0.13526383870512
  H   1.33107608566612      1.59863206069788     -1.04018919264522
  H   1.27995850246440      1.35185169967469      0.70954558438485
