16

C	0.0	0.0	0.0
C	-0.388562	0.007871	-1.483928
Cl	1.789168	0.0	0.0
H	0.104325	-0.829829	-1.981545
H	-0.31315	0.941881	0.452095
C	-0.582138	-1.190419	0.72579
H	-1.673536	-1.110379	0.713584
H	-0.280332	-2.123518	0.242245
H	-0.241741	-1.212048	1.762353
N	0.270372	1.227511	-2.127282
O	0.089633	2.311183	-1.58024
O	0.884412	1.053644	-3.177196
N	-1.761733	0.06041	-1.816971
H	-2.390171	0.433317	-1.107202
H	-2.130824	-0.839688	-2.080134
Br	-4.487176	0.0	0.0
