16

C	0.0	0.0	0.0
C	-0.593781	-0.094393	-1.418418
Cl	1.789715	0.0	0.0
H	-1.594279	-0.520291	-1.302747
H	-0.313587	0.969685	0.388357
C	-0.466501	-1.107972	0.927589
H	-0.116147	-2.074959	0.566063
H	-1.557931	-1.096501	0.955099
H	-0.074468	-0.939027	1.933302
N	0.203389	-1.094678	-2.218551
O	0.989371	-0.675268	-3.061263
O	0.039805	-2.280504	-1.932672
N	-0.707418	1.124578	-2.14923
H	0.090848	1.728816	-2.00185
H	-1.561754	1.578903	-1.847154
Br	-3.814221	0.0	0.0
