16

C	0.0	0.0	0.0
C	-0.587582	-0.223734	-1.404136
Cl	1.789841	0.0	0.0
H	-1.60493	-0.597163	-1.25052
H	-0.315783	1.001209	0.295204
C	-0.466608	-1.01658	1.02679
H	-0.086835	-0.744203	2.014298
H	-0.10286	-2.010913	0.768522
H	-1.557993	-1.014831	1.043427
N	0.175137	-1.333579	-2.085598
O	-0.046885	-2.477361	-1.685878
O	0.990092	-1.036083	-2.953017
N	-0.646728	0.914806	-2.262
H	-1.492343	1.423592	-2.032965
H	0.165913	1.508505	-2.1588
Br	-3.818816	0.0	0.0
