16

C	0.0	0.0	0.0
C	-0.398361	-0.083974	-1.478845
Cl	1.789489	0.0	0.0
H	0.088117	-0.952937	-1.926697
H	-0.308018	0.969626	0.393961
C	-0.581652	-1.13901	0.80264
H	-0.287903	-2.102613	0.377138
H	-1.672026	-1.053536	0.794118
H	-0.23244	-1.096432	1.835876
N	0.246186	1.092954	-2.201122
O	0.884497	0.856939	-3.224013
O	0.032017	2.209364	-1.736972
N	-1.775871	-0.053673	-1.806375
H	-2.38075	0.430336	-1.144979
H	-2.164914	-0.977688	-1.917327
Br	-4.51495	0.0	0.0
