18

C	-0.406559	-0.072366	-1.480917
C	0.0	0.0	0.0
Cl	-2.161002	-0.361972	-1.669124
H	1.095434	0.0	0.0
N	-0.124268	1.299391	-2.101559
O	0.943107	1.423158	-2.692381
O	-0.955421	2.186056	-1.930831
C	0.379389	-1.129739	-2.21919
H	0.099644	-2.106114	-1.821262
H	0.158587	-1.099383	-3.287574
H	1.44367	-0.956966	-2.045421
C	-0.42775	-1.238889	0.645283
N	-0.78235	-2.217926	1.189613
C	-0.504995	1.211925	0.781083
H	-0.22627	1.088446	1.828995
H	-1.588366	1.321884	0.705843
H	-0.02396	2.118548	0.415374
Cl	3.290109	0.0	0.0
