18

C	-0.546317	0.000714	-1.431049
C	0.0	0.0	0.0
Cl	0.243032	1.293071	-2.368413
H	1.093329	0.0	0.0
N	-0.141649	-1.307868	-2.130835
O	0.810709	-1.921482	-1.672225
O	-0.795191	-1.620883	-3.124452
C	-2.047526	0.146021	-1.533966
H	-2.353701	0.106242	-2.576651
H	-2.534378	-0.664932	-0.986391
H	-2.348986	1.103018	-1.109063
C	-0.503034	-1.190223	0.682964
N	-0.984055	-2.111975	1.230627
C	-0.421038	1.245622	0.792848
H	0.113307	1.232613	1.743804
H	-0.119503	2.146076	0.257043
H	-1.494241	1.275975	0.993983
Cl	3.334123	0.0	0.0
