18

C	-0.350568	-0.006723	-1.49041
C	0.0	0.0	0.0
Cl	-0.123826	-1.640823	-2.168962
H	1.096277	0.0	0.0
N	-1.837866	0.29482	-1.70281
O	-2.152121	0.940276	-2.700004
O	-2.623239	-0.149817	-0.871394
C	0.493412	0.972703	-2.270374
H	0.252559	1.994799	-1.979878
H	0.312338	0.866445	-3.338217
H	1.53871	0.769702	-2.030075
C	-0.490007	-1.161281	0.734224
N	-0.886094	-2.027186	1.421394
C	-0.426917	1.287722	0.715249
H	-1.512108	1.379756	0.786454
H	-0.008492	1.269513	1.722505
H	-0.010481	2.160109	0.210617
Cl	3.310373	0.0	0.0
