18

C	-0.377976	0.179362	-1.477214
C	0.0	0.0	0.0
Cl	-0.227477	-1.355016	-2.363746
H	1.103594	0.0	0.0
N	-1.85617	0.57199	-1.534949
O	-2.123911	1.717536	-1.893881
O	-2.670193	-0.254398	-1.141014
C	0.487704	1.217589	-2.154204
H	0.367587	2.189691	-1.681508
H	0.220577	1.306761	-3.206403
H	1.526313	0.89846	-2.045747
C	-0.494009	-1.244419	0.578531
N	-0.886445	-2.20886	1.121811
C	-0.458231	1.179958	0.866257
H	-0.090733	2.123156	0.461621
H	-0.029684	1.059515	1.862324
H	-1.546864	1.221412	0.956201
Cl	3.306014	0.0	0.0
