18

C	-0.411582	-0.007135	-1.48084
C	0.0	0.0	0.0
Cl	-2.169359	-0.274606	-1.677294
H	1.096875	0.0	0.0
N	-0.110221	1.387554	-2.040983
O	0.979723	1.524379	-2.584458
O	-0.939936	2.274439	-1.865243
C	0.362362	-1.043841	-2.261951
H	0.067866	-2.033896	-1.911103
H	1.428629	-0.898295	-2.078447
H	0.143967	-0.963088	-3.328234
C	-0.435847	-1.261656	0.594359
N	-0.801473	-2.258071	1.098516
C	-0.501017	1.182867	0.827258
H	-0.014092	2.100396	0.498356
H	-0.225829	1.016456	1.869959
H	-1.583645	1.302109	0.753537
Cl	3.289353	0.0	0.0
