18

C	-0.543418	0.040833	-1.431223
C	0.0	0.0	0.0
Cl	0.22767	1.37532	-2.321085
H	1.093252	0.0	0.0
N	-0.13819	-1.237729	-2.183526
O	0.658805	-1.993643	-1.644209
O	-0.656228	-1.401023	-3.286266
C	-2.049249	0.16738	-1.531961
H	-2.524044	-0.670884	-1.014752
H	-2.36825	1.102157	-1.07193
H	-2.349835	0.16234	-2.577853
C	-0.524769	-1.185083	0.67556
N	-1.042917	-2.090057	1.217083
C	-0.400309	1.24098	0.81335
H	-1.473818	1.292819	1.009772
H	-0.072943	2.144795	0.298701
H	0.127633	1.196993	1.767228
Cl	3.307441	0.0	0.0
