17

C	0.0	0.0	0.0
C	-0.370748	-0.309238	-1.47271
F	1.387173	0.0	0.0
H	0.185481	-1.209781	-1.742123
C	-0.557602	1.263722	0.609871
H	-1.650684	1.207875	0.620629
H	-0.240988	2.129859	0.031905
H	-0.192645	1.349501	1.635851
C	-0.405424	-1.181342	0.788247
N	-0.653948	-2.12908	1.435521
N	0.313596	0.759522	-2.327534
O	-0.160192	1.89133	-2.302082
O	1.274858	0.405714	-3.008825
N	-1.723355	-0.413586	-1.840675
H	-2.408786	0.063868	-1.247699
H	-2.015846	-1.378895	-1.887433
Cl	-4.213086	0.0	0.0
