17

C	0.0	0.0	0.0
C	-0.531644	-0.114419	-1.428011
F	1.392229	0.0	0.0
H	-1.620043	-0.243068	-1.347396
C	-0.491135	1.271192	0.659409
H	-0.135329	2.123924	0.083402
H	-1.583204	1.252561	0.675064
H	-0.100235	1.310978	1.678237
C	-0.371206	-1.168677	0.826271
N	-0.564657	-2.043215	1.584802
N	0.026271	-1.410505	-2.026735
O	0.983857	-1.313713	-2.797703
O	-0.505882	-2.462009	-1.687092
N	-0.175918	1.024491	-2.200282
H	-0.75658	1.076877	-3.02497
H	0.79406	0.958051	-2.480321
Cl	-3.673636	0.0	0.0
