17

C	0.0	0.0	0.0
C	-0.527061	0.053871	-1.432336
F	1.392554	0.0	0.0
H	-1.6167	-0.073836	-1.368582
C	-0.489526	1.186838	0.801025
H	-1.581642	1.161284	0.826124
H	-0.086514	1.116266	1.813715
H	-0.14454	2.100513	0.319145
C	-0.372219	-1.257118	0.683455
N	-0.515788	-2.233792	1.319459
N	0.018881	-1.172494	-2.175637
O	0.98058	-0.999382	-2.927408
O	-0.531722	-2.248566	-1.96542
N	-0.156645	1.268672	-2.069481
H	0.819356	1.231927	-2.335306
H	-0.720276	1.412655	-2.895607
Cl	-3.661968	0.0	0.0
