10
Coordinates from ORCA-job run
  C   0.06563560191330      0.55792029742144     -0.04258043896666
  C   -1.07416996716840     -0.40649490069361     -0.24626965607023
  Br  0.66438980594532      1.33675703497140     -1.70952545455746
  H   -1.35782875625899     -0.84198151769211      0.71566412302752
  H   -0.16567989293969      1.38213299396459      0.62745979801649
  H   -0.77702401109736     -1.20455899804282     -0.92422698722141
  H   -1.93230127425797      0.12207217116468     -0.66188146357313
  N   1.24094862757453     -0.14553109328113      0.58806772216213
  O   1.56605692630319     -1.22868873215139      0.11702882994443
  O   1.77097293998606      0.42737274433894      1.53626352723832
