16

C	-0.418187	0.091789	-1.453704
C	0.0	0.0	0.0
Cl	-2.227436	0.059089	-1.580488
H	1.091621	0.0	0.0
H	-0.119436	1.064943	-1.839033
C	0.192745	-1.034912	-2.255431
H	1.280201	-0.979888	-2.138867
H	-0.068835	-0.94219	-3.3123
H	-0.151936	-1.995937	-1.873566
N	-0.469449	-1.165355	0.656055
H	-1.435037	-1.06282	0.938932
H	0.099794	-1.344617	1.47143
N	-0.416246	1.296231	0.696168
O	-0.086698	2.350491	0.159615
O	-1.038492	1.20994	1.755396
Br	3.463795	0.0	0.0
