16

C	-0.518064	0.030851	-1.441742
C	0.0	0.0	0.0
Cl	-0.119017	-1.537037	-2.219494
H	1.090576	0.0	0.0
H	-1.610593	0.081115	-1.426668
C	0.091388	1.166656	-2.240696
H	-0.247808	2.127049	-1.844545
H	-0.20741	1.102299	-3.288788
H	1.180017	1.122837	-2.16374
N	-0.470223	-1.059248	0.839596
H	-1.382463	-1.393951	0.555352
H	0.202026	-1.814804	0.811899
N	-0.498348	1.294502	0.596778
O	0.295334	2.204765	0.806232
O	-1.713959	1.352218	0.801365
Br	3.550907	0.0	0.0
