16

C	-0.390088	8.3e-05	-1.471241
C	0.0	0.0	0.0
Cl	-2.192892	-0.086088	-1.63933
H	1.093227	0.0	0.0
H	-0.103873	0.955675	-1.906248
C	0.25973	-1.15285	-2.203692
H	0.02822	-1.112863	-3.269859
H	-0.088482	-2.108664	-1.807314
H	1.341862	-1.081185	-2.057977
N	-0.444649	-1.086858	0.791599
H	0.285899	-1.770562	0.904634
H	-1.312613	-1.496711	0.482248
N	-0.458972	1.327126	0.590187
O	-1.171994	1.327031	1.587106
O	-0.080155	2.334289	-0.006371
Br	3.464805	0.0	0.0
