16

C	-0.538531	-0.050018	-1.42765
C	0.0	0.0	0.0
Br	0.488126	-1.207537	-2.609217
H	1.088784	0.0	0.0
N	-1.897645	-0.421035	-1.47604
H	-2.262646	-0.316457	-2.414846
H	-2.433349	0.159611	-0.836987
N	-0.297678	1.368251	-2.058887
O	-1.157726	1.744304	-2.853191
O	0.718012	1.96998	-1.753812
N	-0.426274	-1.236114	0.715244
O	-1.163557	-1.12734	1.698279
O	0.018195	-2.292109	0.285264
C	-0.559106	1.155584	0.672103
N	-1.012961	2.121641	1.167635
F	2.431076	0.0	0.0
