16

C	-0.492554	-0.014148	-1.42517
C	0.0	0.0	0.0
Br	-2.514109	-0.456909	-1.495816
H	1.094303	0.0	0.0
N	-0.213956	1.185745	-2.076163
H	-0.550107	1.169593	-3.029796
H	-0.545912	1.994554	-1.568122
N	0.154715	-1.09663	-2.296127
O	-0.166593	-1.063266	-3.481116
O	0.965087	-1.847175	-1.783256
N	-0.405837	-1.144148	0.842251
O	-0.699824	-2.205169	0.299747
O	-0.347638	-0.96359	2.058604
C	-0.421273	1.229665	0.635167
N	-0.735292	2.28494	1.050424
F	2.40081	0.0	0.0
