16

C	-0.522591	0.058821	-1.408117
C	0.0	0.0	0.0
Br	-2.575063	-0.228941	-1.420266
H	1.115074	0.0	0.0
N	-0.17176	1.24977	-2.03937
H	-0.600564	1.329417	-2.951045
H	-0.330594	2.066889	-1.467094
N	0.0218	-1.043265	-2.32495
O	0.894051	-1.773853	-1.888413
O	-0.411543	-1.023961	-3.473045
N	-0.413385	-1.17636	0.786586
O	-0.769732	-2.190199	0.19164
O	-0.306561	-1.074151	2.008613
C	-0.378865	1.204529	0.704096
N	-0.639709	2.244764	1.188725
F	2.394721	0.0	0.0
