16

C	-0.101951	0.033467	-1.521055
C	0.0	0.0	0.0
Br	0.219026	1.98422	-2.083431
H	1.093128	0.0	0.0
N	0.84073	-0.860202	-1.979199
H	0.945011	-0.881755	-2.980926
H	1.725168	-0.698671	-1.448928
N	-1.483536	-0.210651	-2.121625
O	-2.424129	0.364421	-1.596497
O	-1.536315	-0.945602	-3.10336
N	-0.436511	-1.367951	0.472865
O	0.369466	-2.007497	1.139565
O	-1.570161	-1.739684	0.171808
C	-0.676294	1.012722	0.767208
N	-1.166506	1.832183	1.452914
F	2.541416	0.0	0.0
