16

C	-0.506331	0.00094	-1.436638
C	0.0	0.0	0.0
Br	-2.402966	0.310685	-1.641998
H	1.091984	0.0	0.0
N	0.185863	1.02801	-2.124769
H	-0.186009	1.195994	-3.052029
H	1.187653	0.853262	-2.132559
N	-0.174	-1.399017	-2.050719
O	-0.807434	-1.767496	-3.017958
O	0.866804	-1.876631	-1.607571
N	-0.447036	-1.146662	0.893089
O	0.502141	-1.687459	1.500416
O	-1.452711	-1.766148	0.49114
C	-0.481699	1.168249	0.707535
N	-0.842616	2.092764	1.337936
F	2.49915	0.0	0.0
