16

C	-0.554412	-0.028343	-1.413588
C	0.0	0.0	0.0
Br	0.409573	-1.224585	-2.620703
H	1.115583	0.0	0.0
N	-1.930076	-0.322726	-1.468326
H	-2.280002	-0.213479	-2.410848
H	-2.432072	0.298452	-0.843572
N	-0.246702	1.374694	-2.059908
O	0.759182	1.970996	-1.712139
O	-1.049066	1.739113	-2.917661
N	-0.371877	-1.212323	0.766284
O	-0.375457	-2.287144	0.175473
O	-0.566201	-1.074037	1.975297
C	-0.474404	1.17448	0.703253
N	-0.827267	2.16385	1.23435
F	2.408912	0.0	0.0
