14
Coordinates from ORCA-job run
  C   -0.42200524803435     -0.11379383020682      0.37329181592674
  C   1.06168636640773     -0.26380768255692      0.70287758826052
  Br  -1.43709964222278     -0.47711660948187      1.99504019646666
  H   1.26016082661688     -1.26095758763678      1.09562206766349
  H   1.31800132395918      0.46823619680535      1.47307034345262
  N   -0.81770335778734     -1.21454727670544     -0.61398347675526
  O   -1.77088769662387     -0.98206674793466     -1.34677459293281
  O   -0.16847364466601     -2.25394005274980     -0.57471239467526
  C   -0.79248922330372      1.23786727154302     -0.18910760934840
  H   -0.27252423538122      1.39591599921788     -1.13718291345213
  H   -0.49443538156621      2.01415511427536      0.51770135613765
  H   -1.86418323098702      1.30228589345218     -0.36188266896183
  C   1.88168825811438     -0.03036748493931     -0.48482529322135
  N   2.51926488547434      0.17713679691784     -1.44813441856060
