14
Coordinates from ORCA-job run
  C   -0.35136060635205     -0.20408358084594      0.19548925845101
  C   1.11279479657630     -0.54372180772338     -0.08444588364591
  Br  -0.80366515585144     -0.72203259397145      2.01503151995126
  H   1.31049785290334     -0.38613234191940     -1.15019308682208
  H   1.30522901994528     -1.59488540403395      0.13122581030450
  N   -1.21572685854413     -1.08417622336850     -0.71050749142281
  O   -2.36079888973836     -0.70462868635141     -0.91803850041784
  O   -0.70593467047797     -2.11320963767099     -1.14298506946469
  C   -0.69578733023356      1.24781735911679     -0.04155073534169
  H   -1.75023251859346      1.42771537062199      0.15394315219761
  H   -0.09351482117807      1.87782395398896      0.61348922037844
  H   -0.48081184240228      1.50540468318510     -1.08314090617680
  C   2.00614638443276      0.30167433440962      0.70085271902516
  N   2.72416463951367      0.99243457456255      1.32082999298384
