13
Coordinates from ORCA-job run
  C   -0.55147030993927     -0.08861760313796     -0.06439730642216
  C   0.74253376390966      0.32182151090859      0.11422406666073
  N   -0.91778295443079     -1.42268734742973     -0.06661194810830
  H   -0.13243133690554     -2.05383271063562     -0.07608130178634
  H   -1.60785972078108     -1.64750374803085     -0.76858605942084
  N   -1.61831884709694      0.77031231554560     -0.27024289326696
  H   -1.37902760443156      1.74788243116101     -0.18197366547526
  H   -2.43407920438203      0.52654739448135      0.27349562512148
  N   1.87105199967632     -0.54655292666971      0.13481580058703
  H   1.92208285950665     -1.15073768571057      0.94166180686056
  H   2.01746860335343     -1.05943014695764     -0.72229166394902
  C   0.97804204835038      1.71945426762172      0.27902012050235
  N   1.10979070317075      2.88334424885380      0.40696741869673
