13
Coordinates from ORCA-job run
  C   -0.64330569571266     -0.07591715462355     -0.00508654783042
  C   0.69742119088417      0.18879889356679      0.12557647144725
  N   -1.09378810007326     -1.37567454862431      0.01597410756811
  H   -0.32314277348227     -2.02093330880019     -0.09906264761533
  H   -1.89487077976056     -1.57605217701107     -0.56267676343350
  N   -1.60466685575967      0.90892447468026     -0.00708703230849
  H   -2.48781313820391      0.67188744892228     -0.42803356593681
  H   -1.27461212040351      1.83103310813528     -0.24686732372773
  N   1.60329048559668     -0.92129042921195      0.18318052375079
  H   2.33054678575530     -0.83427559333592     -0.51591073807037
  H   2.04960884642777     -0.98774547045548      1.09029470033840
  C   1.14205230757836      1.53426560432577      0.20483151974690
  N   1.49927984715359      2.65797915243208      0.24686729607119
