13
Coordinates from ORCA-job run
  C   -0.53150385962459     -0.08429398819169      0.01048382754104
  C   0.77924639936140      0.28505637140797      0.13091377488715
  N   -0.88679960310971     -1.41918516401987     -0.11161901772940
  H   -1.87592964038247     -1.59996842079906     -0.15814267727744
  H   -0.33022384997613     -1.95847204959232     -0.75413375745448
  N   -1.60177905989719      0.78908871989846      0.16987561342240
  H   -2.27029184192232      0.75749959491268     -0.58778081037072
  H   -1.31775984405265      1.73764780715455      0.37256466944766
  N   1.84563275928941     -0.63951077017081      0.32155465408166
  H   2.28127883031885     -0.93630137012325     -0.54213785699964
  H   1.52940344273283     -1.44558017972728      0.84451155689585
  C   1.08671524035079      1.67696663652116      0.15700589733115
  N   1.29301102691178      2.83705281272945      0.14490412622476
