13
Coordinates from ORCA-job run
  C   -0.61136720475027     -0.06439732193380     -0.09511116372522
  C   0.72302108061611      0.21057245118275      0.01798577088536
  N   -1.05646116764089     -1.36874107000086     -0.05470384831670
  H   -1.90543382404827     -1.56021254922381     -0.56426693501140
  H   -0.30307397232413     -2.01878018224519     -0.23572536209101
  N   -1.55910297860351      0.94417093886209     -0.22072666403451
  H   -2.49973416471417      0.61622135224356     -0.37104706695058
  H   -1.51736967106813      1.66306422403869      0.48464971742709
  N   1.62743662223084     -0.89286301176817      0.17630005639769
  H   2.45436965864440     -0.76588793116888     -0.39369786417078
  H   1.92420691854316     -0.99562640479879      1.13979403391318
  C   1.16924804396935      1.55948686607939      0.04883524046191
  N   1.55426065914550      2.67399263873303      0.06871408521498
