13
Coordinates from ORCA-job run
  C   -0.53191624301384     -0.07498973247958      0.04096543735564
  C   0.78518316908901      0.29053857460934      0.05565567531075
  N   -0.90314287134827     -1.40791851373536      0.11952118645699
  H   -1.89474379980727     -1.58049441044335      0.13302793300964
  H   -0.37539969509231     -2.04263340908285     -0.45685822713044
  N   -1.58923467951528      0.82593162384314      0.12213959181971
  H   -1.28839451341400      1.78910998088861      0.18079322455566
  H   -2.28462624684173      0.70118534931057     -0.60094524084904
  N   1.85120653435609     -0.61510768472274      0.32440128772463
  H   1.55624223098697     -1.33390350387176      0.97220969555474
  H   2.24317586843763     -1.03663416916573     -0.50763153709263
  C   1.10608550519500      1.66947144553063     -0.10845632763729
  N   1.32456474096800      2.81544444931908     -0.27482269907837
