13
Coordinates from ORCA-job run
  C   -0.62824579205132     -0.05192232224300     -0.17588560857332
  C   0.67678293060378      0.14360155260391      0.18868070529855
  N   -1.12224912972859     -1.31652804366154     -0.40722117336333
  H   -0.45729096815655     -2.01708882392191     -0.10638505676166
  H   -2.05361967923339     -1.45871076917704     -0.04423481685626
  N   -1.54927106943864      0.96578075031343     -0.33724823902073
  H   -2.13963878281455      0.84490093462085     -1.14749507231378
  H   -1.15447143318131      1.89370376334898     -0.28299115667137
  N   1.48092847463731     -1.00344405018375      0.49490534651492
  H   2.25753288347533     -1.08704593034248     -0.14988316548521
  H   1.86148337378613     -0.94124429794339      1.43169377698258
  C   1.20041742790296      1.46486359148640      0.24375475046743
  N   1.62764176419886      2.56313364509955      0.29230970978218
