13
Coordinates from ORCA-job run
  C   -0.62791180442412     -0.14237243441217     -0.11554617843630
  C   0.70083656934659      0.14798002877839      0.04027075195002
  N   -1.23752604277028     -0.35530206877728     -1.33751136744586
  H   -0.59749874300180     -0.39718383383992     -2.11768514360226
  H   -1.88655094525380     -1.12877771904530     -1.33004947786897
  N   -1.46936069088326     -0.23831706646271      0.97016871534529
  H   -1.00943643778802      0.09470171511722      1.80784043600326
  H   -2.37844351740409      0.17227700688805      0.81426207850564
  N   1.17099797168910      0.52102139032255      1.34276125882149
  H   1.61190920834391      1.43282885233419      1.32308434386790
  H   1.85154907701761     -0.14455083647551      1.68932939719363
  C   1.57582191662538      0.05657102928306     -1.07724099085412
  N   2.29561343850280     -0.01787606371056     -2.00868382347972
