13
Coordinates from ORCA-job run
  C   -0.63144780921124     -0.09357560479418     -0.11250226168020
  C   0.69893981184529      0.22032630137014      0.01294610124000
  N   -1.44158260048217     -0.12212012346117      0.99929169635262
  H   -2.17392133751289     -0.81524496107027      0.99368097422727
  H   -0.88587848121969     -0.11163358433375      1.84475183007510
  N   -1.25402080711911     -0.24124949664208     -1.33095999727964
  H   -0.64260160180118     -0.45622829453019     -2.10338797883228
  H   -2.11462222033210     -0.76314660094558     -1.33448711015855
  N   1.22715057289901      0.41190162403921      1.33254616145625
  H   2.02922023466680     -0.18502836148931      1.49368861862148
  H   1.52014327496174      1.37110857651511      1.47602407741720
  C   1.50285284804084      0.35073661714373     -1.14940013545053
  N   2.16676811526470      0.43515390819835     -2.12119197598872
