13
Coordinates from ORCA-job run
  C   -0.52489823223341     -0.18101843395121     -0.08485798856828
  C   0.77571629433667      0.24681714985362     -0.07941932608385
  N   -1.20897326379798     -0.50336340251812      1.07344770991574
  H   -2.16749871223591     -0.18641152626918      1.07611013316329
  H   -0.71335886598253     -0.25412025465910      1.91446870638530
  N   -1.29106782984028     -0.32787349497964     -1.22959720313566
  H   -1.81907608424609     -1.18921369462922     -1.24365727724616
  H   -0.77602193928496     -0.18291284401787     -2.08668782424226
  N   1.51111404910833      0.58656894376812      1.09249022693380
  H   1.11516915191781      1.35025207534452      1.62120620282812
  H   1.73372651067520     -0.19701620775975      1.68854740521425
  C   1.43653024010035      0.37585614237387     -1.33751466609515
  N   1.92863868148281      0.46243554744396     -2.40453609906914
