13
Coordinates from ORCA-job run
  C   -0.53155072754427     -0.07456367524220      0.04922957262964
  C   0.78459269245399      0.29452346580748      0.04123364062814
  N   -0.89733198854774     -1.40627891511795      0.16696753282362
  H   -1.88803058722188     -1.58175894420383      0.19778451304587
  H   -0.37482720917329     -2.05374202693354     -0.40012621250288
  N   -1.59092385531519      0.82503115931726      0.11671541178267
  H   -2.29433630930794      0.67684249940831     -0.59431053262303
  H   -1.29193482292738      1.79033269651370      0.14223349813450
  N   1.85551067793856     -0.60123221167606      0.32239170302981
  H   1.56910363570128     -1.30431169110678      0.99092513985526
  H   2.24018425117862     -1.04277190802542     -0.50263157690865
  C   1.10029877214075      1.66937207804380     -0.16305362884147
  N   1.31824547062449      2.80955747321522     -0.36635906105349
