13
Coordinates from ORCA-job run
  C   -0.55608411826792     -0.07234035494805     -0.04238709854904
  C   0.75625805390955      0.30058976617130      0.07394551678626
  N   -0.93904468272778     -1.35862804523796     -0.37753835594985
  H   -0.17628704627672     -2.01692053497493     -0.37501949629803
  H   -1.74016720221205     -1.68690916065353      0.14170364853887
  N   -1.62787057510432      0.77856356452798      0.17072027843543
  H   -2.34842422063618      0.69317804985932     -0.53235230412158
  H   -1.36151062065261      1.74025216520942      0.32882449035025
  N   1.85876912760792     -0.60077784273725      0.04815025831352
  H   1.85169958438233     -1.28723284029498      0.78826932024855
  H   2.03290206005576     -1.02603403360335     -0.85042939833387
  C   1.03926812546487      1.68893100087516      0.24387998930890
  N   1.21249151445713      2.84632826580688      0.38123315127059
