13
Coordinates from ORCA-job run
  C   -0.62105255337627     -0.19217908478867     -0.07124032814572
  C   0.68607536954863      0.20977208218288     -0.00900149874576
  N   -1.34520474080817     -0.44602499813071      1.07207800471521
  H   -2.29724276784988     -0.11267942020411      1.02972664191110
  H   -0.84001976697460     -0.13409336263723      1.89153180691281
  N   -1.32207496926467     -0.37354248844717     -1.24862885895024
  H   -1.89600784371388     -1.20440528515353     -1.24617833025282
  H   -0.75735866842901     -0.29834711828822     -2.08245738964149
  N   1.24233315884751      0.53191862052853      1.27313214611851
  H   1.59458383227275      1.48171954787225      1.28809643589265
  H   2.01150240438074     -0.08656274813880      1.50156824710891
  C   1.45604630373505      0.28207381417543     -1.20258966233208
  N   2.08742024163181      0.34235044102934     -2.19703721459108
