13
Coordinates from ORCA-job run
  C   -0.63594010827332     -0.08925507571051     -0.12462539881676
  C   0.68003987075286      0.18418468981729      0.13582103528455
  N   -1.60175349096241      0.87625547168177     -0.33687373108895
  H   -2.47651893139124      0.67349745332372      0.12492517135177
  H   -1.28679120220944      1.82084974862758     -0.16784984721110
  N   -1.09398991214825     -1.38577712479964     -0.19860532328243
  H   -1.76200630298782     -1.53660567691621     -0.94050756492007
  H   -0.31957283805598     -2.03710821350570     -0.20824593375257
  N   1.61252447646233     -0.90504081883226      0.16088141991046
  H   2.03260134182137     -1.00457433809825      1.07732354025396
  H   2.35954085801145     -0.76063482158324     -0.50801858142273
  C   1.08244642230005      1.52454392515695      0.38905349586784
  N   1.41041981668038      2.63866478083851      0.59472171782603
