13
Coordinates from ORCA-job run
  C   -0.63360881461123     -0.13176640825693      0.03379262599373
  C   0.68996917241808      0.23276485274744      0.10248094905178
  N   -1.66368809026747      0.75551460022329      0.22505374535046
  H   -1.44830076492407      1.72269037443291      0.04991112643454
  H   -2.58122988742581      0.46570361886988     -0.06828819106760
  N   -0.98205280765342     -1.45890106705936     -0.08739878399992
  H   -1.78344512400415     -1.64248858345049     -0.67410385567928
  H   -0.16443890471611     -2.00821341652902     -0.32155619638911
  N   1.68366464888973     -0.78730930704906     -0.07019846090719
  H   2.21751604536577     -0.92639348682299      0.77873652659848
  H   2.33109091341208     -0.54159606749119     -0.80728395805673
  C   1.03299170598233      1.59004445446036      0.33788994638718
  N   1.30353190753427      2.72895043592515      0.49996452628367
