13
Coordinates from ORCA-job run
  C   -0.64844519618731     -0.07032383991769     -0.04721578699213
  C   0.69620127943489      0.16278713015944      0.06213928139815
  N   -1.13528807983497     -1.33155219797044     -0.30740734928974
  H   -0.39918813548344     -2.02133857987384     -0.22767595691728
  H   -1.96669465438719     -1.56014614332451      0.21766096366856
  N   -1.61860103965058      0.90404817805659      0.09338587229990
  H   -1.25444593737491      1.84271113860547      0.17220138462778
  H   -2.35740212279314      0.83310922179847     -0.59122937840386
  N   1.58591509764998     -0.96174078244827      0.07241140327440
  H   2.14860155329565     -0.97421152176226      0.91459635237148
  H   2.21545732164709     -0.93693164103942     -0.72083867152476
  C   1.17285446528122      1.50007718519815      0.14494078155675
  N   1.56103544840270      2.61151185251832      0.21703110393077
