13
Coordinates from ORCA-job run
  C   -0.48829137951373     -0.07957054348552     -0.21207042356547
  C   0.76300005954817      0.29269763227497      0.19305714467084
  N   -1.44898046474748      0.80915213762333     -0.68397431807441
  H   -2.34828902034786      0.71258482779460     -0.23221592723831
  H   -1.13744183155286      1.77075445890090     -0.68186442297880
  N   -0.82543918266442     -1.41788895700550     -0.34400904066821
  H   -1.75726811196660     -1.59693645513992     -0.68012407440839
  H   -0.53092761692418     -2.01694772707145      0.40984273752056
  N   1.84740002569007     -0.61896698129508      0.33857251189294
  H   1.93775877139626     -0.99340560326086      1.27409969459757
  H   1.77361610514147     -1.37322662339727     -0.33146314382756
  C   1.02588277995344      1.67991061569683      0.38774317342896
  N   1.18897986598773      2.83384321836497      0.56240608865026
