13
Coordinates from ORCA-job run
  C   -0.55284305222388     -0.06188340246679     -0.06639015568056
  C   0.76224762425872      0.28195316125886      0.12104377434500
  N   -0.97216879147537     -1.38130929410060     -0.02996109236929
  H   -1.72411654447886     -1.57348613137292     -0.67745652329705
  H   -0.20292577918124     -2.02032901951662     -0.17865197225343
  N   -1.56612680783670      0.84990125162357     -0.29102498340796
  H   -2.42770142760014      0.63862194111813      0.19306532912869
  H   -1.28961806847599      1.81493891725272     -0.19313640663458
  N   1.82199892713793     -0.65372433314143      0.25051854455669
  H   2.14655927066867     -1.07208412073192     -0.60883832075698
  H   1.71178360415064     -1.33203781000264      0.98657787058969
  C   1.06207820889741      1.67216374398980      0.22640056669144
  N   1.22983283615881      2.83827509608984      0.26685336908835
