13
Coordinates from ORCA-job run
  C   -0.59372063394076     -0.09238801233658     -0.24225584791666
  C   0.68245946298700      0.21540339748625      0.15920661444128
  N   -1.53645259973202      0.86535266245017     -0.54039820748594
  H   -2.49913463483413      0.57395889323593     -0.49860936713661
  H   -1.36882905077607      1.77268866031261     -0.13347904106758
  N   -0.93497007973696     -1.39714838100738     -0.51311020822065
  H   -0.23016085446676     -2.03045790925932     -0.15880904359100
  H   -1.88279585213812     -1.66191777647626     -0.29399048705320
  N   1.60149863644903     -0.86411137469757      0.37578785809534
  H   2.00955010312495     -0.81394000642562      1.30113889791255
  H   2.35710568076492     -0.84602193363551     -0.29898746856544
  C   1.05374417439995      1.57341881605816      0.33833554833305
  N   1.34270564789898      2.70516296429512      0.50517075225485
