13
Coordinates from ORCA-job run
  C   -0.53104265443617     -0.14703469627249     -0.11580450076961
  C   0.79388548114517      0.18840494517867     -0.03230325466052
  N   -1.22360971787692     -0.28960413700989     -1.30684228471935
  H   -1.81301572701113     -1.10987157264573     -1.32649056650315
  H   -0.64050738109771     -0.21926973752747     -2.12901677277635
  N   -1.31600030134260     -0.36958398219511      1.00151009020900
  H   -0.86278399918254     -0.11447932716274      1.86455583918052
  H   -2.24639418642205      0.01403490601920      0.92053342524201
  N   1.46785989270232      0.52448524377888      1.17656479580526
  H   1.10237966751027      1.34104097817884      1.64424519974433
  H   1.59310867034350     -0.24554726916502      1.81673267372021
  C   1.55034775052999      0.21311905096507     -1.24193626253635
  N   2.12477250513786      0.21530559785780     -2.27074838193600
