13
Coordinates from ORCA-job run
  C   -0.63813207702620     -0.08008203470985     -0.08048536135495
  C   0.70309112782209      0.20609816579936     -0.01925653265873
  N   -1.38950746275508     -0.11062981149746      1.07189404766336
  H   -2.14248000097543     -0.78101655017789      1.09046940074354
  H   -0.78897455727994     -0.13404397373554      1.88572775026809
  N   -1.32541062880397     -0.19578362123951     -1.26711651980788
  H   -2.18876426963184     -0.71228939043804     -1.23736722507269
  H   -0.75728828084336     -0.39751218667040     -2.07522259776710
  N   1.30079039092581      0.36930447534447      1.27437567962230
  H   2.10125188028408     -0.24123874400537      1.38419015264832
  H   1.61492780629436      1.32196869420106      1.41718763765401
  C   1.44929467910569      0.33572767059983     -1.21938241462980
  N   2.06220139288379      0.42049730652934     -2.22401401730847
