13
Coordinates from ORCA-job run
  C   -0.55763406699895     -0.07017637110222     -0.01887978703395
  C   0.76049348167121      0.29887651325142      0.01755437492784
  N   -0.97402573783705     -1.37218809183619      0.19203777635129
  H   -0.21654569609059     -2.03584117728667      0.22202721680184
  H   -1.72205541338547     -1.65916356857579     -0.42231360225241
  N   -1.60260505664159      0.80216756287691     -0.27540472669366
  H   -2.38594140173466      0.67691671135836      0.35020484406348
  H   -1.31923591645264      1.76960996870105     -0.34186806442639
  N   1.85341756762760     -0.61178122142034      0.09219163383935
  H   1.93089593798301     -1.10299022832046      0.97050721641453
  H   1.92210702000145     -1.24281895748056     -0.69279571999314
  C   1.06153318215406      1.69289380435833     -0.02744916737756
  N   1.24959609970364      2.85549505547616     -0.06581199462124
