13
Coordinates from ORCA-job run
  C   -0.62812902529611     -0.14082825386680     -0.11698387327659
  C   0.69967491084472      0.15301619180725      0.04053155464335
  N   -1.25120813800661     -0.28263386481906     -1.34238523805547
  H   -1.89281812254190     -1.06147007799278     -1.37647123322965
  H   -0.62113890474901     -0.26678326913174     -2.13151065895691
  N   -1.45420888850446     -0.31535087450698      0.97096862474558
  H   -2.36912115056450      0.09512149464604      0.85340832475302
  H   -0.98632572963704     -0.03113106537274      1.82204705900357
  N   1.18301789302815      0.44734608029440      1.35822439365753
  H   1.61519274413075      1.36294026155663      1.39125639169837
  H   1.87347853318542     -0.23223891592624      1.65410176040043
  C   1.56134921402341      0.14035644066214     -1.09076123096477
  N   2.27023666408718      0.13165585264987     -2.03342587441846
