13
Coordinates from ORCA-job run
  C   -0.52355370404361     -0.30205012722174     -0.08254616337708
  C   0.68563597074948      0.31538696223892      0.00820688148402
  N   -1.05252828357299     -0.88883773553036     -1.24084061422505
  H   -0.37226523377065     -0.91325841193637     -1.99116136579008
  H   -1.88203166402385     -0.39882703943441     -1.55220386222477
  N   -1.25314269838131     -0.50250345250487      1.08025862118160
  H   -2.14598392839185     -0.94898027655806      0.92789122558867
  H   -1.28199813318164      0.30447111111974      1.69164235110272
  N   1.15584805388892      0.72235582378856      1.30066958590368
  H   1.16596233300328     -0.08497429102121      1.91961915846143
  H   2.09924781078080      1.08265904297630      1.23900846180256
  C   1.40295886317472      0.66347661603055     -1.16107905556864
  N   1.99985061376870      0.95008177805294     -2.13646522433908
