13
Coordinates from ORCA-job run
  C   -0.63465906409680     -0.12363807758695     -0.04013530368031
  C   0.68021659044882      0.20004176018026      0.18599145711835
  N   -1.67531738582683      0.73422514933952      0.23556556251125
  H   -2.53663595909918      0.56394182114775     -0.25710321354571
  H   -1.42395034127627      1.70940722370014      0.28777913622003
  N   -0.97433368445156     -1.40267827821593     -0.41499525409328
  H   -1.76239756554300     -1.48821711536450     -1.03800300362867
  H   -0.15405830870946     -1.91948038108525     -0.70343542863026
  N   1.67617799891902     -0.79938528861636     -0.07176074319961
  H   2.38817453485877     -0.44907922532558     -0.70081798773981
  H   2.13368932193360     -1.09254920231319      0.78359031883285
  C   1.01082348884685      1.49119317474330      0.67391251356389
  N   1.27227037399605      2.57521843939678      1.05941194627131
