13
Coordinates from ORCA-job run
  C   -0.64172558418768     -0.06185107948400     -0.01568972203788
  C   0.70701394402495      0.14950741730527      0.13422142642950
  N   -1.13853583235751     -1.33296274092784     -0.08630673199253
  H   -2.03912335783172     -1.47476675137963     -0.50961296617213
  H   -0.42638128683414     -2.02374279554553     -0.27061794517404
  N   -1.57395818997194      0.95624834524202      0.03649177874971
  H   -2.35526951716416      0.84403386201396     -0.59021442636032
  H   -1.17295976069653      1.88113728169367     -0.01998667075703
  N   1.56971904640144     -0.99455998005956      0.17406968149508
  H   2.31564606215729     -0.90971452035497     -0.50542368014386
  H   1.99747490995083     -1.10613073341117      1.08428329270196
  C   1.19243542760913      1.47793757359033      0.24503597756414
  N   1.56466413890006      2.59586412131744      0.32374998569739
