13
Coordinates from ORCA-job run
  C   -0.63485176171755     -0.09700448016471     -0.08685591087308
  C   0.66987429611982      0.18818597513923      0.23070886164755
  N   -1.64316745625696      0.83759659282419     -0.02024545768652
  H   -1.34105201492400      1.79867484171940     -0.06272324528332
  H   -2.46768721280610      0.64657094243298     -0.56511557761151
  N   -1.01446207983677     -1.39448223335831     -0.34149346186182
  H   -1.74122779535741     -1.51611944784707     -1.02966424767593
  H   -0.20297195311157     -1.98194851916042     -0.48162314197899
  N   1.62468622914968     -0.88124858773042      0.18953011581364
  H   2.41069758225148     -0.64408988516832     -0.40320717957744
  H   1.98398230662032     -1.09031434414956      1.11357610089336
  C   1.03156660375938      1.51243275939194      0.59093342079473
  N   1.32361325610968      2.62174638607107      0.86717972339933
