13
Coordinates from ORCA-job run
  C   -0.63829052730312     -0.06705923134347     -0.09090400550994
  C   0.70773885126095      0.18878560195358     -0.00488538626805
  N   -1.40608544602108     -0.11099845608207      1.05021719761387
  H   -2.16941636630551     -0.76962298639616      1.04317133534048
  H   -0.81777025365358     -0.16353456963242      1.87156431083306
  N   -1.31172430438286     -0.13882448475108     -1.28862166801721
  H   -2.18636410871036     -0.63682666094120     -1.28363715633316
  H   -0.73723317172890     -0.33043943912172     -2.09460454756143
  N   1.29061384700424      0.31131272287951      1.29968792817987
  H   1.61834933211818      1.25466159993611      1.47041522650544
  H   2.07778508248570     -0.31639389631655      1.40710539874606
  C   1.47127605823553      0.33774823989392     -1.19196395809015
  N   2.09812100700082      0.43819155992155     -2.18654467543884
