13
Coordinates from ORCA-job run
  C   -0.63615256882909     -0.08839271063853     -0.00551807156250
  C   0.70496134965176      0.15463489367291      0.09906696223665
  N   -1.11773656822381     -1.37440789677845     -0.03789669492324
  H   -2.07733340794659     -1.46849984333714     -0.32433995852392
  H   -0.45788935946977     -2.02151888623622     -0.44129685195580
  N   -1.59509632806207      0.91686703748864      0.05681789728922
  H   -2.21260467458595      0.91789694055352     -0.74711705050714
  H   -1.17976052924148      1.82653016662232      0.18424009413792
  N   1.59427353454492     -0.96977137052640      0.18657010264446
  H   2.45883727483395     -0.78857534481888     -0.30073005502609
  H   1.79551326687188     -1.21813534529960      1.14851669233077
  C   1.18316807714076      1.49366014100061      0.10297323886598
  N   1.53781993331550      2.61771221829722      0.07871369499369
