13
Coordinates from ORCA-job run
  C   -0.62878345292920     -0.07034239544507     -0.16528417336081
  C   0.67561402993493      0.16442054550216      0.17784445227993
  N   -1.54269808685916      0.92196861019763     -0.46544332205587
  H   -1.20654929824832      1.85914536575259     -0.29543708287964
  H   -2.45354256918628      0.76036431199025     -0.06070216077122
  N   -1.12715676320964     -1.35157723081511     -0.23905388099662
  H   -0.37797154939409     -2.02935073026220     -0.18099566686765
  H   -1.75091222142790     -1.49935805036654     -1.01888546935066
  N   1.56474509495167     -0.95501350692557      0.29180787496471
  H   2.35916244246555     -0.85368306733224     -0.32846818377579
  H   1.91901196062318     -1.04482100388475      1.23659422831442
  C   1.10823270777319      1.49657380610806      0.42500967153905
  N   1.46184770550609      2.60367334548078      0.62601371296016
