13
Coordinates from ORCA-job run
  C   -0.62287020976630     -0.12488076032720     -0.16624941449759
  C   0.69768897372907      0.19702409747156      0.02331516444264
  N   -1.03504762005502     -1.42527684238715     -0.09257780030874
  H   -0.36614871427834     -2.02812952048377      0.36556852536739
  H   -2.00972810961517     -1.59658760002170      0.08759915284278
  N   -1.57246278743389      0.79679254000624     -0.58282867958635
  H   -2.45950910719896      0.72705879002749     -0.10212211702938
  H   -1.22143237867684      1.74365005418269     -0.59403810791627
  N   1.61095045368341     -0.86257872501294      0.34663986442373
  H   2.25094776455314     -1.04729952170890     -0.41586405898840
  H   2.15931422161675     -0.61886094989991      1.15923540536336
  C   1.11310233967957      1.55537855211416     -0.02036288776195
  N   1.45519517376260      2.68470988603941     -0.00931504635122
