13
Coordinates from ORCA-job run
  C   -0.64369436708240     -0.10541528607450     -0.04722367819829
  C   0.68788497218579      0.20027759299913      0.04200908827351
  N   -1.09186746100951     -1.39585622746105      0.12468422875999
  H   -1.82855809895186     -1.65625918054413     -0.51479326707367
  H   -0.31474279865667     -2.04399997001171      0.13908483853485
  N   -1.63566726359230      0.81885300255021     -0.31538586154342
  H   -1.31626405983619      1.77701404168597     -0.32669644490695
  H   -2.46090747336389      0.69531086152551      0.25311296728845
  N   1.63105635272686     -0.87472172092334      0.14637909691612
  H   2.13623582660139     -0.83336077845922      1.02346352726749
  H   2.31036437540082     -0.83732231948437     -0.60420774600602
  C   1.09685482820586      1.56239207384300      0.04255686808342
  N   1.42930516737210      2.69408791035453      0.03701638260454
