13
Coordinates from ORCA-job run
  C   -0.57947509231965     -0.10541303905188     -0.11058201377386
  C   0.68949725467179      0.26297899764461      0.21846811608212
  N   -1.54536841057073      0.85161386678996     -0.42486760629098
  H   -2.49895364717634      0.55323127688571     -0.30207106224792
  H   -1.39838743424381      1.35916018382407     -1.28213597054479
  N   -0.90943267557460     -1.44719522914665     -0.20104481622968
  H   -1.89284731588587     -1.64189554239919     -0.29862312323700
  H   -0.43285606260902     -2.02369306825304      0.47873353874776
  N   1.66360861473148     -0.76723297403767      0.44088319789962
  H   2.35406036932340     -0.45560829409908      1.11175623285967
  H   2.15025288964022     -0.99019983080015     -0.42173160872567
  C   1.03858190070150      1.63803583850183      0.33936709054253
  N   1.36131960931161      2.76621781414148      0.45184802491818
