13
Coordinates from ORCA-job run
  C   -0.64352717117126     -0.10429167767888     -0.05481069103669
  C   0.68747020921940      0.19942498256046      0.04870075131292
  N   -1.09209058009513     -1.39875643511713      0.08311091490497
  H   -1.82453146045455     -1.64444228285536     -0.56703032363406
  H   -0.31427773302504     -2.04616089469363      0.08604394800678
  N   -1.63467509724345      0.82636779537760     -0.30432575669409
  H   -1.31573231851122      1.78436058517614     -0.28704005984653
  H   -2.46198738796945      0.68663888332620      0.25747799037905
  N   1.63060680105920     -0.87771725605272      0.13178140700781
  H   2.13116412620459     -0.85764400137466      1.01225591964871
  H   2.31386669280793     -0.82122596733736     -0.61414074428666
  C   1.09597785535305      1.56112736469393      0.08862357802636
  N   1.42873606382592      2.69231890397541      0.11835306621142
