13
Coordinates from ORCA-job run
  C   -0.54628677750392     -0.09638486054203     -0.11527537333555
  C   0.80368407759457      0.11652793120429     -0.03793020810203
  N   -1.39267135343650      0.07259481651327      0.96579467967588
  H   -2.10590471204201     -0.63887376943367      1.03220729523298
  H   -0.90700827923145      0.22162562901690      1.83595251727131
  N   -1.20431035966707     -0.50700316046482     -1.26335257315496
  H   -2.05559042354903      0.00862314148344     -1.43721633869516
  H   -0.61128386323853     -0.54969329749148     -2.08024664719824
  N   1.51846197263580      0.34348555177292      1.17280001804935
  H   1.45685442564319     -0.41178289542428      1.83963138859677
  H   1.33790824023232      1.23707347480545      1.60585744901069
  C   1.55351131961453      0.09816954737951     -1.25212016413816
  N   2.15363573294810      0.10563789118050     -2.26610204321289
