13
Coordinates from ORCA-job run
  C   -0.45931720357304     -0.27279269692350     -0.06992854889412
  C   0.77896243070918      0.30654022259800     -0.06561843337420
  N   -1.09603620109695     -0.73744365994047     -1.21637024309553
  H   -0.55874999059623     -0.58554740847813     -2.05899686249663
  H   -2.04338712191144     -0.39935456568827     -1.31857717504030
  N   -1.09904452840013     -0.59518682145410      1.11624315255005
  H   -1.05951916173462      0.10596464692326      1.83766342517887
  H   -1.99380135168620     -1.04561185689750      1.01809715648050
  N   1.57110658800519      0.46447388787863      1.10776657748017
  H   1.41130890653835     -0.29741187063768      1.75373786312057
  H   1.42852250871922      1.35062573355658      1.57471692910066
  C   1.35033445149652      0.68983116421376     -1.31381688580457
  N   1.76962067353014      1.01491322484940     -2.36591695520546
