13
Coordinates from ORCA-job run
  C   -0.63405953137410     -0.12414314566002     -0.10324370956924
  C   0.70408256473126      0.13492884017923      0.02591717143043
  N   -1.29300873019607     -0.21572383584387     -1.31478226227937
  H   -0.68372078183229     -0.19221872772318     -2.11984608132840
  H   -1.95275027636985     -0.97911222126805     -1.35337772432916
  N   -1.43461801133920     -0.30985940597425      1.00125440514254
  H   -2.34343799552393      0.12210817848215      0.91963337677635
  H   -0.93846254149613     -0.06165038821628      1.84741242930640
  N   1.22944105453901      0.38022388002434      1.33751133999075
  H   1.68272268419773      1.28487503895262      1.38457628899771
  H   1.91282534546443     -0.32213316990465      1.59407801506163
  C   1.53380577855565      0.13896055380016     -1.12902787725705
  N   2.21618044064350      0.14474440315183     -2.09110537194261
