13
Coordinates from ORCA-job run
  C   -0.63119183299438     -0.08737007456155     -0.14755320026128
  C   0.67558545801348      0.18286279184227      0.15821106479188
  N   -1.57693512575168      0.87884837906699     -0.43311634579517
  H   -2.47299953610880      0.70039883248052     -0.00330189627270
  H   -1.25968728513917      1.82612924316145     -0.28526577566665
  N   -1.09933958834199     -1.38142594214367     -0.19606470565784
  H   -1.73691806947536     -1.55219208647830     -0.96007930281097
  H   -0.33153238148687     -2.03928681056494     -0.15112268557874
  N   1.59436684620373     -0.91349618327057      0.26013491800136
  H   1.97432659417726     -0.98546922102995      1.19634669838937
  H   2.37012127487693     -0.79981615813309     -0.38132364400479
  C   1.08198860896210      1.52719263024034      0.38165648332605
  N   1.41321503706476      2.64462459939050      0.56247839153949
