13
Coordinates from ORCA-job run
  C   -0.61300598899934     -0.09003279887179     -0.10590646226792
  C   0.72138814261031      0.18415574087854     -0.00820560036452
  N   -1.23321416790677     -0.24728435128615     -1.34274341054764
  H   -0.78391090687300     -0.90407595709278     -1.96179509005511
  H   -2.22746875170543     -0.40464442621681     -1.29240973139656
  N   -1.37023516614715     -0.26457502520031      1.03365159091020
  H   -0.92152221701830      0.14219561246017      1.84401999599235
  H   -2.35206503259468     -0.05187921801535      0.94811179695471
  N   1.29596136064881      0.30084260938231      1.30142552281771
  H   1.87040712042505     -0.50347712308096      1.52699571736010
  H   1.88052111075186      1.12523432026621      1.35963451269345
  C   1.51814484226544      0.30479004255747     -1.17948894320156
  N   2.21599965454319      0.40875057421945     -2.12428989889522
