13
Coordinates from ORCA-job run
  C   -0.56112957308169     -0.03947124342558      0.00411788453156
  C   0.77564980108472      0.25675011620419     -0.01254528955766
  N   -1.04151810326066     -1.32851059948314     -0.14120881200360
  H   -1.81946940732579     -1.53801464845866      0.46726152525657
  H   -0.31968396495867     -2.03078947587022     -0.10792353682360
  N   -1.56405733956114      0.90063026829799      0.17446372693396
  H   -1.23081860910240      1.85428121130163      0.19193347517873
  H   -2.33531284743479      0.77765082671441     -0.46635923469358
  N   1.81865928654666     -0.71307439792205      0.00506881706179
  H   1.89920426075686     -1.25895151027471     -0.83997949680552
  H   1.82876151061045     -1.29831852832716      0.82750700283723
  C   1.15047894507050      1.63323719447663     -0.03897421154617
  N   1.40023604065593      2.78458078676666     -0.06136185036971
