13
Coordinates from ORCA-job run
  C   -0.63135334989215     -0.15198606663464     -0.07904722550564
  C   0.69888534445019      0.16201058222487     -0.00065443776161
  N   -1.28694921585887     -0.46286942339774     -1.25536030081089
  H   -2.19967590630161     -0.03726746902921     -1.32808513911481
  H   -0.73088301845334     -0.32808609449575     -2.08756451057424
  N   -1.42457935396753     -0.18369216998344      1.04598481295265
  H   -0.85883133934084     -0.12017273074703      1.88260700730701
  H   -2.08125847780571     -0.95048169774150      1.05613283325465
  N   1.29624332547965      0.28914940278314      1.29668117816458
  H   2.07639434565748     -0.34836402148749      1.40240810783878
  H   1.64133762466734      1.22918409416347      1.44942550866456
  C   1.44338258349702      0.36808196346732     -1.19481693726459
  N   2.05628743786837      0.53449363087800     -2.18871089715043
