13
Coordinates from ORCA-job run
  C   -0.61161186792796     -0.20422490961339     -0.06801300800250
  C   0.72648592827530      0.09379731433313      0.00286602993413
  N   -1.38633779118393     -0.17028583369302      1.06813468946924
  H   -0.89933469496078      0.30436785206361      1.81714682677294
  H   -2.34372451169045      0.11947623925439      0.94295477922773
  N   -1.21096999650828     -0.69089104747129     -1.20806688797732
  H   -0.71806424065160     -0.49731036444917     -2.06621645742114
  H   -2.20724661193530     -0.56375623836577     -1.27757088677070
  N   1.25674076263614      0.52829154279210      1.26301470986700
  H   1.74506636780497      1.40985369636621      1.16575060109072
  H   1.90958053306519     -0.14867531645323      1.64035735523350
  C   1.53871031644220     -0.04230669503588     -1.15301628360093
  N   2.19870580663450     -0.13833623972768     -2.12634146782268
