17

C	-0.495553	0.068736	-1.439515
C	0.0	0.0	0.0
F	-0.119239	-1.095245	-2.105347
H	1.091264	0.0	0.0
H	0.048371	0.894393	-1.911851
C	-1.990644	0.230579	-1.622482
H	-2.339912	1.181571	-1.215693
H	-2.220487	0.205139	-2.690051
H	-2.526649	-0.57958	-1.125794
N	-0.488124	-1.274543	0.607602
O	0.227174	-2.265367	0.52079
O	-1.610714	-1.265559	1.13041
C	-0.453984	1.186282	0.831101
H	-0.092512	2.102836	0.357479
H	0.00735	1.128052	1.818232
H	-1.535362	1.230675	0.949149
Br	3.557775	0.0	0.0
