16
Coordinates from ORCA-job run
  C   0.90165334135484      0.00223637149085      0.35483166326786
  C   -0.43793391232327     -0.37799227309392     -0.27715234389501
  F   0.73984235943374      0.23469643484535      1.68135024825128
  H   -0.22738471790970     -0.59525235959849     -1.32804000103283
  C   1.93583593582614     -1.01239133416301      0.14659248264011
  N   2.77428424368557     -1.81621122694813     -0.02542412550798
  N   1.38615029804090      1.30116458916351     -0.29026878182893
  O   1.66357874215338      1.20118501764870     -1.47910343283102
  O   1.40215550830029      2.30633195763727      0.40135665651140
  C   -1.43755470329317      0.77216042965045     -0.17166334777745
  H   -2.40167135133913      0.43747713034924     -0.55920690860188
  H   -1.57001457410992      1.07272280066557      0.87032451497494
  H   -1.13155141269538      1.64805402204004     -0.74846150711865
  N   -0.83371059449006     -1.61565060084516      0.37442482078279
  H   -1.47486558719839     -2.13638071693290     -0.20816312781154
  H   -1.28781357543583     -1.42315024190939      1.25860318997691
