16
Coordinates from ORCA-job run
  C   0.95252920292402     -0.09309219292435     -0.22085545444679
  C   -0.51974615050834     -0.42978736339099     -0.02672643756413
  F   1.47983337501114     -0.78828628543728     -1.27451753649165
  H   -0.56162358919390     -1.52377544638536      0.00688934689080
  C   1.17965000666056      1.34073058487912     -0.40695392363628
  N   1.29704432095966      2.48599996096553     -0.63821038706262
  N   1.74007969006677     -0.56350343514989      1.00421835486215
  O   1.40648666178960     -1.65361287365292      1.45487573244204
  O   2.66335474991633      0.14096502853468      1.39048617730331
  C   -1.34023958358052      0.08469693817246     -1.19825915303691
  H   -2.36449402243652     -0.28477842497920     -1.11420789733698
  H   -1.36273318126631      1.17742162619493     -1.20248777238312
  H   -0.93019085051781     -0.25851507264952     -2.14928930933453
  N   -0.90345656360175      0.18763993570666      1.23216111608352
  H   -0.94811964054686     -0.48809975596033      1.98202620801320
  H   -1.78937442567605      0.66699677607646      1.16085093569796
