16
Coordinates from ORCA-job run
  C   0.96345134330453     -0.07864741976722     -0.18381560217724
  C   -0.50897151021562     -0.44004521695765     -0.03904255183431
  F   1.54326666433016     -0.78273271592113     -1.20301084231365
  H   -0.53132948006022     -1.53381942135096      0.01328986331850
  C   1.17073984660110      1.35561917011565     -0.38843807360271
  N   1.28207101884020      2.49655489467969     -0.64310831926676
  N   1.70752515277530     -0.51242866161616      1.08136470523057
  O   1.40224605622247     -1.61916242098611      1.51089526174044
  O   2.57002619347535      0.23596272741346      1.52138598478295
  C   -1.29489451287241      0.03788215259349     -1.24895989581483
  H   -1.33699592224979      1.12980398999055     -1.27447130736270
  H   -0.84379644027308     -0.31390451546840     -2.17803661116951
  H   -2.31456947959385     -0.34938659742812     -1.19559318550268
  N   -0.94988552030391      0.18921228759394      1.19524399078286
  H   -1.83478375535424      0.66232115685081      1.08115517444561
  H   -1.02409965462598     -0.47822940974183      1.95014140874347
