16
Coordinates from ORCA-job run
  C   0.86640586528281     -0.05005173796566      0.43756581824083
  C   -0.46525681167615     -0.26537661097117     -0.30315793525300
  F   0.65620758671980      0.25294821343057      1.73510877569122
  H   -0.20808111819853     -0.37208861579360     -1.36327538343342
  C   1.74393688041177     -1.21744251488221      0.32429006958864
  N   2.41668069327170     -2.17389312066755      0.21616118757922
  N   1.58546674086413      1.13455960694558     -0.21042128699545
  O   1.67249526943886      2.16617305594283      0.43659142183259
  O   1.95880217615442      0.93644620711838     -1.36068800839621
  C   -1.37053048723857      0.94274476822107     -0.10873847270385
  H   -1.62459248582254      1.05506007314221      0.94692287308227
  H   -2.28949365661000      0.79603902538713     -0.67994014494640
  H   -0.90729712181953      1.86918725256841     -0.45142439467613
  N   -1.04914411669140     -1.47254981891481      0.25346200500405
  H   -0.96760755040116     -2.25947818823333     -0.37383069745640
  H   -2.01899186368562     -1.34227759532785      0.50137417284204
