16
Coordinates from ORCA-job run
  C   0.97477704494123     -0.12622521757051     -0.16427651775573
  C   -0.51440386057535     -0.41422886321025     -0.00186884405863
  F   1.49437163457199     -0.83509524911890     -1.20716457570102
  H   -0.56451556780564     -1.49490603093637      0.16157025045052
  C   1.24133151639078      1.30240525896608     -0.34936394945561
  N   1.35736435828982      2.45132517569087     -0.56416974547236
  N   1.69427996597595     -0.61448603635877      1.09203910068380
  O   1.58777438067778     -1.81547546738383      1.29944948945389
  O   2.30232509796811      0.20601864719682      1.76395781630170
  C   -1.28353187819007     -0.03624792470834     -1.26111396640397
  H   -0.88310900336569     -0.53716456190812     -2.14445785365042
  H   -2.32972031705587     -0.32648503141687     -1.14439463013596
  H   -1.24577872880726      1.04412816057292     -1.42764729600944
  N   -0.92127991469732      0.25933829563421      1.21969309358818
  H   -1.26625497619884      1.19202177495407      1.02744014559763
  H   -1.64362975211963     -0.25692293040302      1.70130748256742
