16
Coordinates from ORCA-job run
  C   0.92597220724552     -0.10770425570151     -0.17773964104755
  C   -0.57977865957215     -0.43778423559144     -0.03711482238689
  F   1.44260630586707     -0.70902108354835     -1.27828475394965
  H   -0.61090454131195     -1.53062415276669      0.05753753208879
  C   1.17471078753795      1.33341709858482     -0.22237226562088
  N   1.30076666945788      2.49792506115015     -0.31370449653607
  N   1.65182663785722     -0.69079986545399      1.03136031830131
  O   1.65338501286229      0.00400459367335      2.04257616564792
  O   2.08963290177228     -1.82371660108551      0.90465468703940
  C   -1.30430243006337     -0.01613820356477     -1.30724471609501
  H   -1.28595821648856      1.07194690990168     -1.41970191184765
  H   -2.34475018861896     -0.33203971966430     -1.22800905178484
  H   -0.86029481886820     -0.46607397334478     -2.19471429042368
  N   -1.22085306149456      0.14822181748677      1.11314051041253
  H   -1.25545582861796      1.15804455927839      1.04234239314297
  H   -0.77560277756451     -0.10065794935382      1.98627434305931
