16
Coordinates from ORCA-job run
  C   0.79016521712330     -0.07650623508477      0.42924614715968
  C   -0.50560024875231     -0.27649864983700     -0.38507065373722
  F   0.49478611926722      0.13407021332251      1.73693191727489
  H   -0.19212118598836     -0.44957788384302     -1.41866456966547
  C   1.69517178292947     -1.22138601111806      0.30584721674719
  N   2.35983168590346     -2.18373240755864      0.19549002871673
  N   1.51597299400666      1.15619254523985     -0.09667692542835
  O   1.95516393581818      1.03240112300709     -1.23405696306975
  O   1.53954616133957      2.14716106944068      0.61484683554753
  C   -1.37075647139107      0.97448535652514     -0.30840109607151
  H   -0.88826945042029      1.83834892001260     -0.76844209120653
  H   -1.60633831761740      1.22229665235211      0.72892994705573
  H   -2.30189758869229      0.77329635618218     -0.83749951294380
  N   -1.25106668286253     -1.43012460842662      0.06724274914757
  H   -1.49038499506150     -1.34665051247470      1.04749606950810
  H   -0.74420295560213     -2.29477592773933     -0.07721909903480
