16
Coordinates from ORCA-job run
  C   0.99875968587641     -0.33035378440549     -0.02736002153304
  C   -0.51193011774950     -0.50373933634202     -0.20666810478398
  F   1.53622577032871     -1.53376489324418      0.31487575589096
  H   -0.58324047204638     -1.31997277011183     -0.94492887957557
  C   1.67235417122151      0.18435047635598     -1.22067168332847
  N   2.18414195911056      0.55852736368225     -2.20954463461326
  N   1.27431998094385      0.63181808230290      1.12815669586184
  O   1.04586852317693      1.80797720522233      0.87525997501063
  O   1.66363052290266      0.15051256403640      2.17602769278017
  C   -1.21694384740268      0.72356573373942     -0.75991273629269
  H   -1.20131067868553      1.53416862388564     -0.03268902063126
  H   -0.76077481062456      1.06990946257839     -1.68834288228873
  H   -2.25648648707247      0.46326713987015     -0.97483637967423
  N   -1.04382960302066     -0.84219824176622      1.10198448433467
  H   -2.05531309704838     -0.82834392673865      1.07786417716393
  H   -0.74447149991048     -1.76572369906505      1.38978556167905
