16
Coordinates from ORCA-job run
  C   1.00427617846332     -0.31460058218412     -0.02516578049790
  C   -0.50311001915875     -0.51197201374881     -0.20898888983210
  F   1.55928595861075     -1.50957449094879      0.31852794303837
  H   -0.55900560542354     -1.32632721653749     -0.95061778743643
  C   1.67349668893760      0.21046311823528     -1.21652089753811
  N   2.18437682782785      0.59218293035223     -2.20296777849611
  N   1.26212786519805      0.65171906968613      1.13070102097081
  O   1.65182629880481      0.17621036138012      2.18101472588164
  O   1.01960523699325      1.82469194983595      0.87589294402700
  C   -1.22644473430133      0.70586389323342     -0.75931255554518
  H   -2.26149990200419      0.42988589955656     -0.97632913361285
  H   -0.77442478824561      1.06226791432245     -1.68592656515646
  H   -1.22456817362644      1.51471676808567     -0.02997785477417
  N   -1.03218268408552     -0.86477152289110      1.09688058415894
  H   -0.72925981656245     -1.78948155001310      1.37674876993533
  H   -2.04349933142780     -0.85227452836442      1.07604125487721
