16
Coordinates from ORCA-job run
  C   0.74756485208741     -0.00163111215516      0.50603517007334
  C   -0.47273616746018     -0.33832689313373     -0.37694336285463
  F   0.33903323249597      0.42654463605373      1.72735876710656
  H   -0.07036577283287     -0.68409918560430     -1.33349187265775
  C   1.64378230783075     -1.14981131359321      0.66037975344269
  N   2.30166594750957     -2.11598313613800      0.77760039120871
  N   1.53415434469979      1.12543267424441     -0.15230984461773
  O   1.50581694111396      2.22269551855664      0.38058609030878
  O   2.07186615921605      0.81217433159883     -1.20794086875942
  C   -1.32327532236659      0.90638614500056     -0.59254997196780
  H   -1.64765538468802      1.32721065301698      0.36177043544892
  H   -2.20580657306110      0.61646714087946     -1.16221168441769
  H   -0.78910376312369      1.67981020866599     -1.14684659774290
  N   -1.27228743114231     -1.39932114888662      0.19453981705070
  H   -1.59463572632580     -1.15197398503422      1.12209713232972
  H   -0.76701764395291     -2.27557453347137      0.24292664604849
