16
Coordinates from ORCA-job run
  C   0.98816474919332     -0.35214578260395     -0.06155731975483
  C   -0.53047182559098     -0.48764065723188     -0.20282290156903
  F   1.50647185779014     -1.57411473640312      0.24237983003877
  H   -0.64007612569185     -1.28549684542725     -0.95633271431216
  C   1.64249303626106      0.17021263402985     -1.26235865248738
  N   2.15336161974817      0.54415132461831     -2.25177378157492
  N   1.31796717412957      0.58021740492666      1.10396632088997
  O   1.71835092365361      0.06884972317494      2.13317540900217
  O   1.11614017230744      1.76679901001288      0.87837124362503
  C   -1.22030272823563      0.76763103072310     -0.71054794241788
  H   -0.78439941172193      1.11933512940100     -1.64668456520107
  H   -2.27251459942655      0.53826578728772     -0.89715725724988
  H   -1.16093803506168      1.56401722892840      0.02993092182744
  N   -1.03466888902265     -0.84264361177686      1.11231036228397
  H   -2.04538655617695     -0.79874294369371      1.11878878113906
  H   -0.75419136215510     -1.78069469596611      1.37031226576076
