16
Coordinates from ORCA-job run
  C   0.97874475041123     -0.12360950173876     -0.14270292861675
  C   -0.51202633846574     -0.41628049216673     -0.00449148210204
  F   1.52288440674073     -0.84863020356702     -1.16167536187008
  H   -0.56078524466984     -1.49383141424104      0.17899252005152
  C   1.24127556517337      1.30279621047399     -0.34884815722026
  N   1.35513964476061      2.44817936000259     -0.58294755617621
  N   1.67489095897767     -0.58490209360989      1.13660899364916
  O   1.56917003317724     -1.78223192274829      1.36463198933643
  O   2.26552973801860      0.25080827321267      1.80533208054940
  C   -1.25807284589823     -0.06714683623493     -1.28586003581320
  H   -1.22260841303540      1.00995899426623     -1.47329780396294
  H   -0.83799320511024     -0.58347460996520     -2.15108318499956
  H   -2.30482376647948     -0.36096729594186     -1.18358817619673
  N   -0.94627129683435      0.27858655309846      1.19543588727645
  H   -1.29229479073810      1.20556185625311      0.97917971228424
  H   -1.67375919602809     -0.23281687709334      1.67431350381059
