16
Coordinates from ORCA-job run
  C   0.92218021388849     -0.17907307022177     -0.14216238142768
  C   -0.60617210173152     -0.39986692064791     -0.03079539922222
  F   1.42751830655737     -0.87861718459732     -1.18855400228529
  H   -0.71381110745870     -1.48060816869135      0.12572856777613
  C   1.26803032362813      1.23741875562349     -0.26263173626361
  N   1.46791510986733      2.38571361318122     -0.41015686953863
  N   1.57139651655390     -0.73499710082104      1.12175229480364
  O   1.59440632879461      0.01859946911812      2.08965722127099
  O   1.93056464468492     -1.90137840556936      1.07694269143199
  C   -1.26465847629716     -0.00819150583375     -1.34575439421269
  H   -1.16865775614937      1.06742108646461     -1.52108885671591
  H   -0.82837484705528     -0.53981456935580     -2.19085719362630
  H   -2.32606093780083     -0.24856787319939     -1.28079082793954
  N   -1.23790149571511      0.29496687200069      1.06245127992260
  H   -0.83691490613651      0.06807181743916      1.96262979907516
  H   -1.19945981563029      1.29892318511041      0.93362980695135
