16
Coordinates from ORCA-job run
  C   0.95657123075206     -0.36245483247042     -0.07003597660372
  C   -0.57021580096770     -0.52192678377242     -0.27457741232678
  F   1.47509313521945     -1.56349370088597      0.30497822191256
  H   -0.63346981144593     -1.24389041193374     -1.09844209361466
  C   1.65457322232924      0.12231722227254     -1.25957457660053
  N   2.19046395414466      0.44415454692225     -2.25440823714544
  N   1.20679388656447      0.61314331636389      1.06963193912324
  O   1.27437495598907      0.13300297045453      2.19270901095475
  O   1.23862414900454      1.79970183194624      0.76223905668600
  C   -1.24168337187271      0.77602003925560     -0.69056046910269
  H   -0.76386940474510      1.22385297322772     -1.56307001579426
  H   -1.22257631392354      1.50868857214713      0.11926260552344
  H   -2.28260275634461      0.55780465669045     -0.92957527935005
  N   -1.23473604483484     -1.09817266492982      0.86847126609015
  H   -1.27544526545597     -0.44842219827681      1.64422356319195
  H   -0.77189576441308     -1.94232553701118      1.18072839705605
