16
Coordinates from ORCA-job run
  C   0.99208504604489     -0.34409217665025     -0.06261542600121
  C   -0.52447467447353     -0.48711940415703     -0.21738747322453
  F   1.51667445687018     -1.56886613220513      0.21820032859456
  H   -0.62330602008365     -1.26843818637406     -0.98948450277134
  C   1.65024430737418      0.20974366022439     -1.24710660554075
  N   2.15098399438960      0.61836141381629     -2.22799699488107
  N   1.30779868835598      0.56495575042443      1.12531654314680
  O   1.09373558282186      1.75400013464067      0.92579319118168
  O   1.71138350506177      0.03481052926834      2.14359703856111
  C   -1.22153521199912      0.77369607058993     -0.70078569103467
  H   -1.17764711887718      1.55128501767655      0.06038753307682
  H   -2.26939826599189      0.53865480779390     -0.90393585420682
  H   -0.77972459557038      1.15377753437355     -1.62281303856068
  N   -1.03402032100118     -0.87597107658363      1.08593037079267
  H   -0.74991644556027     -1.81815601507145      1.32388437425135
  H   -2.04488292736126     -0.83664192776651      1.08901620661606
