16
Coordinates from ORCA-job run
  C   0.96707791822045     -0.34036026449276     -0.06229791470998
  C   -0.55278840949104     -0.53124196634738     -0.28942840857852
  F   1.50800012401665     -1.53485274158373      0.30174369189536
  H   -0.58918924653807     -1.24302843451226     -1.12376455900581
  C   1.66856102810361      0.17941011853076     -1.23480383846199
  N   2.18871753516632      0.54174232154897     -2.22401542510316
  N   1.17989472297404      0.62307268341086      1.09582415276940
  O   1.24724243068197      0.12673241287043      2.21186028864337
  O   1.18381241643262      1.81480148923341      0.80745722127120
  C   -1.24920393510269      0.75629560945502     -0.69679603748925
  H   -2.28116404446480      0.51692880568684     -0.95357453785102
  H   -1.25896156401260      1.47760166994194      0.12332836206361
  H   -0.77012250244563      1.22769711763718     -1.55603267903977
  N   -1.21835889904886     -1.13835088524037      0.83707220293336
  H   -0.74108270286450     -1.97670141512735      1.14309319560682
  H   -1.28343487162748     -0.50074652101158      1.62133428505639
