12

C	0.0	0.0	0.0
C	-0.337164	0.016262	-1.486546
Cl	1.776143	0.0	0.0
H	0.198374	-0.817344	-1.965379
H	0.048198	0.945032	-1.90225
H	-1.414824	-0.059504	-1.583122
C	-0.449741	1.176122	0.744174
N	-0.748488	2.158935	1.312563
N	-0.451828	-1.265798	0.695867
O	-0.500465	-2.268242	-0.005524
O	-0.566051	-1.225487	1.901209
F	-2.392539	0.0	0.0
