12

C	0.0	0.0	0.0
C	-0.383743	-0.370996	-1.428555
Cl	1.761533	0.0	0.0
H	0.105482	-1.310813	-1.685193
H	-0.011519	0.418481	-2.086517
H	-1.47076	-0.431997	-1.427971
C	-0.493935	1.304137	0.428823
N	-0.612174	2.438728	0.713226
N	-0.429626	-1.061583	0.997804
O	-0.529544	-0.707813	2.163474
O	-0.489636	-2.21191	0.585524
F	-2.422589	0.0	0.0
