12

C	0.0	0.0	0.0
C	-0.360939	0.085938	-1.477228
Cl	1.7766	0.0	0.0
H	0.034048	1.030067	-1.861807
H	0.113935	-0.746964	-2.001988
H	-1.448492	0.049853	-1.506459
C	-0.515692	1.111359	0.788942
N	-0.657042	2.116991	1.382551
N	-0.431804	-1.322255	0.608795
O	-0.538679	-2.270635	-0.155207
O	-0.515951	-1.362626	1.825676
F	-2.413118	0.0	0.0
