12

C	0.0	0.0	0.0
C	-0.383956	-0.02382	-1.477475
Cl	1.761538	0.0	0.0
H	-0.044271	0.915505	-1.919898
H	0.129311	-0.855	-1.959261
H	-1.469627	-0.110439	-1.488425
C	-0.504209	1.163825	0.720741
N	-0.619151	2.196664	1.271972
N	-0.436826	-1.267589	0.714789
O	-0.547141	-1.201643	1.930314
O	-0.50898	-2.283225	0.038287
F	-2.425448	0.0	0.0
