14

C	-0.416389	0.073746	-1.46264
C	0.0	0.0	0.0
F	-0.447654	1.418122	-1.853178
H	1.096134	0.0	0.0
H	-1.436115	-0.298836	-1.620678
H	-0.297608	-0.994267	0.35876
N	0.468595	-0.624	-2.354355
H	0.232655	-1.606015	-2.362256
H	1.423095	-0.534312	-2.010226
C	-0.584586	1.085448	0.890785
H	-0.275888	0.934875	1.928522
H	-0.228894	2.065518	0.572879
H	-1.680126	1.094137	0.856936
Cl	3.56856	0.0	0.0
