14

C	-0.513297	-0.140771	-1.417987
C	0.0	0.0	0.0
F	-0.15752	-1.402208	-1.879281
H	1.092821	0.0	0.0
H	-0.027962	0.587643	-2.07536
H	-0.344279	-0.874615	0.565507
N	-1.94475	-0.015101	-1.592167
H	-2.199213	0.960533	-1.668344
H	-2.419399	-0.40176	-0.783804
C	-0.471656	1.293657	0.658715
H	-0.002943	1.405175	1.637933
H	-1.557478	1.332929	0.792955
H	-0.170177	2.159589	0.061385
Cl	3.633115	0.0	0.0
