14

C	-0.490007	0.092853	-1.428033
C	0.0	0.0	0.0
F	-0.316538	-1.126169	-2.082324
H	1.093057	0.0	0.0
H	0.128714	0.801405	-1.993658
H	-0.296594	0.926844	0.510114
N	-1.909047	0.383101	-1.490272
H	-2.115783	1.16313	-0.880566
H	-2.164348	0.643011	-2.434922
C	-0.552419	-1.212604	0.738125
H	-0.214985	-2.127768	0.250877
H	-0.179595	-1.226141	1.764807
H	-1.644998	-1.216756	0.756026
Cl	3.662464	0.0	0.0
