14

C	-0.4622	0.015812	-1.442403
C	0.0	0.0	0.0
Br	-0.808904	-1.725948	-2.18202
H	1.106721	0.0	0.0
H	-1.368376	0.611626	-1.555628
N	0.577555	0.760679	-2.302545
O	1.018901	1.773514	-1.78224
O	0.825809	0.357467	-3.431548
C	-0.357501	-1.169198	0.763355
N	-0.586569	-2.128168	1.407425
N	-0.45014	1.182074	0.72087
O	-1.019555	2.10186	0.107915
O	-0.130567	1.227145	1.918316
H	2.330388	0.0	0.0
