14

C	-0.595221	-0.019863	-1.387742
C	0.0	0.0	0.0
Br	-0.033471	-1.618098	-2.340574
H	1.103159	0.0	0.0
H	-1.683053	0.000291	-1.405533
N	-0.173132	1.15797	-2.235437
O	-1.004256	1.526421	-3.06185
O	0.947978	1.613616	-2.073754
C	-0.361941	-1.179847	0.751997
N	-0.6042	-2.164193	1.349931
N	-0.414479	1.178422	0.718575
O	-0.086068	1.242284	1.914438
O	-0.952757	2.105506	0.074067
H	2.320064	0.0	0.0
