14

C	-0.368556	0.178591	-1.446861
C	0.0	0.0	0.0
Br	0.353471	1.719919	-2.362651
H	1.107035	0.0	0.0
H	0.015809	-0.683753	-1.989756
N	-1.858824	0.160199	-1.680573
O	-2.270212	-0.653273	-2.508444
O	-2.546116	0.946622	-1.038165
C	-0.439643	-1.305122	0.435806
N	-0.718025	-2.414207	0.718834
N	-0.389038	1.026599	0.951785
O	-0.65047	0.657747	2.105324
O	-0.272518	2.202057	0.59913
H	2.356509	0.0	0.0
