14

C	-0.335801	-0.084766	-1.45731
C	0.0	0.0	0.0
Br	-2.238111	-0.240217	-1.855684
H	1.089931	0.0	0.0
H	0.023079	0.804516	-1.964628
N	0.351178	-1.252213	-2.111971
O	0.76091	-1.056119	-3.253132
O	0.429527	-2.300013	-1.484031
C	-0.527526	-1.037845	0.848568
N	-0.927897	-1.893936	1.548555
N	-0.306194	1.318915	0.526374
O	-0.229237	2.274218	-0.263316
O	-0.437971	1.429639	1.752323
H	2.353014	0.0	0.0
