14

C	-0.365839	-0.081772	-1.456602
C	0.0	0.0	0.0
Br	0.369647	1.266078	-2.632987
H	1.095862	0.0	0.0
H	0.01657	-1.02868	-1.837951
N	-1.856995	-0.129813	-1.697229
O	-2.565369	0.62363	-1.039729
O	-2.244675	-0.925135	-2.551552
C	-0.457868	-1.203868	0.655712
N	-0.758453	-2.246389	1.112119
N	-0.394844	1.188722	0.741685
O	-0.71123	1.038157	1.928682
O	-0.238853	2.27688	0.183877
H	2.379901	0.0	0.0
