11

C	-0.550726	-0.078478	-1.41317
C	0.0	0.0	0.0
Cl	-0.435601	1.488812	-2.28078
H	1.092242	0.0	0.0
H	-1.604628	-0.353531	-1.396505
H	0.008348	-0.809242	-1.993348
H	-0.351302	0.917776	0.484652
N	-0.442018	-1.22038	0.698268
H	-1.154372	-1.002065	1.379568
H	0.350557	-1.602576	1.195618
Cl	3.567367	0.0	0.0
