13
Coordinates from ORCA-job run
  C   -0.84682582613725     -0.96209909131382     -0.51236273190780
  C   -0.03246162598677     -0.03635844560348      0.36979390233773
  F   -0.22880202615856     -2.20602380928647     -0.59273252135734
  H   0.11282626958692     -0.54576215090527      1.33554409183909
  H   -1.84958066607622     -1.11640240427459     -0.10260899262272
  H   -0.92593526735272     -0.54716901520305     -1.51990573716508
  N   -0.78762826339910      1.21199222782196      0.48112202963756
  H   -0.20012548558974      1.93474270288906      0.87836036582548
  H   -1.57635295375822      1.09146901951631      1.10602262228532
  C   1.32867251504615      0.23998497164109     -0.24425155509789
  H   1.85801159406358     -0.69329004343915     -0.43898211223724
  H   1.94376580028925      0.84701890172559      0.42606160870000
  H   1.20543593547268      0.78289713643184     -1.18506097023710
