13
Coordinates from ORCA-job run
  C   -0.82277212106905     -1.02051257952722     -0.46020954430582
  C   -0.02038503834757     -0.04325096487168      0.37581954178381
  F   -0.90771865033004     -0.60504962001999     -1.77857023154306
  H   0.14213348702334     -0.54949336566001      1.34491607064349
  H   -1.84385807269293     -1.11629677453876     -0.07639685090499
  H   -0.34337227543785     -2.00442158126372     -0.44954243771267
  N   -0.75666070270146      1.21225642060821      0.50347897236444
  H   -1.60562510382516      1.07053060085882      1.03860291404660
  H   -0.19456396493063      1.89054256570971      1.00334484760013
  C   1.33439940440367      0.23610351314955     -0.25699835307697
  H   1.93092111068303      0.89275971083800      0.38199664430669
  H   1.89743995594745     -0.68822739245951     -0.40662870052698
  H   1.19106197127718      0.72405946717660     -1.22081287267466
