13
Coordinates from ORCA-job run
  C   -0.80143801361661     -0.95939570947609     -0.62646511879455
  C   -0.09001884352287     -0.10796014890290      0.40482926996081
  F   -1.98897106934676     -1.46025938477569     -0.12470983143329
  H   -0.04446356053744     -0.69941894995837      1.32587265086441
  H   -1.03641223375417     -0.36396601882917     -1.51631829132858
  H   -0.17782622819297     -1.80937103063432     -0.91877015987000
  N   -0.89742266266507      1.07405376707403      0.69426999185535
  H   -0.51692183714056      1.56453838353499      1.49459107256891
  H   -0.86075535775343      1.71230379688970     -0.09368232406784
  C   1.33266174690036      0.19671443239193     -0.06950213501328
  H   1.31156639569551      0.73313208627377     -1.02397988057048
  H   1.92632889559509     -0.71235381303458     -0.20307864098629
  H   1.84567276833893      0.83098258944669      0.65694339681484
