13
Coordinates from ORCA-job run
  C   -0.79037645871038     -0.90278882573382     -0.52000225685030
  C   0.04290705796849     -0.06971636781975      0.43577321541393
  F   -2.04217533814260     -1.14216154003369      0.04596138891680
  H   0.15545546250638     -0.65188686498421      1.35783128243039
  H   -0.95220138674501     -0.36502027694170     -1.46038939671215
  H   -0.32988941667308     -1.87388263059272     -0.72494271541247
  N   -0.58986654294148      1.19249141752005      0.80649797832600
  H   -1.52656889218481      1.00643795057202      1.14588315652162
  H   -0.68178917648271      1.77849356041216     -0.01723282429436
  C   1.41802049061251      0.19907053029122     -0.15486875646923
  H   1.95333780544519     -0.72844836892186     -0.37168167694264
  H   2.00821756652300      0.78938773530105      0.54661114253173
  H   1.33392882882450      0.76702368093124     -1.08744053745932
