13
Coordinates from ORCA-job run
  C   -0.87413522906993     -0.94666932995719     -0.56379280331203
  C   -0.07396677998240     -0.10731624930172      0.41350562355513
  F   -0.16063567892305     -2.08683502012792     -0.91907686956934
  H   0.03805233242911     -0.69540050260720      1.33105705776379
  H   -1.07663032349028     -0.38111638750006     -1.48018898486338
  H   -1.81764608137476     -1.25569829428495     -0.11192785500931
  N   -0.90610068010731      1.05163301785334      0.74039191059429
  H   -0.85565624647650      1.72702262174295     -0.01483040356793
  H   -0.55052486652498      1.51011988251760      1.56990448280168
  C   1.30900549782919      0.22783568216357     -0.13451884081221
  H   1.87724521372583     -0.67638872891586     -0.35980613586972
  H   1.21789565602354      0.81038130904486     -1.05761674120135
  H   1.87409718594154      0.82243199937259      0.58789955949039
