13
Coordinates from ORCA-job run
  C   -0.82940538681934     -1.00861730001782     -0.51641792912454
  C   -0.06001428301242     -0.13421834364699      0.44838220855975
  F   -1.02040810717713     -0.31492433483663     -1.71420733559353
  H   0.05957603146372     -0.72257059565315      1.36718388792762
  H   -0.28415207370346     -1.92625251890261     -0.75132534685275
  H   -1.81587880228317     -1.24232592148565     -0.11277490983735
  N   -0.89972630549681      1.01757851774865      0.77458563889768
  H   -1.08191525728254      1.53529201069060     -0.07781937514518
  H   -0.40447878517749      1.63905420380082      1.40293447008069
  C   1.32228621262265      0.21907077252972     -0.10163386934092
  H   1.86655887927226      0.84700596765367      0.60831576950193
  H   1.92337911626615     -0.67598996571532     -0.28880129915379
  H   1.22417876132758      0.76789750783471     -1.04042190991962
