13
Coordinates from ORCA-job run
  C   -0.82240602213759     -0.94113260679711     -0.43500108433959
  C   0.04283450155124     -0.06989389727753      0.46030914396714
  F   -1.06019786673796     -0.27530980869789     -1.63775942203072
  H   0.18867038600103     -0.62479563395385      1.39604753592096
  H   -1.79571981683108     -1.13277258448485      0.02689951706470
  H   -0.33722999363856     -1.89266084606241     -0.67318353703090
  N   -0.57867317534122      1.20871666181542      0.80179968148432
  H   -1.44887111013934      1.05273133163853      1.29852675898943
  H   -0.81101846274297      1.69295254224511     -0.05852337298012
  C   1.40188760542125      0.19247101241988     -0.17449271004903
  H   1.93200862159447     -0.74114694230329     -0.37890836263159
  H   1.28086100163057      0.72521207916482     -1.12037724230483
  H   2.00685433137015      0.80662869229316      0.49266309394024
