16
Coordinates from ORCA-job run
  C   0.86411209547288     -0.44246402514497      0.03293063994431
  C   -0.61911373584405     -0.21168903258321     -0.25107859122827
  F   1.04027686237030     -1.84786080792586      0.10089491629715
  H   -0.77953485949999     -0.61572200473612     -1.26737419986926
  N   1.68409397810535      0.13802353034434     -0.96174795284584
  H   1.45414669124077     -0.23842833674088     -1.87322286960565
  H   2.66596257414053     -0.01302497345543     -0.76850717163769
  C   1.24679964498944      0.08013226692629      1.35775149856178
  N   1.58304134238575      0.51589041113098      2.39395662848913
  C   -0.96804099595659      1.26694930707074     -0.23323954988499
  H   -2.02053245517655      1.40244897718337     -0.49683514428119
  H   -0.35826763286715      1.82554527946914     -0.94242649796378
  H   -0.81402914281710      1.67215558789304      0.76910706491922
  N   -1.37611143494005     -0.90896743021686      0.77523810692694
  H   -1.23840413586414     -1.90848070630230      0.69738707675360
  H   -2.36339879573940     -0.71350804291227      0.66816604542457
