16
Coordinates from ORCA-job run
  C   0.90395026625910     -0.17300454902586      0.33529471510622
  C   -0.44580325814793      0.04557702081499     -0.37142466536223
  F   0.60636406640253     -0.32626177023865      1.71289217731590
  H   -0.19871640882929      0.32833772916208     -1.40111186599468
  N   1.57891640214730     -1.29565744016165     -0.15188826858351
  H   2.54435379950667     -1.19302593262831     -0.40683147000217
  H   1.00827955504642     -1.88441190993575     -0.73836375476363
  C   1.73752657636780      1.04134046377593      0.24305887021400
  N   2.39546866199964      2.00684809595214      0.12887394202198
  C   -1.26641933415814      1.15222611340566      0.28037104378527
  H   -2.19283794247992      1.30215703601694     -0.27983758090037
  H   -1.51980694032207      0.88202007208831      1.30647980372934
  H   -0.72565096450085      2.10209707512624      0.29767949899954
  N   -1.09999930365889     -1.25948308308270     -0.43265356684667
  H   -1.40137256078416     -1.52510423324620      0.49886107820435
  H   -1.92325261484818     -1.20365468802317     -1.01939995692334
