16
Coordinates from ORCA-job run
  C   0.90733247711504     -0.22236662986434      0.29709435012901
  C   -0.45046810054425      0.09605028023141     -0.35447144068780
  F   0.62985635082639     -0.54461501824518      1.64863545468234
  H   -0.21560543264326      0.50605866029711     -1.34339487980148
  N   1.56249232833289     -1.28111282445832     -0.33841526732206
  H   2.52388304358233     -1.15385326167149     -0.59782539950454
  H   0.97608486722068     -1.78517297841073     -0.98523344201075
  C   1.75211407257656      0.98723910142640      0.34202138749196
  N   2.41689593779268      1.95475378714262      0.33553662377458
  C   -1.24926919494463      1.11760296280468      0.44639474117937
  H   -0.69723454622978      2.05204913078980      0.57684877239850
  H   -1.49116256383274      0.72047669025324      1.43324287759867
  H   -2.18180204974499      1.34736896123798     -0.07518085694061
  N   -1.11978300708128     -1.18426421185993     -0.57182803762904
  H   -1.41344577071100     -1.56364242008357      0.32196284026873
  H   -1.94888841171465     -1.04657222958968     -1.13638772362687
