16
Coordinates from ORCA-job run
  C   0.92149567419401     -0.28873201576032     -0.33966846496859
  C   -0.60851873935754     -0.25920341193394     -0.20226295777300
  F   1.24352029502821     -0.32237789366418     -1.68858667924023
  H   -0.97373307111721     -1.15879557371174     -0.71857488484861
  N   1.49021395737685      0.87158007920149      0.24938608420744
  H   2.48796431561313      0.77663689350235      0.38770527221387
  H   1.02638031861269      1.03420570466011      1.13670870758133
  C   1.42995766273911     -1.56615309915122      0.23199822523830
  N   1.79283617246107     -2.55455106201013      0.75361235863345
  C   -1.18665015060333      0.97203470584507     -0.88074444350713
  H   -0.83624007473032      1.04217414082578     -1.90985200073450
  H   -2.27808650543147      0.90586823238580     -0.89259666164451
  H   -0.89114873983843      1.87774047957059     -0.35102418695323
  N   -0.91336617448169     -0.24281485147365      1.22685214336344
  H   -0.84745876899288     -1.17457677698868      1.62099170294576
  H   -1.85816617147219      0.08796444870267      1.37605578548620
