16
Coordinates from ORCA-job run
  C   0.91481633473899     -0.47614443676057      0.01666291132646
  C   -0.58374183464623     -0.31367416945048     -0.27875437098673
  F   1.21705414751243     -1.84035497494377     -0.05316986364514
  H   -0.72860656212386     -0.80642574183308     -1.24861855276673
  N   1.71255053261870      0.28267443366353     -0.87998435302167
  H   2.69761394860602      0.14557661388713     -0.68840106265441
  H   1.52062569595040      0.00004106193791     -1.83436937721229
  C   1.19869344115103     -0.05062610690990      1.40305493102347
  N   1.38174652270277      0.31144602173338      2.50423427519023
  C   -0.98565095943100      1.15552289480341     -0.36981808951817
  H   -0.44217001689800      1.69010515726908     -1.14851507643530
  H   -0.78728639661567      1.65797702075511      0.58170545908464
  H   -2.05716299118912      1.22383609509808     -0.57165408453578
  N   -1.32338223007761     -1.07806450076005      0.71639215057709
  H   -2.19935412983986     -1.40570335307128      0.33286940601429
  H   -1.53374550245899     -0.49618601541851      1.51936569756006
