16
Coordinates from ORCA-job run
  C   0.81910883033070     -0.23519643707694      0.30238807668929
  C   -0.56669036584183      0.05536919837471     -0.28130612043262
  F   0.72948216603113     -0.48246510218196      1.65370602498892
  H   -0.39094591402780      0.26895628241975     -1.35244760701905
  N   1.37346011752312     -1.42291906820667     -0.29668071532864
  H   1.55195462700046     -1.26678887089484     -1.28219078131745
  H   2.25099761067246     -1.65514121573492      0.15526139517101
  C   1.69712043058449      0.95625090458213      0.14557189719702
  N   2.41398065658239      1.86742289573128     -0.04337480323076
  C   -1.19842393769177      1.27772416047051      0.36667183376196
  H   -0.62168621315225      2.18569002827021      0.17779022052424
  H   -2.20297584951403      1.42828667533533     -0.03589748986669
  H   -1.28417889632872      1.11303959929891      1.44102661128506
  N   -1.39981256156091     -1.11185418615864     -0.04199934458198
  H   -0.91218844537205     -1.94898821878092     -0.33618499495934
  H   -2.25920225523537     -1.02938664544795     -0.57033420288098
