16
Coordinates from ORCA-job run
  C   0.94011695021372     -0.27788109880028     -0.29515167330224
  C   -0.59478379445834     -0.27125827467984     -0.22587181182915
  F   1.32217612126484     -0.32189823829673     -1.62778269261133
  H   -0.92329841389366     -1.18297672147104     -0.74562428910381
  N   1.46369036806187      0.89819659562160      0.30447824622256
  H   0.95646088760397      1.06484120850453      1.16691564981957
  H   2.45508914700832      0.82031904740361      0.49068408466397
  C   1.44259282693477     -1.53996072041005      0.31447414574799
  N   1.79764921982315     -2.51581244378886      0.86429703697440
  C   -1.16118828433331      0.94187384823500     -0.94570723276331
  H   -0.90186045646447      1.85916365133544     -0.41692467226898
  H   -0.76839052449424      1.00308038462058     -1.96001572977722
  H   -2.25006927190994      0.85891750119464     -1.00285875827600
  N   -0.96309971671076     -0.24142399738117      1.18810377314284
  H   -0.89710433289433     -1.16648329279024      1.59785549600059
  H   -1.91998072575160      0.07230255070283      1.29012842736011
