16
Coordinates from ORCA-job run
  C   0.83786078658268     -0.46921529710601     -0.26276802794055
  C   -0.66307180582460     -0.15129729189372     -0.14200687308615
  F   1.08602567619680     -0.59864092486001     -1.65290030162811
  H   -1.14314963090639     -0.86762165716679     -0.82567247872671
  N   1.67740626614490      0.48136119808795      0.34357815073288
  H   2.65417414773832      0.24356136286100      0.23234073269916
  H   1.50285784182240      1.41241794999473     -0.00692721519659
  C   1.11118729042090     -1.80192666009855      0.31387681389824
  N   1.27604946117246     -2.87072619337530      0.76995599657735
  C   -0.96340639100316      1.25714525979774     -0.63203073238927
  H   -0.50244132655474      1.44381402705453     -1.60326563218213
  H   -2.04274621657652      1.38507062246705     -0.74535519762254
  H   -0.61707452064954      1.99394423641394      0.09668779912740
  N   -1.08143951753150     -0.28989005352662      1.24371673409251
  H   -1.12232671517391     -1.26623107347979      1.51258130532487
  H   -2.00990534585807      0.09723449482985      1.35818892631965
