16
Coordinates from ORCA-job run
  C   0.86357346694268     -0.44919271718320     -0.20304693300523
  C   -0.65682016817667     -0.27223233233479     -0.20847780468966
  F   1.28937018889998     -0.43972109775016     -1.54760850473819
  H   -1.04313314076544     -1.07366675619090     -0.84682203068877
  N   1.50063364251401      0.56408622099089      0.55956031085666
  H   2.48585421241200      0.36839871513977      0.68460118447178
  H   1.39631981358708      1.46172781027798      0.10318225964661
  C   1.23306891249361     -1.77189047694827      0.33632551554617
  N   1.56540756523922     -2.83467073976132      0.70604828958255
  C   -1.05930176417579      1.07515190619508     -0.80831302773497
  H   -0.78506407556921      1.89747091887322     -0.14143812256599
  H   -0.60338012021033      1.23601696995141     -1.78775780695109
  H   -2.14449955628021      1.10720033330285     -0.93006724659429
  N   -1.11565036953521     -0.52296065967363      1.14669206967553
  H   -0.80144126641314      0.22161858050011      1.75736419017979
  H   -2.12593734096257     -0.56833667538899      1.17875765700912
