16
Coordinates from ORCA-job run
  C   0.85637433020838     -0.45909494503324      0.04731008024298
  C   -0.61775706243301     -0.20122104699618     -0.26017309808860
  F   1.00498033204993     -1.86702241072763      0.12197875330069
  H   -0.77030213279941     -0.60549100943552     -1.27751325647730
  N   1.70224260476490      0.10279423490132     -0.93649816114075
  H   1.47873345156025     -0.27177516780765     -1.85040535810348
  H   2.67787365282570     -0.06763153185012     -0.72810924887465
  C   1.22789653521869      0.06087794975451      1.37634265941559
  N   1.54325026146315      0.49320472735058      2.42048180878141
  C   -0.93922070921854      1.28361705795955     -0.25232547866251
  H   -1.98400651890982      1.43792879999075     -0.53557802808102
  H   -0.30623102429446      1.82854918600846     -0.95161272957732
  H   -0.79576690857256      1.68879720767125      0.75150161200903
  N   -1.40350855826923     -0.88092906425632      0.75623611457818
  H   -1.28914829657115     -1.88329946918981      0.67962253570261
  H   -2.38440995702283     -0.66130451833992      0.63874179497516
