16
Coordinates from ORCA-job run
  C   0.82467946781333     -0.46355961247533      0.00413990381819
  C   -0.65514576360696     -0.21114260656026     -0.33765997963784
  F   0.99348290162028     -1.87016119954725      0.02846576494134
  H   -0.77736755924867     -0.60729880161113     -1.35556801446146
  N   1.69798101177704      0.15482112559661     -0.91678920063835
  H   1.47961989380273     -0.13598297276219     -1.86203533445332
  H   2.66785246955408     -0.05071752237432     -0.71221413072445
  C   1.12418369851842     -0.00270178422964      1.37345332245878
  N   1.32428558187929      0.37432263571880      2.46699544765229
  C   -0.98807703170265      1.27142370406936     -0.32297899491125
  H   -0.34696697547620      1.83419427069102     -1.00012500326066
  H   -2.03119524771040      1.40098809800589     -0.61422551359790
  H   -0.86206762702066      1.68222905710648      0.68328356876445
  N   -1.57375597818846     -0.93314325552408      0.52059468398916
  H   -1.57014510068418     -0.53663626612177      1.45384296356063
  H   -1.30536374132699     -1.90663486998220      0.58882051650039
