16
Coordinates from ORCA-job run
  C   0.92682501035357     -0.15489966770159      0.27610378426849
  C   -0.46914689399449      0.04130569855096     -0.34132953471333
  F   0.72251283870153     -0.32774871054247      1.66794229311684
  H   -0.29450465962815      0.34651005825681     -1.37936591683071
  N   1.59197590129868     -1.25619509120425     -0.26761553961681
  H   1.00103025442988     -1.84943265032241     -0.82859053316912
  H   2.54217212813712     -1.13659160950139     -0.56780804003349
  C   1.72576392155904      1.07967732230752      0.14311300409974
  N   2.35658096936434      2.05712460733324     -0.01445216194964
  C   -1.27254385380473      1.11713054677267      0.37998576340122
  H   -1.46150863365779      0.82051418105934      1.41264930402756
  H   -2.23225054133196      1.26001738299898     -0.12296147143056
  H   -0.74986528579037      2.07718080279150      0.38770880958314
  N   -1.09658394016834     -1.27755014408859     -0.38540653668942
  H   -1.33407082359619     -1.56619068642057      0.55760658533973
  H   -1.95538639187213     -1.23085204028968     -0.91957980940364
