16
Coordinates from ORCA-job run
  C   0.92603793524040     -0.20659061164266      0.24755761262089
  C   -0.46865988959892      0.09542399147254     -0.32980408259629
  F   0.71996469196039     -0.58676709549347      1.59649568475122
  H   -0.29135252627694      0.54846554070789     -1.31192657060845
  N   1.58067056348208     -1.22150471403541     -0.45694182488652
  H   2.52438935095684     -1.05431171095658     -0.75556232154314
  H   0.97915498071616     -1.71722551679365     -1.09634648292073
  C   1.73803161482483      1.02481756459689      0.30070150429667
  N   2.37326085097009      2.01202470809071      0.30401695224007
  C   -1.25801098566533      1.06315624390161      0.54415002930249
  H   -1.44097374577574      0.62477492563233      1.52618016246729
  H   -0.72807329836088      2.00920277925679      0.68216229548576
  H   -2.22057050031079      1.28147605824929      0.07483566223748
  N   -1.11133629070625     -1.19532221947706     -0.56525353936320
  H   -1.35394330947321     -1.61490139643930      0.32586520736129
  H   -1.96858944198277     -1.06171854706992     -1.08713028884481
