16
Coordinates from ORCA-job run
  C   0.87155875415298     -0.56096314403212      0.04515890862605
  C   -0.60253237489362     -0.27596516274837     -0.25577082155188
  F   0.97083646143346     -1.95514845462066      0.21480476108569
  H   -0.76746274394047     -0.70852958129652     -1.25898150699675
  N   1.73019251561590     -0.15022580770615     -0.99670432515588
  H   1.27507570001049      0.28830783260253     -1.77945713227495
  H   2.57265552021364      0.32261409954946     -0.71609815464345
  C   1.26785231351565      0.02814988154631      1.34042383808022
  N   1.62065939692719      0.54463633790978      2.33367736506514
  C   -0.90552416530698      1.21440115260106     -0.27893225848242
  H   -0.29145846221401      1.75526912985247     -1.00064142670854
  H   -0.74414674513405      1.63947930860179      0.71359668945486
  H   -1.95174074631942      1.37481727826527     -0.55168078797992
  N   -1.39634654963682     -0.90505442339118      0.78588420882383
  H   -1.27081369297757     -1.90861603039625      0.76279258075464
  H   -2.37780518144641     -0.70217241673742      0.64392806190337
