16
Coordinates from ORCA-job run
  C   0.86049770976272     -0.33829754120155     -0.19274432778965
  C   -0.67652649921408     -0.25655145409511     -0.29307208718167
  F   1.37445452839119     -0.28327773823044     -1.50439430523421
  H   -0.96232938564361     -1.02861090932586     -1.01458691932337
  N   1.38813231165474      0.68195722794483      0.63546931469602
  H   1.20879364912164      1.59250571225219      0.23164749692923
  H   2.38363036218842      0.56957027079428      0.78022376187839
  C   1.25388552427809     -1.65413851387293      0.35069754877498
  N   1.53094277805760     -2.70794802707354      0.78706725799395
  C   -1.11295728265929      1.10282918829034     -0.82325127993290
  H   -0.98480009802264      1.87763612834460     -0.06206690004663
  H   -2.17582140942643      1.06034451157343     -1.06105270351942
  H   -0.55907867536167      1.38147474217311     -1.72158715374849
  N   -1.34905490501947     -0.53617541398642      0.96138811401388
  H   -0.95302924930429      0.04275968155584      1.69327546664068
  H   -1.22773935880294     -1.50507786514276      1.23098671584919
