16
Coordinates from ORCA-job run
  C   1.02792450867575     -0.32340111677553     -0.13183329374032
  C   -0.51238220102594     -0.36836900910557     -0.20272682865930
  F   1.51107382781679     -0.43287455132044     -1.42652266993318
  H   -0.77183207921996     -1.35017899001832     -0.61574979588768
  N   1.61046063780836      0.85152442658795      0.44470028336767
  H   1.28734191121970      0.94625931912493      1.40009119897928
  H   1.33562708607229      1.66723335420620     -0.08975369570416
  C   1.48811720165670     -1.50572763557364      0.63075270105086
  N   1.81172254398653     -2.47156904747911      1.21311380867377
  C   -1.06406338700242      0.71614066022481     -1.11636726929491
  H   -2.14202898530887      0.58667740824755     -1.23306281360085
  H   -0.60153494045914      0.68195567089025     -2.10313607388031
  H   -0.89435059737699      1.70855376528448     -0.68750835696713
  N   -0.99030857955925     -0.25450016131789      1.17425939820214
  H   -1.56434620331182     -1.04118364929641      1.44023607416188
  H   -1.53042074397172      0.59045955632075      1.30350733323224
