16
Coordinates from ORCA-job run
  C   0.84113175341915     -0.15060349226550      0.21020670099895
  C   -0.53772451885748      0.13273157557970     -0.42253900766989
  F   0.61337673618599     -0.42650302292915      1.58133405168892
  H   -0.33626655584810      0.42707050363282     -1.45743214541790
  N   1.50146078691489     -1.22219503637413     -0.43342942433953
  H   0.94040564954579     -2.06120474643825     -0.36600325651311
  H   2.41217224067597     -1.39427872692888     -0.02636145344028
  C   1.70518514788155      1.04313679791868      0.16807429208107
  N   2.38947765681671      1.99554214957965      0.11778345263603
  C   -1.25195158327618      1.26306545168587      0.30427212398056
  H   -1.46504636363486      0.97755822781930      1.33607109109784
  H   -0.65690456311286      2.17843264034983      0.31741053205218
  H   -2.19660760607007      1.46227991942817     -0.20150902929200
  N   -1.39523125449397     -1.03887466422442     -0.45733803894088
  H   -1.47534179508314     -1.45967046167706      0.46001783970379
  H   -1.08813573106339     -1.72748711515665     -1.13055772862576
