16
Coordinates from ORCA-job run
  C   0.79535696975980     -0.26587623860891      0.19548610797174
  C   -0.59422642153965      0.10679622814997     -0.35751740317516
  F   0.64175580508141     -0.77059043802439      1.47743404901179
  H   -0.43633633808463      0.44276666214618     -1.39130637589166
  N   1.37539608317990     -1.31922955273778     -0.59196933333086
  H   1.51813056685835     -1.00581006365982     -1.54516893993064
  H   2.27260704066851     -1.59146019829699     -0.20581993916116
  C   1.66873025017330      0.92818062954376      0.31397736387420
  N   2.36833469143129      1.87179766847417      0.34418382700941
  C   -1.22595543377939      1.23528579574334      0.44235670478404
  H   -0.65027715455219      2.15953852760269      0.37313223318749
  H   -1.30175854654683      0.95547118674955      1.49610792574161
  H   -2.23074015404164      1.41620948150470      0.05977008862792
  N   -1.48703236752307     -1.03808388228107     -0.38417953491787
  H   -1.70952775915397     -1.29708443369646      0.57104832077098
  H   -1.00445723193121     -1.82891137260892     -0.79653509457174
