16
Coordinates from ORCA-job run
  C   0.85722919094149     -0.45515807223289      0.05072302115991
  C   -0.62026082310907     -0.20964337579079     -0.25107945869518
  F   1.01146968875954     -1.86098750311622      0.15346506163364
  H   -0.77860443658244     -0.63696865945505     -1.25805499059984
  N   1.69401651546430      0.08900655570220     -0.95044864440725
  H   2.67179307813243     -0.07266432142750     -0.74511529629984
  H   1.46613818637614     -0.30628252330606     -1.85451486169368
  C   1.23680184277502      0.09384229292762      1.36564367401010
  N   1.57438366304402      0.55552983887414      2.39005809267592
  C   -0.94723759325115      1.27381900317530     -0.27265179438571
  H   -1.99363938467092      1.41888503378044     -0.55476709779913
  H   -0.31875799254895      1.80662112132812     -0.98520858783251
  H   -0.80102227871408      1.69962022630717      0.72224097857360
  N   -1.39480491907531     -0.86993719403396      0.78625625289292
  H   -1.27923771776125     -1.87344876375772      0.72948201888025
  H   -2.37726701977978     -0.65423365897485      0.67497163188679
