16
Coordinates from ORCA-job run
  C   0.81739459145643     -0.47459930509819      0.01863682225620
  C   -0.65159847174396     -0.20068265197107     -0.35108514344896
  F   0.96653451767076     -1.88354909999737      0.04180338453920
  H   -0.75961280856706     -0.59140231450245     -1.37267004312022
  N   1.71682512840168      0.13425043261948     -0.88365849670110
  H   2.67927362134820     -0.08755425633022     -0.66140728821726
  H   1.51229569514837     -0.15115098423486     -1.83367653668639
  C   1.09750872261646     -0.02246062160115      1.39481711402281
  N   1.28565404707321      0.34501805820514      2.49358541149272
  C   -0.96412174842221      1.28636624453966     -0.33728810123024
  H   -0.84937858720967      1.69244085626429      0.67225822349726
  H   -0.30379648520835      1.84229991280646     -1.00149094951566
  H   -2.00025908965725      1.43122379370684     -0.64571834906089
  N   -1.59681977997172     -0.91253510863750      0.48660191761168
  H   -1.34206924330598     -1.88938315592687      0.55897890493854
  H   -1.60783010962894     -0.51728179984220      1.42031312962230
