16
Coordinates from ORCA-job run
  C   0.92321276852159     -0.62378737839176      0.04732393991246
  C   -0.55834886279204     -0.35911261332144     -0.28254549949969
  F   1.10649002109009     -1.99134712975197      0.00319098411730
  H   -0.71499468467475     -0.86582027166672     -1.24347615337764
  N   1.88238217210660     -0.03036126867017     -0.83520858391593
  H   1.56539539488934     -0.06170319263919     -1.79584301512335
  H   2.12257126928317      0.91563797133978     -0.57740153432360
  C   1.19343378138560     -0.16240443779529      1.42698572611240
  N   1.34614271280580      0.25094585110961      2.51470762947429
  C   -0.84686504179856      1.13368783752094     -0.42656054579583
  H   -1.90407086899515      1.27774885446227     -0.65905143504522
  H   -0.26092161500088      1.60578657463034     -1.21745250683716
  H   -0.63786194988070      1.65340259378336      0.51415934726627
  N   -1.38271405669195     -1.03016918784821      0.71265603871130
  H   -1.55957542411730     -0.41547217152985      1.49894872782122
  H   -2.27427561613086     -1.29803203123169      0.31856688050316
