16
Coordinates from ORCA-job run
  C   0.85478988431480     -0.14257481049932      0.16004710867577
  C   -0.55975745843815      0.14562696311992     -0.38627654350470
  F   0.70203411137727     -0.51400380046795      1.51792189029820
  H   -0.41690548336098      0.51177573199519     -1.40787050709971
  N   1.50674838694387     -1.15204359736845     -0.58571880929296
  H   0.96821786316606     -2.00774778791952     -0.54944949332064
  H   2.43906493397006     -1.32873895278265     -0.23302297189715
  C   1.68709654417258      1.07423213589165      0.15530401445761
  N   2.33467793402042      2.05311604177996      0.13930444461125
  C   -1.26304070963631      1.20774924730217      0.44650510822907
  H   -0.69213523357481      2.13771265806355      0.48531824849059
  H   -2.23822267534651      1.40932050427237      0.00330913745158
  H   -1.41319562612692      0.85406132026354      1.46828553478046
  N   -1.39118859675185     -1.04325075249633     -0.45713303259639
  H   -1.41578182897927     -1.52446382483265      0.43333359900460
  H   -1.10140204575025     -1.67877107632146     -1.18785772828757
