16
Coordinates from ORCA-job run
  C   0.94061456751241     -0.15201413227244      0.14256133571894
  C   -0.48345746977786      0.08377804512593     -0.37879967710475
  F   0.80567660368739     -0.58259243037695      1.48935806304294
  H   -0.37272874255091      0.44060501740033     -1.40748048594770
  N   1.60468129811536     -1.09271250178586     -0.66187595581396
  H   2.49553816368083     -1.36887490868490     -0.27113536388810
  H   0.99009343759377     -1.88644749171594     -0.80357247939130
  C   1.71330858624520      1.10419638208755      0.20470542440467
  N   2.31620671986987      2.10983833442640      0.25427219909327
  C   -1.23175359303593      1.12068404380323      0.45136775618163
  H   -2.23551747949107      1.26121072183118      0.04375301755790
  H   -0.72588685198683      2.08910099008108      0.44567629676647
  H   -1.32066535892261      0.78576931484378      1.48679100866243
  N   -1.12030090857357     -1.23271245950346     -0.43174033361168
  H   -1.45948465588549     -1.47656995167886      0.49201585108718
  H   -1.91632431648057     -1.20425897358106     -1.05589665675795
