16
Coordinates from ORCA-job run
  C   0.75671445889448     -0.61460410834923     -0.08083643076093
  C   -0.69879578035318     -0.20878172112741     -0.35827905683932
  F   0.82812353341853     -2.00028320202477     -0.14178483792439
  H   -0.89230967999774     -0.59896570207666     -1.36352842860513
  N   1.65815357705473     -0.11888448868492     -1.07582317405731
  H   1.66287532665744      0.89250223334478     -1.09021914445768
  H   2.59955235737015     -0.44421998442420     -0.88712445201880
  C   1.11919784468107     -0.24764380580577      1.31544570685588
  N   1.38359344104473      0.11159945799445      2.40256255926034
  C   -0.88801942776262      1.30000082060362     -0.34435619504549
  H   -1.94662643003319      1.51634742147148     -0.49136671123750
  H   -0.33040658587498      1.79458230566218     -1.14177440041709
  H   -0.58599866383827      1.72789785400135      0.61681341732132
  N   -1.64071673317407     -0.82733917911087      0.55525594482247
  H   -1.53217513030340     -0.45397880475096      1.49184639290664
  H   -1.49316210778370     -1.82822909672308      0.59316881019703
