16
Coordinates from ORCA-job run
  C   0.79639560274265     -0.56686932011192     -0.00883221085829
  C   -0.67087237033946     -0.28273429287733     -0.36306477060824
  F   0.96112935521514     -1.94489854572967      0.03747716743677
  H   -0.80175802440579     -0.75896548534041     -1.34095230718401
  N   1.70077993831717     -0.08495627786456     -1.00859810342641
  H   2.65268081917803     -0.33569218947967     -0.76619958195957
  H   1.64400265453350      0.92150406283897     -1.09373866070489
  C   1.08281158670044     -0.07235977289264      1.36570015124973
  N   1.29113189065651      0.39742013483263      2.42242638293208
  C   -0.95868038658366      1.20648134582054     -0.47148255736873
  H   -0.72381035140833      1.72408298832879      0.46389905256296
  H   -2.02242441655891      1.33870436568591     -0.67141145232891
  H   -0.40305644887836      1.67707577607974     -1.28458006979663
  N   -1.60359963555902     -0.89410621707005      0.56486225680953
  H   -1.55358482900367     -0.44633960852239      1.47342027582984
  H   -1.39314538460624     -1.87734696369791      0.68307442741477
