16
Coordinates from ORCA-job run
  C   0.85709197674755     -0.57086393184284      0.06569058632542
  C   -0.60815232282244     -0.27705889063571     -0.26505170190193
  F   0.95297374003049     -1.95307179628412      0.27961947488701
  H   -0.76654236744521     -0.74310714213004     -1.25242526258387
  N   1.72309779604346     -0.22109748958632     -1.00093258576251
  H   2.65157017395929      0.04157801972990     -0.70712373857569
  H   1.33365190896333      0.46011669110403     -1.63224312363146
  C   1.23975210059656      0.05485839874836      1.35212993520997
  N   1.59420253022679      0.60398445444141      2.32753729996962
  C   -0.90011432285300      1.21458932889416     -0.34011882768747
  H   -0.70503418439000      1.68213821700271      0.62682770885868
  H   -0.31558996547270      1.72547161280045     -1.10766165585553
  H   -1.95404632429497      1.36962396236629     -0.58484646994869
  N   -1.41466254584328     -0.86007602336240      0.79475207829693
  H   -1.29336927179251     -1.86448619874168      0.81254618345585
  H   -2.39382892165333     -0.66159921250420      0.63230009894368
