16
Coordinates from ORCA-job run
  C   0.92229328563549     -0.62437094076808      0.05745757249484
  C   -0.56020470021111     -0.36363500303729     -0.27149153723370
  F   1.10485765559767     -1.99194232454276      0.03086957264923
  H   -0.72225778381562     -0.89169421813455     -1.21989613266272
  N   1.88340908234077     -0.04733486442539     -0.83538653406757
  H   2.08773962388499      0.91735279429364     -0.61758210937698
  H   1.57848150217098     -0.12967577432885     -1.79736802289758
  C   1.19755935394174     -0.14038933472261      1.42850612474705
  N   1.35919784121684      0.30695379680325      2.50138569429120
  C   -0.84702817458592      1.12583267080301     -0.44751238623084
  H   -1.90486184995833      1.26678965461745     -0.67912812761108
  H   -0.63350682213897      1.66648825297480      0.48031979599304
  H   -0.26396235627668      1.57854054571416     -1.25184593591175
  N   -1.38024818625129     -1.01211532048609      0.74239101716926
  H   -1.54404365412507     -0.38293542210746      1.52017123211761
  H   -2.27842481742550     -1.27686451265324      0.36110977653002
