16
Coordinates from ORCA-job run
  C   0.79815384951610     -0.56550648091190     -0.00154403329475
  C   -0.67208476275640     -0.29210779094276     -0.35169066178951
  F   0.96497520316245     -1.94165023658489      0.07900859969462
  H   -0.80988543761876     -0.79154585145562     -1.31699308613559
  N   1.69396062653284     -0.10839637186133     -1.02034421501146
  H   2.64859839272282     -0.34800121974220     -0.77734065557742
  H   1.63260730864182      0.89487701955931     -1.13380885589563
  C   1.09357645383932     -0.03673012453143      1.35830277584280
  N   1.30470853669376      0.45009769912371      2.40673697991074
  C   -0.96379242452582      1.19359058452354     -0.49335952928106
  H   -0.41392151296094      1.64692289393185     -1.32011129911153
  H   -0.72495714369012      1.73343430564736      0.42842044073030
  H   -2.02898330901322      1.31831605783888     -0.69049214098991
  N   -1.59708784263799     -0.88212650794755      0.59771093520913
  H   -1.38222319515582     -1.86110159161456      0.74090159724390
  H   -1.54264474275004     -0.41007238503242      1.49360314845538
