14

C	-0.418991	0.055994	-1.43764
C	0.0	0.0	0.0
Cl	-0.112068	-1.546893	-2.158018
H	1.089702	0.0	0.0
H	-0.383071	-0.885831	0.499319
N	-1.940401	0.281992	-1.611195
O	-2.652045	-0.208033	-0.746065
O	-2.315197	0.876834	-2.612485
C	0.282983	1.059039	-2.232431
N	0.849447	1.826093	-2.918477
N	-0.489528	1.16926	0.721858
O	-0.822652	2.161913	0.061367
O	-0.505826	1.111498	1.949016
F	2.468467	0.0	0.0
