14

C	-0.468133	0.030981	-1.43967
C	0.0	0.0	0.0
Cl	0.423354	1.171028	-2.432439
H	1.089424	0.0	0.0
H	-0.365829	-0.900104	0.490786
N	-0.208573	-1.418662	-1.966287
O	-0.896332	-2.274194	-1.42062
O	0.619681	-1.594737	-2.839949
C	-1.905787	0.240157	-1.619467
N	-3.066967	0.362143	-1.757174
N	-0.501002	1.137414	0.769094
O	-0.45771	1.027479	1.99427
O	-0.889686	2.146019	0.171481
F	2.4762	0.0	0.0
