14

C	-0.572669	-0.064216	-1.387898
C	0.0	0.0	0.0
Cl	-2.35848	-0.161868	-1.412938
H	1.090795	0.0	0.0
H	-0.320934	-0.88405	0.551536
N	-0.120288	1.144933	-2.267884
O	1.089237	1.211312	-2.399472
O	-0.968321	1.868701	-2.756994
C	-0.044281	-1.249529	-2.062071
N	0.366884	-2.201258	-2.614658
N	-0.489456	1.159548	0.737945
O	-0.671994	1.027993	1.94853
O	-0.629949	2.218996	0.121158
F	2.460624	0.0	0.0
