14

C	-0.566641	0.0101	-1.391175
C	0.0	0.0	0.0
Cl	0.094605	1.438154	-2.230166
H	1.087665	0.0	0.0
H	-0.287944	0.921813	0.509332
N	-0.119084	-1.205391	-2.227497
O	-0.823956	-1.462143	-3.197762
O	0.909597	-1.760634	-1.893923
C	-2.026018	0.079735	-1.460887
N	-3.193136	0.219253	-1.464903
N	-0.555224	-1.106576	0.776352
O	-1.100008	-2.035082	0.163802
O	-0.423238	-1.062816	1.996777
F	2.47061	0.0	0.0
