14

C	-0.467723	0.110894	-1.424238
C	0.0	0.0	0.0
Cl	0.404006	-0.938828	-2.536259
H	1.091567	0.0	0.0
H	-0.343657	0.846597	0.59103
N	-2.006606	-0.150623	-1.546385
O	-2.670117	0.4488	-0.709145
O	-2.428089	-0.862929	-2.438312
C	-0.305626	1.496635	-1.867256
N	-0.217521	2.618756	-2.207425
N	-0.497978	-1.208436	0.654414
O	-0.389064	-1.253768	1.877917
O	-0.956031	-2.120424	-0.042428
F	2.472684	0.0	0.0
