14

C	-0.417785	0.028636	-1.439413
C	0.0	0.0	0.0
Cl	-0.099622	-1.584249	-2.132318
H	1.086083	0.0	0.0
H	-0.384371	-0.876943	0.514192
N	-1.93963	0.241608	-1.618267
O	-2.316589	0.814706	-2.631192
O	-2.650053	-0.235097	-0.744727
C	0.278302	1.023688	-2.248798
N	0.844794	1.787301	-2.938441
N	-0.493837	1.18138	0.70056
O	-0.502737	1.148183	1.928641
O	-0.840178	2.15712	0.02249
F	2.470302	0.0	0.0
