14

C	-0.537898	-0.071899	-1.400597
C	0.0	0.0	0.0
Cl	-2.306335	-0.332992	-1.467811
H	1.08727	0.0	0.0
H	-0.30482	-0.898576	0.536935
N	-0.181222	1.19846	-2.235396
O	1.017843	1.416548	-2.287113
O	-1.079246	1.815715	-2.779601
C	0.110767	-1.180077	-2.100635
N	0.55931	-2.099511	-2.678102
N	-0.529661	1.137119	0.74428
O	-0.766705	2.179573	0.128036
O	-0.649415	1.005819	1.962751
F	2.460833	0.0	0.0
