17

C	0.0	0.0	0.0
C	-0.257516	0.002905	-1.540717
F	1.359149	0.0	0.0
H	0.432995	0.774939	-1.894118
N	-0.278991	1.437469	0.570258
O	-0.379904	2.38232	-0.205423
O	-0.293997	1.521085	1.793682
N	-0.643177	-0.988444	0.700285
H	-1.691769	-0.759734	0.504544
H	-0.469567	-0.869034	1.694342
C	-1.603757	0.271232	-2.214298
H	-2.330968	-0.502341	-1.995248
H	-2.025162	1.203892	-1.851734
H	-1.406866	0.336508	-3.292651
C	0.279028	-1.276642	-2.024498
N	0.676279	-2.289889	-2.46555
H	-2.962018	0.0	0.0
