17

C	0.0	0.0	0.0
C	-0.257256	-0.016795	-1.541793
F	1.359111	0.0	0.0
H	0.441095	0.74213	-1.906521
N	-0.258159	1.471609	0.526146
O	-0.259368	2.404134	-0.272961
O	-0.35309	1.587093	1.744435
N	-0.668329	-0.947909	0.719178
H	-0.494154	-0.812895	1.711565
H	-1.7287	-0.692654	0.504343
C	-1.60418	0.266724	-2.208733
H	-2.350496	-0.476009	-1.953631
H	-1.425345	0.28891	-3.291629
H	-1.990701	1.224212	-1.874119
C	0.257838	-1.307212	-2.018206
N	0.627504	-2.33116	-2.458932
H	-2.951756	0.0	0.0
