17

C	0.0	0.0	0.0
C	-0.243807	0.10683	-1.535013
F	1.39229	0.0	0.0
H	0.4466	0.899939	-1.833621
N	-0.248433	1.406273	0.657817
O	-0.226955	2.406718	-0.05413
O	-0.355905	1.408392	1.879897
N	-0.650112	-1.019688	0.63507
H	-0.487065	-0.957788	1.635881
H	-1.703971	-0.767585	0.443716
C	-1.593732	0.420098	-2.18069
H	-2.332979	-0.343684	-1.969408
H	-1.415571	0.513713	-3.259926
H	-1.991312	1.350218	-1.785153
C	0.288407	-1.133347	-2.116831
N	0.662365	-2.083719	-2.696429
H	-2.958109	0.0	0.0
