17

C	0.0	0.0	0.0
C	-0.54245	0.300049	-1.385666
F	1.383922	0.0	0.0
H	-1.594407	0.603515	-1.181989
N	-0.240024	1.26157	0.921581
O	-0.479835	2.347516	0.408939
O	-0.108512	1.057568	2.127013
N	-0.57888	-1.129617	0.542479
H	-0.356712	-1.16549	1.532797
H	-1.622164	-0.927845	0.436426
C	-0.579116	-0.96089	-2.252799
H	0.393339	-1.458241	-2.270045
H	-1.32428	-1.64405	-1.845631
H	-0.860788	-0.693893	-3.273717
C	0.206769	1.351121	-2.064405
N	0.753038	2.15305	-2.727925
H	-2.929282	0.0	0.0
