17

C	0.0	0.0	0.0
C	-0.470612	0.030518	-1.458191
F	1.350604	0.0	0.0
H	-1.581364	0.097783	-1.367943
N	-0.458485	1.207832	0.698639
O	-1.684031	1.050791	1.105116
O	0.135267	2.288017	0.444904
N	-0.404664	-1.111325	0.806034
H	-1.424476	-1.116974	0.846626
H	-0.04446	-1.972168	0.413908
C	-0.087398	-1.256287	-2.197109
H	-0.405681	-1.218429	-3.241842
H	0.994619	-1.412616	-2.175475
H	-0.577502	-2.11287	-1.730423
C	0.058935	1.194667	-2.161637
N	0.500214	2.08217	-2.794492
H	-2.718197	0.0	0.0
