17

C	0.0	0.0	0.0
C	-0.558561	0.139451	-1.406261
F	1.346618	0.0	0.0
H	-1.63124	0.392078	-1.225894
N	-0.268049	1.347076	0.788759
O	-0.564894	2.364213	0.176318
O	-0.096972	1.274291	2.003914
N	-0.575153	-1.074646	0.662119
H	-1.614745	-0.899312	0.547862
H	-0.340508	-1.009912	1.648171
C	-0.488665	-1.195804	-2.155709
H	-1.115169	-1.926681	-1.646857
H	0.538443	-1.568612	-2.194969
H	-0.852856	-1.058892	-3.176692
C	0.129382	1.165426	-2.182011
N	0.654628	1.935607	-2.898005
H	-2.963314	0.0	0.0
