17

C	0.0	0.0	0.0
C	-0.548034	0.139459	-1.409601
F	1.349872	0.0	0.0
H	-1.643435	0.319398	-1.233916
N	-0.505819	1.189804	0.751428
O	-1.581988	0.953797	1.381001
O	-0.122358	2.314564	0.361233
N	-0.477815	-1.209909	0.569765
H	-1.505224	-1.113474	0.525812
H	-0.219212	-1.199144	1.551603
C	-0.37892	-1.146352	-2.226136
H	-0.995158	-1.928928	-1.801516
H	-0.683214	-0.976715	-3.260266
H	0.656056	-1.480413	-2.225752
C	0.090644	1.242697	-2.12075
N	0.619254	1.993599	-2.854211
H	-2.888491	0.0	0.0
