17

C	0.0	0.0	0.0
C	-0.483129	0.056062	-1.444921
F	1.349344	0.0	0.0
H	-1.587219	0.165224	-1.348566
N	-0.455696	1.316412	0.741878
O	-0.778307	2.307328	0.096061
O	-0.578792	1.213183	1.960981
N	-0.555445	-1.094349	0.627924
H	-1.602051	-0.923015	0.492696
H	-0.371526	-1.031504	1.627327
C	-0.126574	-1.260232	-2.157157
H	0.955295	-1.424338	-2.156533
H	-0.466799	-1.222556	-3.195946
H	-0.604708	-2.09481	-1.648065
C	0.10567	1.148684	-2.20872
N	0.626818	1.951325	-2.891951
H	-2.87979	0.0	0.0
