15

C	-0.495136	0.092735	-1.454369
C	0.0	0.0	0.0
F	-1.893389	0.089201	-1.436388
H	1.090613	0.0	0.0
C	-0.069391	1.271759	-2.223857
N	0.188788	2.164916	-2.942821
C	-0.071583	-1.123575	-2.169274
N	0.185581	-2.121484	-2.732993
N	-0.446979	-1.157035	0.672782
H	0.256259	-1.879929	0.659773
H	-1.361539	-1.48716	0.406859
N	-0.506806	1.255249	0.685274
O	-0.020792	2.31078	0.284875
O	-1.368062	1.143508	1.551333
Br	3.34508	0.0	0.0
