15

C	-0.490087	0.040205	-1.458576
C	0.0	0.0	0.0
F	-1.888029	-0.011914	-1.45166
H	1.088973	0.0	0.0
C	-0.10334	1.220505	-2.245015
N	0.117309	2.160073	-2.915181
C	-0.02068	-1.178268	-2.13997
N	0.250675	-2.181831	-2.685018
N	-0.445448	-1.138124	0.707589
H	0.2591	-1.860435	0.712274
H	-1.360181	-1.476056	0.45092
N	-0.515545	1.270314	0.645464
O	-1.44157	1.180139	1.444981
O	0.026087	2.312224	0.28482
Br	3.34664	0.0	0.0
