15

C	-0.528703	-0.048823	-1.444906
C	0.0	0.0	0.0
F	0.050806	0.881562	-2.267215
H	1.093619	0.0	0.0
C	-0.247339	-1.388242	-1.998159
N	-0.021869	-2.425218	-2.500646
C	-1.997405	0.145143	-1.446952
N	-3.163812	0.283985	-1.410092
N	-0.460956	-1.141871	0.710252
H	0.255279	-1.450775	1.352386
H	-1.317842	-0.966894	1.219692
N	-0.420706	1.304076	0.650356
O	-0.560135	1.288641	1.871642
O	-0.559109	2.28822	-0.070314
Br	3.324696	0.0	0.0
