15

C	-0.526504	-0.067167	-1.446193
C	0.0	0.0	0.0
F	0.053819	0.851983	-2.280899
H	1.093727	0.0	0.0
C	-0.244379	-1.412993	-1.983208
N	-0.010668	-2.4515	-2.47872
C	-1.996098	0.126149	-1.450194
N	-3.162899	0.256771	-1.401173
N	-0.462444	-1.133861	0.722371
H	0.237998	-1.409304	1.395082
H	-1.33299	-0.955725	1.205344
N	-0.420778	1.312452	0.630239
O	-0.53565	1.317837	1.852533
O	-0.579382	2.282529	-0.105955
Br	3.326634	0.0	0.0
