15

C	-0.538167	-0.01372	-1.444442
C	0.0	0.0	0.0
F	0.01946	0.942288	-2.248667
H	1.093577	0.0	0.0
C	-0.259396	-1.334829	-2.039365
N	-0.048552	-2.365597	-2.560564
C	-2.005858	0.181953	-1.419959
N	-3.168897	0.338418	-1.368825
N	-0.472221	-1.157762	0.678354
H	-1.306008	-0.960033	1.216426
H	0.250859	-1.495526	1.299812
N	-0.432756	1.293327	0.669542
O	-0.312941	2.328036	0.02382
O	-0.856361	1.216334	1.821315
Br	3.328306	0.0	0.0
