15

C	-0.502215	0.060837	-1.453047
C	0.0	0.0	0.0
F	-1.901095	0.10399	-1.423119
H	1.090669	0.0	0.0
C	-0.042798	1.190004	-2.275111
N	0.247357	2.029465	-3.044034
C	-0.126432	-1.19495	-2.126741
N	0.118933	-2.206203	-2.671945
N	-0.445727	-1.138893	0.700492
H	-1.360874	-1.478077	0.447553
H	0.258663	-1.860264	0.720296
N	-0.489791	1.276099	0.662922
O	-0.085852	2.320918	0.158495
O	-1.247689	1.190303	1.621148
Br	3.339558	0.0	0.0
