15

C	-0.563831	0.045766	-1.421722
C	0.0	0.0	0.0
F	-1.952925	0.175302	-1.329797
H	1.091307	0.0	0.0
C	-0.073263	1.13094	-2.287705
N	0.256366	1.93185	-3.081256
C	-0.280867	-1.237587	-2.087958
N	-0.063341	-2.247746	-2.645449
N	-0.469278	-1.159675	0.663662
H	0.212086	-1.450697	1.350933
H	-1.360659	-1.00214	1.112502
N	-0.419267	1.297652	0.686055
O	-1.00186	1.209027	1.764788
O	-0.125675	2.343752	0.118586
Br	3.32821	0.0	0.0
