15

C	-0.474257	0.017503	-1.465358
C	0.0	0.0	0.0
F	-1.870921	-0.026175	-1.480849
H	1.090648	0.0	0.0
C	-0.06291	1.193825	-2.244832
N	0.185244	2.110731	-2.936035
C	0.006092	-1.204983	-2.129542
N	0.37347	-2.175252	-2.679731
N	-0.463838	-1.115194	0.732881
H	-1.388292	-1.432116	0.483994
H	0.223152	-1.854674	0.739306
N	-0.518151	1.285326	0.605785
O	-1.543737	1.225939	1.278403
O	0.110775	2.305935	0.336969
Br	3.371276	0.0	0.0
