15

C	-0.570378	0.118531	-1.413792
C	0.0	0.0	0.0
F	-1.95764	0.24609	-1.305596
H	1.091303	0.0	0.0
C	-0.083578	1.246202	-2.225563
N	0.250346	2.077802	-2.98544
C	-0.294704	-1.128341	-2.147549
N	-0.072496	-2.105586	-2.758388
N	-0.475986	-1.186657	0.608351
H	-1.371203	-1.045422	1.057037
H	0.200008	-1.506786	1.28809
N	-0.408922	1.266461	0.746084
O	-0.057145	2.333719	0.255378
O	-1.039224	1.133824	1.793883
Br	3.328261	0.0	0.0
