15

C	-0.553078	0.009316	-1.427436
C	0.0	0.0	0.0
F	-1.943832	0.125934	-1.34853
H	1.091312	0.0	0.0
C	-0.068062	1.084725	-2.307992
N	0.268204	1.882466	-3.102182
C	-0.250778	-1.282241	-2.066037
N	-0.010579	-2.298381	-2.60288
N	-0.466369	-1.148236	0.685475
H	-1.363039	-0.985817	1.122554
H	0.212033	-1.416061	1.385924
N	-0.434669	1.30874	0.650401
O	-1.058498	1.240844	1.706645
O	-0.114953	2.343747	0.077524
Br	3.332315	0.0	0.0
