16

C	-0.629706	-0.036691	-1.360636
C	0.0	0.0	0.0
F	-0.184254	0.962273	-2.190867
H	1.09691	0.0	0.0
H	-1.719868	0.020549	-1.305465
N	-0.375496	-1.326322	-2.11144
O	-1.137188	-1.533925	-3.060422
O	0.55889	-2.046325	-1.77868
N	-0.532587	-1.187452	0.69966
H	-0.662189	-0.946424	1.676015
H	0.208898	-1.881134	0.676452
C	-0.4394	1.276453	0.698227
H	-0.173614	2.151495	0.102576
H	0.096384	1.354023	1.647488
H	-1.51952	1.284666	0.891389
H	2.946664	0.0	0.0
