16

C	-0.396469	-0.002659	-1.448138
C	0.0	0.0	0.0
F	0.030951	-1.140054	-2.070767
H	1.103384	0.0	0.0
H	-0.007703	0.86572	-1.98134
N	-1.896804	0.039818	-1.623883
O	-2.500453	-1.008698	-1.815526
O	-2.409677	1.156048	-1.524355
N	-0.548199	-1.205533	0.644382
H	-0.134907	-1.224972	1.5724
H	-0.137425	-2.002231	0.16376
C	-0.460713	1.240309	0.740514
H	-0.160343	2.148969	0.213818
H	0.032331	1.255722	1.71661
H	-1.543294	1.252052	0.885106
H	2.897934	0.0	0.0
