16

C	-0.631117	0.040024	-1.367876
C	0.0	0.0	0.0
F	-0.197037	1.107499	-2.110013
H	1.093881	0.0	0.0
H	-1.723579	0.073636	-1.32235
N	-0.340366	-1.203645	-2.166478
O	-1.273766	-1.996019	-2.299474
O	0.78292	-1.327689	-2.634103
N	-0.402294	-1.259177	0.630366
H	-1.117685	-1.107533	1.331716
H	0.421498	-1.635872	1.088497
C	-0.421924	1.238488	0.778201
H	-1.503911	1.255757	0.968538
H	-0.143814	2.149297	0.243026
H	0.107767	1.242	1.733359
H	2.881382	0.0	0.0
