16

C	-0.426587	0.030571	-1.448235
C	0.0	0.0	0.0
F	0.135417	-0.986954	-2.150645
H	1.095367	0.0	0.0
H	-0.192425	0.979278	-1.938434
N	-1.923538	-0.130568	-1.576868
O	-2.381624	-1.202529	-1.95293
O	-2.589023	0.853338	-1.24443
N	-0.44807	-1.261919	0.597378
H	0.384008	-1.7912	0.840123
H	-0.954987	-1.081346	1.453502
C	-0.448527	1.217105	0.787742
H	-0.228825	2.144684	0.255262
H	0.113694	1.233754	1.724168
H	-1.519967	1.200091	1.0043
H	2.861683	0.0	0.0
