16

C	-0.523715	-0.06033	-1.421571
C	0.0	0.0	0.0
F	-0.249239	1.075896	-2.122987
H	1.095495	0.0	0.0
H	-1.606401	-0.233414	-1.464612
N	0.061722	-1.218346	-2.198755
O	0.959453	-1.000461	-2.997413
O	-0.442234	-2.317231	-1.95527
N	-0.39493	-1.176088	0.779224
H	0.403942	-1.801833	0.795517
H	-1.15982	-1.679588	0.347277
C	-0.505507	1.274989	0.656173
H	-1.601426	1.28959	0.722391
H	-0.100987	1.302485	1.669044
H	-0.161765	2.161714	0.119994
H	2.88304	0.0	0.0
