16

C	-0.406493	0.018729	-1.453803
C	0.0	0.0	0.0
F	0.022432	-1.095614	-2.099596
H	1.095332	0.0	0.0
H	-0.035029	0.904092	-1.973527
N	-1.907458	0.058161	-1.608367
O	-2.429905	1.160489	-1.42236
O	-2.510939	-0.979027	-1.855318
N	-0.482362	-1.242325	0.610169
H	-0.914231	-1.036643	1.502698
H	0.333289	-1.821611	0.793012
C	-0.44441	1.234568	0.761896
H	-0.188881	2.150498	0.225084
H	0.090478	1.247728	1.715438
H	-1.52321	1.242432	0.948648
H	2.86548	0.0	0.0
