16

C	-0.527083	-0.026916	-1.421387
C	0.0	0.0	0.0
F	-0.16758	1.084795	-2.124432
H	1.095416	0.0	0.0
H	-1.619523	-0.11772	-1.462711
N	-0.035798	-1.228435	-2.197542
O	0.896013	-1.092656	-2.97474
O	-0.648312	-2.276427	-1.975752
N	-0.400237	-1.18449	0.762567
H	-1.179123	-1.670389	0.335258
H	0.390548	-1.819887	0.761487
C	-0.498301	1.26847	0.675784
H	-1.592489	1.274954	0.76401
H	-0.07326	1.293125	1.680108
H	-0.171109	2.160864	0.138258
H	2.887918	0.0	0.0
