14
Coordinates from ORCA-job run
  C   0.75515118302918     -0.15644079786383      0.13377345357624
  C   -0.68486218627924     -0.01943542556480     -0.40946752882923
  F   0.89312813226227     -1.38751385032823      0.72408099191273
  H   -0.76820489968595      0.88203786387703     -1.02117330774117
  N   0.99439208332148      0.83332439789147      1.12157400930276
  H   0.69507202352054      1.75987056511912      0.84776819075844
  H   1.96485436894113      0.84303939119304      1.40811933035744
  C   1.67574368114045     -0.13082573999916     -1.03209779868782
  N   2.40818398365860     -0.03386380483407     -1.94622688414843
  N   -1.61503371264831      0.18810251027004      0.76583115763023
  O   -1.88401851857107      1.35875685799015      1.01272886627630
  O   -1.97965361989608     -0.80752173871492      1.37245260992157
  C   -1.07354136286372     -1.19848333754558     -1.16720308399866
  N   -1.38221115592927     -2.13104689149025     -1.81016000633039
