14
Coordinates from ORCA-job run
  C   0.78239652156012     -0.03640708771642      0.11556577869109
  C   -0.67865037572188     -0.08202631126955     -0.39365848563466
  F   0.93607639585902     -1.16297531152822      0.93959607083783
  H   -0.85988061606452      0.74968938913661     -1.07775981184743
  N   1.04992349601787      1.15427116407461      0.75777286089811
  H   0.32488574169037      1.72784188799609      1.14263727813772
  H   2.00233087377390      1.44840437856811      0.87801571588071
  C   1.68305735586746     -0.25951243244617     -1.03473036661184
  N   2.39217377051112     -0.39800050665901     -1.96226564211724
  N   -1.59411423777482      0.12395697769435      0.79462567395492
  O   -2.01670882949477     -0.86822176221226      1.37101001723169
  O   -1.77610165137312      1.29817637022549      1.10776734336551
  C   -0.98931803178349     -1.35150211118308     -1.03633587795270
  N   -1.25707041306726     -2.34469464468055     -1.60324055483371
