14
Coordinates from ORCA-job run
  C   0.74998386593237      0.12698186060681     -0.18667296546821
  C   -0.68373837873502     -0.43838015686643     -0.17920937365641
  F   0.96575430139812      0.55267325626572     -1.50270720795034
  H   -0.70305570370198     -1.33278382362577     -0.80669027401269
  N   1.63061523979924     -0.88586299697696      0.23446356195776
  H   1.64403965077216     -1.66754613225189     -0.40902459920698
  H   2.56843754730716     -0.54303323723393      0.39602778520390
  C   0.89937248215138      1.30442095784791      0.68465306141418
  N   1.09238233574420      2.23207816215489      1.37798364188784
  N   -1.61579333408384      0.54681219508008     -0.84761625307987
  O   -1.82196604443635      1.59138924026169     -0.24309746519479
  O   -2.05874982910432      0.21291261607400     -1.93918137708036
  C   -1.14335816973718     -0.72564430298556      1.16967395218464
  N   -1.52492396330594     -0.97301763835058      2.25239751300132
