11
Coordinates from ORCA-job run
  C   -0.32991855820337     -0.13089778245650      0.02061900092266
  C   0.85401526424816     -0.75149824412937     -0.20797505246782
  H   0.85541622475459     -1.83794934103965     -0.18522664125438
  N   -0.42997248991418      1.34819693056927      0.03579593271270
  O   0.45409350523001      1.98986349604952     -0.51796676306881
  O   -1.40781859217114      1.81674286899064      0.62012672072925
  N   -1.54226041694494     -0.72334993196505      0.20612791586028
  H   -1.52770833351138     -1.69799546376216      0.45953016030160
  H   -2.21496114246831     -0.15748303595159      0.70113204958376
  C   2.10162098923934     -0.13117135557788     -0.46551834371359
  N   3.18749354974122      0.27754185927278     -0.66864497960566
