11
Coordinates from ORCA-job run
  C   -0.20006174016272      0.13651794092496     -0.02226542645937
  C   1.08728523358200      0.04041308164789     -0.44061295501980
  H   1.55777139767062      0.87138769625168     -0.94695738262345
  N   -0.91012724674799      1.41979463652295     -0.24741989954606
  O   -1.99847656307199      1.54412958561726      0.31463935780909
  O   -0.36788631037773      2.26114643668092     -0.95359087635245
  N   -0.98453068366199     -0.81226236526880      0.54014839932922
  H   -0.52093609440958     -1.62923570056760      0.90673338485846
  H   -1.79248512245205     -0.47933594352563      1.04197388500863
  C   1.79397080772053     -1.16487810281998     -0.20914153537466
  N   2.33447632191089     -2.18767726546365      0.01649304837038
