11
Coordinates from ORCA-job run
  C   -0.32536919387125     -0.13878200402748      0.03242881720923
  C   0.87899600584113     -0.74332861751727     -0.12108306817169
  H   0.91249608952681     -1.82043934902481      0.01892133331143
  N   -0.47100323822024      1.32928665227330     -0.11440484210569
  O   -1.47098578617678      1.82716658110116      0.40465115415064
  O   0.39973924900329      1.93461898653539     -0.72712477390539
  N   -1.52034896637307     -0.74528149124912      0.27426379563192
  H   -2.21731082644370     -0.14909480567342      0.69418786229320
  H   -1.48041365288927     -1.68496512946992      0.63415208768993
  C   2.11067063596704     -0.11429541495998     -0.42937406074775
  N   3.18552968363603      0.30511459201216     -0.66661830535583
