11
Coordinates from ORCA-job run
  C   -0.19880688642965      0.13259594034254     -0.04613462818212
  C   1.15482930973656      0.15957025014835     -0.13585795468510
  H   1.66921129065945      1.08951404547452     -0.33262456290447
  N   -0.92996686523295      1.41616939036432     -0.18598783477925
  O   -2.12796967271115      1.39226378282362      0.09720242766408
  O   -0.30023251074091      2.39974656645833     -0.55561545792033
  N   -1.02079535879714     -0.93305585647829      0.10156985644696
  H   -0.59634205059355     -1.79368588101730      0.41174447671732
  H   -1.94662834731035     -0.73050089114378      0.44419965501315
  C   1.87496067516326     -1.04945610565924      0.02569317510621
  N   2.42274041625644     -2.08216124131306      0.17581084752355
