11
Coordinates from ORCA-job run
  C   -0.19144077565072      0.14728223999674      0.02958370418375
  C   1.15281055424339      0.16458289182013     -0.15493811597640
  H   1.65372915450158      1.08345182132377     -0.42464481058190
  N   -0.94012476252163      1.40829853189008     -0.19445979229830
  O   -2.16734021024386      1.31283140218489     -0.22651247453393
  O   -0.29711951192602      2.44020494624421     -0.34485270296750
  N   -0.97865917833798     -0.86854869405035      0.45515311835090
  H   -0.58134748229110     -1.79492061822959      0.42531850073078
  H   -1.95959126701519     -0.78481559758019      0.24017008857760
  C   1.88023790336554     -1.03806096109764      0.02072105056678
  N   2.42784557587601     -2.07030596250204      0.17446143394822
