11
Coordinates from ORCA-job run
  C   -0.20128077450975      0.11790058573671     -0.07352962616740
  C   1.14837579475229      0.09884910028463     -0.21143610738539
  H   1.66152869359718      0.93976781152749     -0.65602233135441
  N   -0.92680010300420      1.33622144378454     -0.51013023400112
  O   -0.30355463660361      2.18263942348125     -1.13919989647978
  O   -2.11335824047249      1.40621177149620     -0.18880267153894
  N   -1.02584020804234     -0.86159001932009      0.36694346181397
  H   -0.59766996561450     -1.62284662684246      0.87100366786745
  H   -1.93668534306653     -0.56264767759369      0.67780388243003
  C   1.86657951620822     -1.03955984374232      0.22973225069109
  N   2.42770526675572     -1.99394596881224      0.63363760412450
