11
Coordinates from ORCA-job run
  C   -0.19046748359236      0.13791309638982      0.06224957542868
  C   1.16294209481787      0.07691924601902      0.13774108532533
  H   1.73146542844140      0.95172320546541      0.42004725279033
  N   -0.84334049431225      1.44243640672831      0.33572816931895
  O   -2.04229825199996      1.51656864302471      0.06547369104395
  O   -0.15446125977185      2.34583410000231      0.79360075340713
  N   -1.07515861774234     -0.85748612063481     -0.18028850329920
  H   -0.70459250380962     -1.70775481721107     -0.57608289820804
  H   -1.99020420090757     -0.56954335113517     -0.48889481552154
  C   1.81014018673880     -1.14860641258056     -0.15414288885658
  N   2.29697510213788     -2.19000399606797     -0.41443142142902
