11
Coordinates from ORCA-job run
  C   -0.19404049857210      0.14244911246895     -0.04051819463190
  C   1.05863811910330     -0.12057992110374     -0.49113124263200
  H   1.38802361398582      0.27068735473861     -1.44336282797823
  N   -1.09370303335986      0.93788889195190     -0.91147420148340
  O   -0.61560146662416      1.45473842497067     -1.91375149169621
  O   -2.27173746584342      1.00418164409918     -0.55886322051840
  N   -0.75224126193554     -0.17470232734424      1.15149986960963
  H   -0.28429226721799     -0.88189537634909      1.69713523506140
  H   -1.75918335852151     -0.16240433823876      1.18497831973590
  C   1.92398145799879     -0.90386569056936      0.31133623159656
  N   2.59915616098668     -1.56649777462413      1.01415152293663
