11
Coordinates from ORCA-job run
  C   -0.18015968966548      0.15962320431715     -0.03479595917957
  C   1.15572719106761     -0.00578447317835     -0.20592318540107
  H   1.78252491597506      0.84222066560565     -0.44306737305096
  N   -0.72915658428833      1.53426063164258     -0.14124905215586
  O   0.01062509573190      2.41886537060974     -0.55428979170068
  O   -1.89933842846784      1.68045047733710      0.21279937403838
  N   -1.13375703211163     -0.77822548454498      0.17273867375722
  H   -0.81876313385764     -1.69247761639021      0.45863645431080
  H   -2.00162886588258     -0.44802952168059      0.56388642337265
  C   1.70571783617789     -1.30466738763312     -0.07737923834488
  N   2.10820869532104     -2.40523586608495      0.04864367435396
