11
Coordinates from ORCA-job run
  C   -0.31554727507072     -0.16350964357031     -0.00362832598287
  C   0.93815184980547     -0.66769013806734      0.11191059529041
  H   1.02621743708828     -1.71624219864285      0.38347680116041
  N   -0.54059602961574      1.26154587881422     -0.34501058032836
  O   0.37427164812609      1.87586059361190     -0.87945103202961
  O   -1.64670206069616      1.71817023624762     -0.05313310313399
  N   -1.48698421533176     -0.84786588739230      0.11292095050220
  H   -2.28649932179873     -0.27802117003264      0.34446091279035
  H   -1.43998610627686     -1.73887922477387      0.57984524533511
  C   2.15508099489744      0.03493817799237     -0.06989192521728
  N   3.22159307887269      0.52269337581319     -0.18049953838637
