11
Coordinates from ORCA-job run
  C   -0.18056763444667      0.15166639180185     -0.03436296222615
  C   1.08426551654016     -0.09184864335451     -0.46513735574647
  H   1.49289913412307      0.45672202175304     -1.30218620904783
  N   -0.96992096061341      1.19702460865738     -0.72491196913210
  O   -2.11696731130911      1.37476393170603     -0.31511977700068
  O   -0.42875941006501      1.81088389579642     -1.63778054409644
  N   -0.82954269791884     -0.40170975777205      1.01202541825591
  H   -0.47958496859805     -1.26997006171028      1.38366581182320
  H   -1.82059306430467     -0.22805078535573      1.05951590361833
  C   1.83892746779656     -1.08368449588070      0.20778303700727
  N   2.40984392879596     -1.91579710564143      0.81650864654496
