11
Coordinates from ORCA-job run
  C   -0.19017967625704      0.13494064403648      0.06852579810940
  C   1.13963685231511     -0.03165807944842      0.27991422461059
  H   1.70425439487438      0.72118152323003      0.81147236540556
  N   -0.81785463818292      1.39089487071048      0.54885254916224
  O   -0.15369620563328      2.12791003895956      1.26731556287528
  O   -1.96988144254403      1.60173410811543      0.16888148206825
  N   -1.07794659717679     -0.72384449817917     -0.48519333056009
  H   -0.69718090310297     -1.49289894810408     -1.01470758533400
  H   -1.93531092383038     -0.31570230783294     -0.82249657851499
  C   1.76579901266717     -1.20894583269502     -0.19796099578931
  N   2.23336012687075     -2.20361151879236     -0.62360349203294
