11
Coordinates from ORCA-job run
  C   -0.29260713824717     -0.09568903532829      0.17797682259672
  C   0.87308637881458     -0.75890434142335     -0.02319597353293
  H   0.90135378434206     -1.80660556700606      0.26409343331749
  N   -0.43983270029137      1.32975890217240     -0.20281658922971
  O   -1.59452377573496      1.73279381757606     -0.34903843500359
  O   0.57890970020964      1.99393390663987     -0.34771527790846
  N   -1.41865838373998     -0.58112212165310      0.77034090901205
  H   -2.26655330360271     -0.09302913391547      0.52444686893418
  H   -1.49725075300978     -1.58366274487432      0.82548761414747
  C   2.06243779065554     -0.23299242991986     -0.58585475681416
  N   3.09263840060414      0.09451874773213     -1.05372461551907
