11
Coordinates from ORCA-job run
  C   -0.29569936372786     -0.10027966405376      0.17033766644132
  C   0.87804199706120     -0.75296770234496     -0.01812579881443
  H   0.90746788649264     -1.80538359974619      0.25107325058822
  N   -0.44367871385398      1.33066486881788     -0.18768845821094
  O   0.57386156958304      2.00297953639612     -0.30014176732155
  O   -1.59754889562523      1.73012978261376     -0.34944123723250
  N   -1.43127846748929     -0.60353858535057      0.72883373210524
  H   -1.50448963700297     -1.60729890486073      0.76365025241457
  H   -2.27658294392178     -0.11556179256473      0.47393160094889
  C   2.07545195165294     -0.20962837651845     -0.54594793122350
  N   3.11345461683126      0.13088443761162     -0.98648130969533
