11
Coordinates from ORCA-job run
  C   -0.18851964797399      0.14764509801086     -0.03676993616905
  C   1.10841801666805     -0.04442509519359     -0.38687931133775
  H   1.65400101992704      0.73533286448680     -0.89898121395072
  N   -0.80264336265300      1.46389093843277     -0.34145899406325
  O   -1.91255842355018      1.67215063568742      0.14907516872748
  O   -0.16852910069106      2.24754474656160     -1.03759717435146
  N   -1.05778963590922     -0.72720344408538      0.52050462103091
  H   -0.66407241385349     -1.55393353894222      0.94272926718279
  H   -1.86595981173091     -0.32352375872248      0.96677715264029
  C   1.72091334916585     -1.28428864463720     -0.08131459640707
  N   2.17674001060089     -2.33318980159860      0.20391501669785
