11
Coordinates from ORCA-job run
  C   -0.31404401948308     -0.13245794484729      0.10000457549991
  C   0.92436313847515     -0.68501419288309      0.12371882704007
  H   0.98796875259583     -1.74749443956306      0.34284013693068
  N   -0.50735289960506      1.30387376520534     -0.21266249067003
  O   0.45133447713567      2.05457315756786     -0.08106931888079
  O   -1.63476409423724      1.62727032280690     -0.58872302281882
  N   -1.49149955308663     -0.75037164431976      0.39281121104210
  H   -1.48658088534399     -1.75709187562241      0.37035989542304
  H   -2.30834937628932     -0.31134203075271     -0.00413084227369
  C   2.15328723353821     -0.02316491450025     -0.12080072284550
  N   3.22563722630047      0.42021979690849     -0.32334824844698
