11
Coordinates from ORCA-job run
  C   -0.18441652146730      0.15619857058576      0.02185172979114
  C   1.16873681538843      0.07404336441795      0.08092332863698
  H   1.76789544665384      0.97347084805768      0.09900976623102
  N   -0.79565638447547      1.50619201981143     -0.05766655428311
  O   -0.06914760145777      2.47753369572096      0.11297566698842
  O   -2.00150573776899      1.54276589482247     -0.30405107241939
  N   -1.10056409937656     -0.83805763728553      0.08274697099554
  H   -0.76654870731240     -1.77703313857711     -0.07068611262237
  H   -2.01962534403878     -0.61460527485577     -0.26481863212034
  C   1.77522237964925     -1.20493415806381      0.13245014455667
  N   2.22560975420577     -2.29357418463403      0.16826476424543
