11
Coordinates from ORCA-job run
  C   -0.32172198668733     -0.13644809828958     -0.06678315794792
  C   0.90346155994548     -0.71734553073190     -0.09250971630679
  H   0.93468693928304     -1.80015848215424     -0.17916931345630
  N   -0.47115553202310      1.33175711220851      0.07303180912546
  O   0.48918757212895      2.03665531580512     -0.21145006735791
  O   -1.56623248944525      1.72700285520060      0.47522261749679
  N   -1.52552530538195     -0.75769394448469     -0.20790527831713
  H   -2.30653353883443     -0.25151359646205      0.18147128960615
  H   -1.53504657336679     -1.75268457389620     -0.05246305070229
  C   2.15561953201788     -0.06013675837284     -0.00456181521540
  N   3.24425982236351      0.38056570117727      0.08511668307532
