11
Coordinates from ORCA-job run
  C   -0.30291674406805     -0.08857367229332      0.16476264851599
  C   0.90595346915774     -0.70338092001336      0.15881618094342
  H   0.95644404293385     -1.70074595529575      0.58725452064529
  N   -0.47772275027295      1.26415577951050     -0.41590446473743
  O   -1.62954329656040      1.57568891338279     -0.72150940476488
  O   0.51818379112977      1.96369129711876     -0.55304536060145
  N   -1.45747292686444     -0.55730135905696      0.71438482467189
  H   -1.49644039130264     -1.54720340512425      0.89591720324336
  H   -2.29866804984720     -0.15452236294917      0.32953357390600
  C   2.11594971589163     -0.18677360008771     -0.36785570863498
  N   3.16623313980270      0.13496528480847     -0.79335401318722
