11
Coordinates from ORCA-job run
  C   -0.29488590424900     -0.08826213591827      0.17817521560444
  C   0.88811440039868     -0.73950343622419      0.05294375493715
  H   0.93006621514988     -1.76305074576046      0.41537419267173
  N   -0.46080406171475      1.30184974935707     -0.31009105437580
  O   0.54796334119520      1.97496927568824     -0.48123525219643
  O   -1.61933997196489      1.66869568511696     -0.51109595464981
  N   -1.42529275403871     -0.55304313771341      0.77878264406202
  H   -2.27632415184940     -0.10252651558900      0.47801426241260
  H   -1.48582390681057     -1.55010484803117      0.90702665590804
  C   2.08003719348770     -0.23060065455602     -0.51988893284306
  N   3.11428960039586      0.08357676363025     -0.98800553153089
