11
Coordinates from ORCA-job run
  C   -0.31648706221444     -0.13607414375914      0.09245206359467
  C   0.91700583594911     -0.69871131571976      0.09706882140683
  H   0.97008924614417     -1.76243833057001      0.31538385418634
  N   -0.49206235523025      1.30997723889494     -0.18908154872827
  O   0.47358963848145      2.04645576707390     -0.03285597706313
  O   -1.61626468795806      1.65462427831878     -0.55614579580914
  N   -1.49446929904057     -0.74083794791033      0.43229059000976
  H   -1.51772838714609     -1.73996722475114      0.29566654522034
  H   -2.30285092735272     -0.26703969135910      0.05287857605772
  C   2.15230938862418     -0.05157841862623     -0.15176993303184
  N   3.22686860974321      0.38558978840809     -0.35588719584327
