11
Coordinates from ORCA-job run
  C   -0.15230012580627      0.18719884605756     -0.02982635265258
  C   1.15777152865720     -0.11056692233030      0.16103715281125
  H   1.85849101089092      0.66671583781601      0.43095308773615
  N   -0.58451901447656      1.59026395442023      0.18584503572192
  O   -1.79974663268228      1.78766272035056      0.20157424682418
  O   0.28202066498298      2.44133841539711      0.34473013553472
  N   -1.15416414819655     -0.61744329666881     -0.45555803139495
  H   -0.98542573522429     -1.61104134370040     -0.42030638447080
  H   -2.08986263314211     -0.30379630061100     -0.25192643591796
  C   1.58531150147979     -1.45012533460186     -0.00883717598924
  N   1.88142358351717     -2.58120657612911     -0.15768527820268
