11
Coordinates from ORCA-job run
  C   -0.17863276463060      0.16337971124798     -0.02318260718839
  C   1.15488431520151     -0.00229558532755     -0.21220384283049
  H   1.78735476834547      0.85268458540652     -0.40479560172411
  N   -0.71761531373012      1.54544620162744     -0.04562318356753
  O   0.02699890599461      2.44742020803655     -0.40986985007389
  O   -1.88523137092824      1.67920975716598      0.32161881136137
  N   -1.13825385133613     -0.77780308878510      0.13516581306327
  H   -0.82940958422100     -1.70983850348060      0.36420230182801
  H   -2.00146336120571     -0.46490411290178      0.55012528202040
  C   1.69383992030815     -1.31117892417042     -0.16603202873751
  N   2.08652833620206     -2.42112024881902     -0.11040509415113
