11
Coordinates from ORCA-job run
  C   -0.18387419353670      0.14830172750687      0.05926571807395
  C   1.13943892190126     -0.06091247894336      0.27510459532393
  H   1.74128388400690      0.70463365301883      0.74406720978237
  N   -0.75110577454495      1.46375107771085      0.44527541889694
  O   -1.89698490244301      1.69538660757871      0.05871205282061
  O   -0.04816544661124      2.22390580154971      1.09998053699727
  N   -1.11327382018946     -0.71012055669074     -0.42185469187432
  H   -1.95533309978933     -0.29293978685071     -0.78562713888583
  H   -0.77068853382946     -1.53408215361080     -0.89148011761228
  C   1.70919721589414     -1.29731659254124     -0.11569669629481
  N   2.12950574914185     -2.34060729872813     -0.46774688722782
