11
Coordinates from ORCA-job run
  C   -0.18363892150577      0.15905666234073     -0.00953762365298
  C   1.15757367453807      0.07409775907920      0.17786446867183
  H   1.76791207298951      0.96563956180900      0.15225945366487
  N   -0.76236257101023      1.49705162650117     -0.28725348461856
  O   -1.94014867466873      1.51535001206360     -0.64601574836022
  O   -0.03754296624497      2.47589215694626     -0.15610270226697
  N   -1.11846502481378     -0.81628212729043      0.07701727527807
  H   -0.78520014619371     -1.76769647526773      0.05098161445953
  H   -1.99664015246957     -0.62696948216160     -0.37943859941235
  C   1.73582172349689     -1.19681755433307      0.41627567797060
  N   2.16269098588229     -2.27932213968714      0.60394966826619
