15

C	0.0	0.0	0.0
C	-0.499086	0.399089	-1.405581
Br	1.967842	0.0	0.0
H	-1.068149	1.315904	-1.34676
H	0.3472	0.509236	-2.087453
C	-0.393093	1.042243	0.94994
N	-0.51736	1.910171	1.734939
C	-0.354284	-1.386807	0.562397
H	0.052991	-1.447555	1.574643
H	0.091463	-2.166317	-0.050952
H	-1.44198	-1.427697	0.562139
N	-1.400998	-0.550243	-2.117814
O	-2.22986	-0.037037	-2.861951
O	-1.154022	-1.752412	-2.0689
F	-2.473457	0.0	0.0
