15

C	0.0	0.0	0.0
C	-0.506057	0.060679	-1.448899
Br	1.963859	0.0	0.0
H	-0.227161	1.021125	-1.879869
H	-1.603043	-0.093017	-1.336088
C	-0.396724	1.229592	0.679955
N	-0.526358	2.246042	1.254892
C	-0.435686	-1.233973	0.788785
H	-1.532791	-1.18252	0.777723
H	-0.053161	-2.120047	0.286813
H	-0.006832	-1.185636	1.792759
N	0.108148	-0.973089	-2.328591
O	0.851023	-0.583657	-3.235359
O	-0.164218	-2.158025	-2.119163
F	-2.731498	0.0	0.0
