12

C	0.0	0.0	0.0
C	-0.477398	-0.328369	-1.402483
F	1.348831	0.0	0.0
H	-0.03311	-1.284912	-1.697697
H	-0.380623	-0.76221	0.700975
H	-1.571002	-0.429635	-1.346838
N	-0.58979	1.245803	0.480157
O	-0.338999	1.518108	1.680521
O	-1.741499	1.446914	-0.10165
C	-0.094136	0.687175	-2.378646
N	0.230023	1.446649	-3.213801
H	-2.79867	0.0	0.0
