12

C	0.0	0.0	0.0
C	-0.47498	-0.293887	-1.410987
F	1.348734	0.0	0.0
H	-1.56779	-0.398653	-1.361525
H	-0.380531	-0.779204	0.681438
H	-0.028435	-1.242159	-1.72897
N	-0.589624	1.233283	0.512267
O	-0.340079	1.473617	1.719557
O	-1.741937	1.447281	-0.064035
C	-0.092069	0.744703	-2.362595
N	0.240307	1.5205	-3.179203
H	-2.802258	0.0	0.0
