12

C	0.0	0.0	0.0
C	-0.47652	-0.231046	-1.422081
F	1.348964	0.0	0.0
H	-1.569538	-0.335588	-1.376655
H	-0.379137	-0.810187	0.645383
H	-0.032478	-1.165434	-1.781865
N	-0.592799	1.206837	0.567251
O	-0.342758	1.393257	1.782732
O	-1.746486	1.444357	0.001578
C	-0.093087	0.847113	-2.32885
N	0.229233	1.659035	-3.113766
H	-2.805212	0.0	0.0
