16

C	0.0	0.0	0.0
C	-0.335645	0.047037	-1.518296
F	1.373226	0.0	0.0
H	-1.421378	0.044119	-1.605222
C	-0.471073	1.176321	0.761992
N	-0.54482	2.117889	1.468806
C	-0.713359	-1.176189	0.548732
N	-0.641527	-2.274237	1.013314
C	0.301772	-1.116795	-2.259579
H	-0.027179	-1.110593	-3.298245
H	-0.007518	-2.051969	-1.789802
H	1.390583	-1.051023	-2.22495
N	0.11082	1.317389	-2.173727
O	0.739655	2.157546	-1.534542
O	-0.206201	1.435568	-3.360082
H	-2.22355	0.0	0.0
