16

C	0.0	0.0	0.0
C	-0.379836	0.022642	-1.507922
F	1.37279	0.0	0.0
H	-1.458961	-0.118684	-1.551639
C	-0.694872	1.068875	0.749474
N	-0.639584	2.040076	1.440217
C	-0.380298	-1.320298	0.568689
N	-0.438503	-2.39907	1.043209
C	0.38157	-0.992927	-2.339841
H	0.185421	-1.996779	-1.959114
H	0.029173	-0.945272	-3.372733
H	1.459289	-0.81459	-2.312943
N	-0.131891	1.383849	-2.079092
O	-0.706069	1.626365	-3.143707
O	0.619681	2.159816	-1.490571
H	-2.305312	0.0	0.0
