16

C	0.0	0.0	0.0
C	-0.19937	0.024246	-1.573874
F	1.377558	0.0	0.0
H	0.195543	1.000594	-1.865527
C	-0.717879	1.15867	0.546125
N	-0.675844	2.257841	1.01209
C	-0.491435	-1.220508	0.658231
N	-0.543356	-2.235575	1.261435
C	-1.51118	-0.265549	-2.272128
H	-2.234998	0.513236	-2.051731
H	-1.919728	-1.217556	-1.938902
H	-1.318949	-0.300321	-3.355086
N	0.800606	-0.942717	-2.153669
O	1.740867	-0.48071	-2.797998
O	0.589896	-2.140126	-1.974954
H	-2.071669	0.0	0.0
