16

C	0.0	0.0	0.0
C	-0.230922	0.027013	-1.565171
F	1.385442	0.0	0.0
H	0.37746	-0.809668	-1.919857
C	-0.448899	1.207558	0.697116
N	-0.545569	2.227163	1.279749
C	-0.476317	-1.203158	0.690268
N	-0.469855	-2.149884	1.397998
C	0.215175	1.354636	-2.149475
H	1.186957	1.653594	-1.754668
H	-0.530246	2.112778	-1.914728
H	0.291576	1.261067	-3.235611
N	-1.60788	-0.284054	-1.917874
O	-1.921872	-1.480027	-1.642658
O	-2.411035	0.653942	-1.532351
H	-2.445013	0.0	0.0
