16

C	0.0	0.0	0.0
C	-0.313515	0.026749	-1.539313
F	1.357513	0.0	0.0
H	-1.383145	-0.070375	-1.682042
C	-0.404163	1.267402	0.661338
N	-0.47394	2.27145	1.27598
C	-0.942802	-1.061615	0.515233
N	-0.910281	-2.180994	0.951046
C	0.468351	-1.054285	-2.26164
H	1.538124	-0.866975	-2.21089
H	0.246826	-2.01295	-1.786861
H	0.155954	-1.096274	-3.307663
N	0.012439	1.355731	-2.150637
O	-0.917435	1.983831	-2.665132
O	1.186157	1.73197	-2.133142
H	-2.081946	0.0	0.0
