16

C	0.0	0.0	0.0
C	-0.233975	0.280481	-1.542636
F	1.384461	0.0	0.0
H	0.379046	-0.482508	-2.029133
C	-0.450258	1.079496	0.88133
N	-0.562077	2.001109	1.606752
C	-0.477345	-1.29958	0.48238
N	-0.463501	-2.361298	1.00327
C	0.200624	1.686847	-1.906624
H	-0.493332	2.402987	-1.469701
H	0.171201	1.796616	-2.993449
H	1.215552	1.887876	-1.558584
N	-1.610522	0.024293	-1.941971
O	-1.921221	-1.200785	-1.85392
O	-2.414536	0.89264	-1.41869
H	-2.43617	0.0	0.0
