16

C	0.0	0.0	0.0
C	-0.179491	0.147224	-1.562662
F	1.38194	0.0	0.0
H	0.450722	-0.648191	-1.966464
C	-0.59397	1.142896	0.702849
N	-0.583839	2.172722	1.298034
C	-0.619239	-1.234556	0.492988
N	-0.613186	-2.339617	0.93182
C	0.283701	1.511456	-2.033502
H	1.298502	1.685632	-1.676011
H	-0.372345	2.29114	-1.650421
H	0.277665	1.55848	-3.124618
N	-1.524249	-0.162217	-2.14486
O	-1.767124	-1.353125	-2.332363
O	-2.227418	0.769815	-2.527831
H	-2.010582	0.0	0.0
