19

C	-0.497383	0.017774	-1.44896
C	0.0	0.0	0.0
F	-0.101334	-1.192768	-2.034098
H	1.094865	0.0	0.0
C	-2.008107	0.054974	-1.534874
H	-2.416412	-0.786493	-0.967867
H	-2.321757	-0.035662	-2.578
H	-2.395124	0.999131	-1.13917
C	0.181464	1.125664	-2.231601
H	-0.108332	2.097377	-1.840663
H	-0.089784	1.05029	-3.291165
H	1.26264	1.014608	-2.128685
N	-0.47176	-1.223643	0.678735
H	0.348804	-1.734262	1.007669
H	-1.014925	-0.961172	1.499449
N	-0.407177	1.251318	0.642353
H	0.223403	1.427043	1.416763
H	-1.354423	1.160359	1.006501
Cl	3.51957	0.0	0.0
