19

C	-0.481592	0.090168	-1.448708
C	0.0	0.0	0.0
F	-0.172023	1.400034	-1.901332
H	1.094931	0.0	0.0
C	0.293717	-0.8689	-2.320226
H	0.087061	-1.892695	-2.008055
H	0.006296	-0.742026	-3.368047
H	1.361963	-0.678885	-2.203406
C	-1.984461	-0.051612	-1.57817
H	-2.281454	0.134646	-2.614619
H	-2.288952	-1.061274	-1.29409
H	-2.482705	0.670977	-0.92657
N	-0.451206	-1.261683	0.575099
H	0.253283	-1.596871	1.219667
H	-1.301929	-1.075749	1.094548
N	-0.537785	1.145435	0.75768
H	-0.01635	1.180085	1.627593
H	-0.263934	1.976348	0.245301
Cl	3.557869	0.0	0.0
