19

C	-0.434696	-0.013755	-1.474189
C	0.0	0.0	0.0
F	0.005501	1.210101	-2.025563
H	1.102702	0.0	0.0
C	0.288034	-1.113877	-2.226089
H	-0.098886	-2.095264	-1.938462
H	1.357487	-1.063896	-2.004625
H	0.137088	-0.986079	-3.301903
C	-1.935898	-0.058236	-1.673798
H	-2.170105	-0.102755	-2.741206
H	-2.400313	0.845968	-1.272115
H	-2.354815	-0.925554	-1.164399
N	-0.535813	-1.202851	0.660938
H	0.081085	-1.976852	0.432452
H	-0.398031	-1.028004	1.651407
N	-0.448705	1.1511	0.761754
H	-1.431318	1.325353	0.582965
H	0.079858	1.957266	0.453296
Cl	3.598777	0.0	0.0
