19

C	-0.438606	0.003508	-1.471754
C	0.0	0.0	0.0
F	0.041882	-1.203043	-2.028713
H	1.102669	0.0	0.0
C	-1.942332	-0.005298	-1.665172
H	-2.392387	0.830731	-1.129346
H	-2.366954	-0.939984	-1.289756
H	-2.182743	0.061614	-2.729748
C	0.240194	1.133005	-2.22217
H	-0.190341	2.09703	-1.936548
H	1.310962	1.128086	-1.999579
H	0.096664	0.996274	-3.297851
N	-0.442221	-1.149414	0.768909
H	-1.428382	-1.322908	0.603682
H	0.083002	-1.957207	0.456779
N	-0.540583	1.202935	0.654973
H	0.073234	1.978331	0.422981
H	-0.402063	1.033169	1.646235
Cl	3.600235	0.0	0.0
