19

C	-0.382452	0.000814	-1.483912
C	0.0	0.0	0.0
F	-1.771238	-0.26823	-1.601938
H	1.103289	0.0	0.0
C	-0.133997	1.352581	-2.115197
H	-0.372092	1.324214	-3.18203
H	0.917611	1.625659	-1.99218
H	-0.766099	2.096164	-1.628932
C	0.349285	-1.106219	-2.216397
H	0.05724	-2.079808	-1.818204
H	0.101035	-1.08397	-3.280856
H	1.426663	-0.983926	-2.084103
N	-0.468933	-1.182986	0.706728
H	-1.333857	-1.503784	0.286934
H	0.226279	-1.914104	0.635979
N	-0.558248	1.179722	0.679554
H	0.11913	1.932542	0.599928
H	-0.581987	0.921107	1.659858
Cl	3.525973	0.0	0.0
