19

C	-0.387845	0.01454	-1.4777
C	0.0	0.0	0.0
F	-1.784226	0.014754	-1.626447
H	1.10989	0.0	0.0
C	0.136023	1.277942	-2.134307
H	-0.377951	2.144906	-1.71471
H	-0.060772	1.251564	-3.209933
H	1.212806	1.367505	-1.966363
C	0.13884	-1.232731	-2.16256
H	-0.055592	-1.181612	-3.237733
H	1.215524	-1.325108	-1.994645
H	-0.375409	-2.109988	-1.765095
N	-0.531496	-1.203778	0.656948
H	0.131352	-1.94926	0.467879
H	-0.466958	-1.058593	1.659993
N	-0.532272	1.19127	0.678648
H	0.139793	1.936	0.519715
H	-0.488736	1.021023	1.678646
Cl	3.545181	0.0	0.0
