20

C	0.0	0.0	0.0
C	-0.300686	-0.075819	-1.539159
Br	1.990264	0.0	0.0
H	0.524437	-0.647191	-1.972754
N	-0.556555	1.18864	0.580093
H	-1.575216	1.099816	0.416141
H	-0.432303	1.140015	1.588369
C	-0.418206	-1.270783	0.727882
H	-0.066433	-1.241443	1.76458
H	-0.020155	-2.170573	0.250788
H	-1.515092	-1.288859	0.722253
C	-0.275106	1.317508	-2.164807
H	-1.153627	1.891497	-1.864594
H	-0.283697	1.224527	-3.256176
H	0.615519	1.875087	-1.867182
C	-1.586477	-0.8134	-1.912348
H	-1.508903	-1.883314	-1.693479
H	-2.462292	-0.429987	-1.367147
H	-1.74379	-0.707339	-2.992756
H	-3.585509	0.0	0.0
