20

C	0.0	0.0	0.0
C	-0.275845	0.000745	-1.552403
Br	1.995472	0.0	0.0
H	0.548726	-0.549483	-2.01644
N	-0.562746	1.070843	0.760096
H	-0.430815	1.955235	0.281738
H	-1.580307	0.881333	0.783552
C	-0.436988	-1.301719	0.648173
H	-0.031994	-2.165535	0.119403
H	-1.534244	-1.323184	0.62248
H	-0.101491	-1.318174	1.68692
C	-0.254204	1.421214	-2.115763
H	-1.159551	1.964536	-1.826088
H	0.628934	1.983112	-1.787195
H	-0.233433	1.380259	-3.21084
C	-1.571092	-0.700481	-1.957727
H	-2.432892	-0.340783	-1.381508
H	-1.740387	-0.529328	-3.029156
H	-1.497026	-1.778578	-1.801039
H	-3.568018	0.0	0.0
