15
Coordinates from ORCA-job run
  C   0.80915671874647     -0.29080427402300      0.23323437250401
  C   -0.59877564559791     -0.15493025593349     -0.36596413557254
  F   0.86774428032609     -1.61367200250008      0.75355598006388
  H   -0.61324172903906     -0.84342574289354     -1.22761299422115
  N   1.82180827202271     -0.04413602360745     -0.70588573367732
  H   2.73908042809970     -0.25873359019058     -0.33920729442857
  H   1.65675535690126     -0.52600675647741     -1.57811815616846
  C   0.97313623617323      0.60694668733119      1.39258341939737
  N   1.11674983634334      1.34385438520389      2.29431281872124
  N   -0.79122884885377      1.17891158807235     -0.87196903274261
  H   -0.96969668615790      1.80505146709628     -0.09367050091912
  H   -1.58910095538900      1.21061009550747     -1.49318657307614
  N   -1.54949465819016     -0.50563842588799      0.67972446048754
  H   -1.38182076188121     -1.44610424847696      1.01596138079647
  H   -2.49007184350379     -0.46192290322068      0.30724198883541
