15
Coordinates from ORCA-job run
  C   0.76323772024717     -0.16328908958757      0.47593131524516
  C   -0.72478682898319      0.10043421722505      0.22092775510679
  F   0.81154010742756     -1.31694111842740      1.30323629393340
  H   -1.20037092125424      0.22221886878305      1.20289222005884
  N   1.43545004105097     -0.34315623696086     -0.74533962381661
  H   2.41882545960082     -0.54206427509482     -0.62294823252256
  H   0.96568295233113     -1.06383241298649     -1.28035867341833
  C   1.37785417228490      0.92114348396909      1.25929535970640
  N   1.88459010070755      1.75110715291855      1.91564717495375
  N   -1.22045833044086     -1.06603247335142     -0.51865218427092
  H   -2.15562524169521     -0.87152155944232     -0.85502448155122
  H   -1.26996520838001     -1.86780914232836      0.10080234305439
  N   -0.84259902448074      1.34098497147870     -0.48921685231578
  H   -1.80365662928854      1.64768338809691     -0.55434345768069
  H   -0.44071836912732      1.25207422570790     -1.41384895648263
