15
Coordinates from ORCA-job run
  C   0.81256893578183     -0.32943880156068      0.21497663950745
  C   -0.64898796692442     -0.28157935896164     -0.25654525607322
  F   1.09867813840387     -1.64792212969307      0.56780142312224
  H   -0.70994508642107     -1.03059539288127     -1.06477072371900
  N   1.68313753327371      0.13701789611658     -0.81173545464293
  H   1.64807842926614     -0.50616991045909     -1.59535122328641
  H   2.63868750651530      0.19301572696936     -0.48082068489041
  C   0.98546852940092      0.49290339740711      1.42652673883957
  N   1.12665004906518      1.12830455144577      2.40261778502834
  N   -0.93304027888041      1.08418711119640     -0.65832904712685
  H   -1.84780119253153      1.13807834028358     -1.08807627162231
  H   -0.23317070511217      1.42690098396956     -1.30435353226041
  N   -1.50973941405786     -0.72738779627886      0.81143271635476
  H   -1.75752474111528      0.07098496496408      1.38518282501311
  H   -2.35505973666422     -1.14729958251784      0.45144406575610
