15
Coordinates from ORCA-job run
  C   0.76006436914427      0.08454307320495      0.43857685492241
  C   -0.49105170381562      0.07241581647745     -0.45095860169878
  F   0.25543409844801      0.11791801212095      1.77314028505067
  H   -0.14968663258315      0.20263531083040     -1.48249966140115
  N   1.56489410577015     -1.03331966239358      0.23752728639324
  H   2.55548998736417     -0.90403685443261      0.14706875738870
  H   1.13609558470873     -1.77199499823126     -0.29496960700988
  C   1.51767904924172      1.33653577083970      0.26849019493505
  N   2.17784280780990      2.29338009313101      0.10828064298898
  N   -1.30157577353330      1.21893295685444     -0.10415915665612
  H   -2.10442834615202      1.29300754104735     -0.71551491939121
  H   -1.61872837297488      1.14709489059519      0.85433892121341
  N   -1.05917415286212     -1.26898912044807     -0.35441509934045
  H   -1.41779993396905     -1.41736625646176      0.58254332442714
  H   -1.82605508659679     -1.37075657313415     -1.00744922182203
