15
Coordinates from ORCA-job run
  C   0.82079860129405     -0.15484013830928      0.23562230313939
  C   -0.60480434535613      0.36176750585325      0.01433540800698
  F   0.76086061568362     -1.54763618664516     -0.08525509050427
  H   -0.60497506847225      1.41934705529350      0.29033266420613
  N   1.73167322401454      0.54861540996060     -0.56211648299816
  H   1.38317220753580      0.59739281598845     -1.51168828018886
  H   2.66845602254216      0.17317998811334     -0.50970740551812
  C   1.22027696186756     -0.09573234318044      1.65219690017470
  N   1.57335200911404     -0.07011864212414      2.77066663501938
  N   -1.48302320194664     -0.34515941988754      0.91996327180850
  H   -1.48530763878448     -1.33508714584016      0.70663470082618
  H   -2.42871455617723      0.00797101926319      0.85471844172111
  N   -0.85295242870218      0.28253804108451     -1.42396124554361
  H   -1.03875130774528     -0.68037660287090     -1.68037262253699
  H   -1.66106109486759      0.83913864330078     -1.67136919761235
