15
Coordinates from ORCA-job run
  C   0.78030375601540     -0.45514638796002      0.24324454107398
  C   -0.61645112000289     -0.23633816853124     -0.34706532586297
  F   0.81956721118349     -1.73949535392252      0.77967055657284
  H   -0.67938540271639     -0.95355433092151     -1.17795516984609
  N   1.75022025866394     -0.35722705330028     -0.78997757651737
  H   2.68600224693591     -0.25972342767936     -0.41731123711571
  H   1.51922021380682      0.44651936964640     -1.36302749182752
  C   1.00464582348224      0.47636074422018      1.37774692066203
  N   1.23402668917892      1.26670054966042      2.21574125935084
  N   -0.66207343328844      1.09792200572183     -0.90602880183490
  H   -0.88466664501440      1.75299672790483     -0.16312283410669
  H   -1.37729021062124      1.16917164926253     -1.61759147229281
  N   -1.59399739025467     -0.43962183452585      0.70791529545287
  H   -2.52765866575740     -0.42348605214203      0.31519927004523
  H   -1.45446333161130     -1.34407843743337      1.14356206624626
