15
Coordinates from ORCA-job run
  C   0.79906288471014     -0.23503673867722      0.28913512431705
  C   -0.58254279750357      0.32192141981944     -0.08207894770810
  F   0.61156539589568     -1.64796856491338      0.36544191119708
  H   -0.51985010458405      1.41122267279412      0.00159125231166
  N   1.77223628292743      0.08843504743880     -0.65239561134896
  H   2.66026464643204      0.42622560091053     -0.33032171832114
  H   1.41452423096580      0.45870370555151     -1.51732767522329
  C   1.19284544150606      0.18714819193858      1.64452826615446
  N   1.56398676990205      0.55813959667914      2.69413336311460
  N   -1.53513082446700     -0.14386387726402      0.90139185577570
  H   -1.60427783106241     -1.15320895308323      0.87221753839891
  H   -2.44954066866036      0.25725011020815      0.73833720074490
  N   -0.79217120977356      0.01195798833381     -1.49337605674143
  H   -0.88784400089922     -0.99126938589449     -1.60785538476059
  H   -1.64212821538903      0.45134318615825     -1.82442111791085
