15
Coordinates from ORCA-job run
  C   0.61090586063157     -0.27730736848978      0.59063365261586
  C   -0.80460291265925      0.11250708048521      0.10822674956632
  F   0.47264803629312     -1.26331219119908      1.55571490490315
  H   -1.35119798170553      0.47155675294398      0.99162589800397
  N   1.34996393725386     -0.80190249768073     -0.50548659529068
  H   2.32815769811367     -0.92681418224332     -0.27918501023581
  H   1.24350073993367     -0.16850488006831     -1.29107631971384
  C   1.24811816996466      0.88273458761440      1.26301381151134
  N   1.72947111115025      1.85031128341265      1.72478081748167
  N   -1.53215582823821     -1.00707780566211     -0.43727148137821
  H   -1.77500213216910     -1.64645993619689      0.30906303901449
  H   -0.92709902188717     -1.50658051172257     -1.08061151852654
  N   -0.64273656397009      1.10255015850790     -0.94501372104835
  H   -0.43028993819146      2.01526784723758     -0.55839279856180
  H   -1.52068117451998      1.16203166306105     -1.44602142834156
