15
Coordinates from ORCA-job run
  C   0.76890981779206     -0.18824289607051      0.56239437155051
  C   -0.70734773039145      0.05952494397435      0.21589135200555
  F   0.74984937996691     -1.20825473857398      1.53807053084112
  H   -1.22276413979649      0.29383792487577      1.15677284899683
  N   1.54086109282979     -0.59696863801858     -0.54145458467643
  H   2.24362714042427      0.05096069502832     -0.85283825039248
  H   0.97707918363610     -0.99132657854538     -1.28001602870140
  C   1.35188969394480      0.99916743104702      1.20834959417019
  N   1.82806445450962      1.92848314398754      1.74325463002247
  N   -1.18439395357468     -1.15824106986637     -0.43525175954465
  H   -2.16163427983965     -1.04917576324164     -0.67864615723754
  H   -1.10485655701020     -1.94331798429460      0.20254853307834
  N   -0.78836211793842      1.21515682773827     -0.64036842664506
  H   -1.70418501974606      1.64067685974547     -0.60346258299015
  H   -0.58873696480661      0.94771984221431     -1.59624407047730
