15
Coordinates from ORCA-job run
  C   0.79295204209786     -0.30741370699867      0.26114061598203
  C   -0.58958054074922     -0.13793468440613     -0.38666510592101
  F   0.79940850311177     -1.62543550549815      0.79715617479962
  H   -0.58771693609610     -0.81485212147081     -1.25758949121611
  N   1.84324911049629     -0.10085755242395     -0.64676543875621
  H   2.74292232793878     -0.31199787936825     -0.23652144964058
  H   1.70727228719983     -0.61949953078764     -1.50350468317114
  C   0.94332809533398      0.60072629047822      1.41373366518740
  N   1.07641959644763      1.34425013164777      2.31154211060864
  N   -0.73649136407650      1.20628449946061     -0.88078364886028
  H   -1.49369164462922      1.25889727361640     -1.54952223919321
  H   -0.95300728713411      1.82200030600611     -0.10391889085213
  N   -1.58528358336078     -0.47912016498761      0.61911516926414
  H   -1.45054495764153     -1.42603434295159      0.95151154825659
  H   -2.51023564893869     -0.41001301231631      0.21307166351224
