15
Coordinates from ORCA-job run
  C   0.73446562835818     -0.31026881514613      0.19736583560183
  C   -0.67166107631128      0.25284620475990     -0.04019398483982
  F   0.68173536959781     -1.68730475863642      0.15378087587240
  H   -0.59023267104536      1.34572491319588      0.08447120794770
  N   1.63531826299053      0.10001043315315     -0.84871203368881
  H   2.53153024790824     -0.35728061052824     -0.72128467251173
  H   1.78299187915817      1.10228270857497     -0.80736953164117
  C   1.19982029519629      0.06474829083900      1.55607797400021
  N   1.66341966498493      0.42774265459711      2.57199105805456
  N   -1.51851306263699     -0.23124155557746      1.02546361807963
  H   -1.78163864880435     -1.18418854853806      0.80051433600027
  H   -2.36260782948735      0.32235241800157      1.09010216785920
  N   -1.10334046348121     -0.16695136796248     -1.36231831514031
  H   -0.33507097279707     -0.09388946294980     -2.01951134300124
  H   -1.86721662363055      0.41641749621701     -1.67937719259272
