15
Coordinates from ORCA-job run
  C   0.77769612489551     -0.19988875389734      0.54310905710508
  C   -0.70654769301921      0.04057785073052      0.22732164633635
  F   0.78583199523366     -1.25873217662761      1.47869619116792
  H   -1.21251394700291      0.22329259811750      1.18454236010765
  N   1.53550272527797     -0.55117802097091     -0.58754959415964
  H   0.96990007756962     -0.91453449964098     -1.33993723195050
  H   2.25013043506640      0.09707526014982     -0.86815215587156
  C   1.35424645223624      0.96760594649248      1.22972283978060
  N   1.82727720761023      1.87986229000189      1.79587626315286
  N   -1.17385025089776     -1.15409715672795     -0.47257098125070
  H   -1.07176249709848     -1.96577493866739      0.12775169416373
  H   -2.15657955371294     -1.05046441412334     -0.69563157595488
  N   -0.81751123107408      1.23288391621279     -0.57307631370504
  H   -0.62217982406764      1.01446341697638     -1.54220927140050
  H   -1.74064002101661      1.63890868197415     -0.50789292752139
