15
Coordinates from ORCA-job run
  C   0.82223639243515     -0.45883687452507      0.20134172084352
  C   -0.63135428730392     -0.36754005951977     -0.27832263065232
  F   1.11845517957934     -1.77462313197478      0.47465941695799
  H   -0.73860328150194     -1.21330744885866     -0.96921499170172
  N   1.70636260241129     -0.03183566399560     -0.84730036808250
  H   2.66546553908303     -0.20755749627138     -0.56908488558097
  H   1.58747462588882      0.96506198697588     -0.98677994683287
  C   0.99036689265427      0.30108453377960      1.46780890220961
  N   1.12396613099144      0.95998837735836      2.43073743964328
  N   -0.80092282110658      0.93456102227849     -0.93067854450120
  H   -0.55420264194617      0.86995486731455     -1.91137892342460
  H   -1.77153441522826      1.21353632480976     -0.87313229081457
  N   -1.51079759551824     -0.58644997088656      0.83757293250174
  H   -2.43869685721858     -0.84469286858522      0.53099033489810
  H   -1.56721546321964      0.23865640210040      1.42378183453650
