15
Coordinates from ORCA-job run
  C   0.66423294087426     -0.05768719734987      0.42467073809977
  C   -0.64235913377610      0.03871382088794     -0.39625713475574
  F   0.35503435295285     -0.22907431433748      1.75523115345267
  H   -0.34865284217966     -0.04966036079606     -1.45672907099505
  N   1.39408262351682     -1.22577910604523      0.01522772801439
  H   2.22126448572696     -1.33820748753223      0.59037169333358
  H   1.68422581598814     -1.14345702155231     -0.95189475492017
  C   1.44068612022612      1.20260387749533      0.31463768783685
  N   2.06248759473067      2.18159379410636      0.12571081081322
  N   -1.31953622384856      1.27182924885104     -0.05992054705855
  H   -2.25320382638905      1.22716801957269     -0.44915073622205
  H   -0.84594606018641      2.07840888666650     -0.44768685315886
  N   -1.54972388084349     -1.04252723783350     -0.09837755296049
  H   -1.77938742484253     -0.98536044317306      0.88860383021643
  H   -1.08220454195004     -1.92756447896012     -0.25543699169600
