15
Coordinates from ORCA-job run
  C   0.72042657011772     -0.15747566906919      0.46704753679445
  C   -0.78566453071513      0.02217399833154      0.18158041944417
  F   0.82146748087758     -1.24846147056042      1.36659876792839
  H   -1.27555663232564      0.15547367729947      1.15573191919087
  N   1.41659089304122     -0.36558809186872     -0.73464599552338
  H   0.96183741105224     -1.10805182474095     -1.25389749281099
  H   2.40113268976627     -0.54529683101847     -0.59365777598801
  C   1.25121249055199      1.01550493756640      1.18453462232717
  N   1.62310180285863      1.96911049384069      1.75893302180143
  N   -1.20515045067911     -1.17421314909490     -0.53201196576036
  H   -2.11943658005224     -0.99116206521583     -0.92586062204216
  H   -1.26812774227156     -1.95919079456470      0.10434315130957
  N   -1.09199529636977      1.16497573485312     -0.64159177110198
  H   -1.00353089338311      2.02382470438341     -0.11391342952438
  H   -0.44730721246908      1.19737634985854     -1.42319038604479
