15
Coordinates from ORCA-job run
  C   0.78614341758657     -0.44177725880077      0.24180016715767
  C   -0.61133616868398     -0.23634238217484     -0.35161714759435
  F   0.83512336845456     -1.72490868668199      0.78046094506770
  H   -0.66538391709594     -0.95632509977548     -1.18087390349196
  N   1.75630356909553     -0.33841241293469     -0.79133421424587
  H   2.69047085403129     -0.22888747651577     -0.41822617052319
  H   1.51724810012407      0.45991876046062     -1.36867095646722
  C   1.00115040744006      0.48675577901479      1.37998316687625
  N   1.19857550991039      1.21102268920142      2.28307935355339
  N   -0.66788607587238      1.09637102056486     -0.91416903272898
  H   -0.90514726670712      1.74996747363097     -0.17433764548576
  H   -1.37859178391675      1.15670643268182     -1.63125174545406
  N   -1.59090482545431     -0.44525905800894      0.70032563076679
  H   -2.52274552209688     -0.44387005569140      0.30308007884430
  H   -1.44201966681512     -1.34495972497061      1.14275147372528
