15
Coordinates from ORCA-job run
  C   0.78845198581870     -0.32332544669851      0.22867064216191
  C   -0.55991431386669      0.36694715652420     -0.02158010877975
  F   0.50422955139843     -1.71785107307333      0.13320650600725
  H   -0.41849019788509      1.43085687600794      0.19219514604153
  N   1.75858467536429      0.05038356894357     -0.69926295193946
  H   1.40151785734770      0.55302642215842     -1.49527768659719
  H   2.66951538590881      0.30149500659333     -0.36213343601223
  C   1.24590582460015     -0.10348227440803      1.61181959085585
  N   1.66849385089768      0.10604326792545      2.68623288694219
  N   -1.51632899374352     -0.15323946124535      0.93023966192087
  H   -1.65569723169401     -1.14448029896732      0.78114906643956
  H   -2.40497192152771      0.32343079478451      0.84852717321244
  N   -0.82830061215171      0.25049737329746     -1.45215045977316
  H   -1.65464198836926      0.78177528119230     -1.69646925721216
  H   -0.99535387209775     -0.72207719303464     -1.68616677326765
