15
Coordinates from ORCA-job run
  C   0.72856666110088     -0.16013351542161      0.45361052496489
  C   -0.78283180151870      0.01459738081978      0.19396050588312
  F   0.85004435359479     -1.26363333448936      1.33512465696834
  H   -1.25831713113168      0.13024128355992      1.17746477410735
  N   1.40716347628358     -0.34575719822587     -0.76151567317242
  H   0.94839306080077     -1.08209136989859     -1.28567894260468
  H   2.39490262909606     -0.52106469430684     -0.63936475242893
  C   1.26310166563379      1.00538540703551      1.18073611853428
  N   1.63887635008409      1.95252199342840      1.76325177851755
  N   -1.20616602059424     -1.17337927214790     -0.53131782799708
  H   -1.25253296945259     -1.96873196606532      0.09350625964402
  H   -2.12839010272297     -0.99089582181699     -0.90640558892027
  N   -1.10861426290272      1.16775784445405     -0.60686895033355
  H   -1.01771520418062      2.01909817420567     -0.06772957605521
  H   -0.47648070409042      1.21608508886915     -1.39777330710741
