15
Coordinates from ORCA-job run
  C   0.76392379042429     -0.18232447393019      0.56392584607094
  C   -0.71159270553568      0.06291808275659      0.21311182782313
  F   0.74101354242882     -1.18957667479622      1.55737929147694
  H   -1.22920497550065      0.29303882558629      1.15366107850088
  N   1.52594950512706     -0.60111481921063     -0.53641666275588
  H   2.29599740629643     -0.01897711474961     -0.81250015574599
  H   0.97355694327905     -0.98441255798243     -1.28758323808071
  C   1.35001885516329      1.00996567720181      1.19785814615526
  N   1.83370133353755      1.94177522278480      1.72165160232267
  N   -1.18372192632901     -1.15599121222770     -0.44091675801225
  H   -2.16183393579578     -1.05014265705058     -0.68216559764751
  H   -1.10052784114669     -1.94160018216177      0.19594076548937
  N   -0.79590445571944      1.22041686054973     -0.63924396720919
  H   -1.71643698927896      1.63609990347653     -0.60967748482086
  H   -0.58293854695028      0.95992511975338     -1.59402469356681
