15
Coordinates from ORCA-job run
  C   0.71624541997501     -0.08654178556522      0.24608753294194
  C   -0.74140555476339      0.22016769012152     -0.13988323412247
  F   0.85127340042331     -1.46909596154613      0.31452758626072
  H   -0.82891718714313      1.31102132480759     -0.21794191030647
  N   1.61255219022711      0.36408775109041     -0.78092693806766
  H   2.56611372072795      0.12032855247109     -0.53591594744423
  H   1.55831080156317      1.37281903393857     -0.86748029414124
  C   1.04265203918425      0.44025883237538      1.59206503056044
  N   1.38097071049274      0.92484850384807      2.60721602840920
  N   -1.57667637430380     -0.22265406361371      0.94994067449147
  H   -2.54480937098867     -0.05874743858965      0.70222178764901
  H   -1.45755776003024     -1.22067974726065      1.08385495649143
  N   -1.11387095758688     -0.34785230326825     -1.42363931057428
  H   -0.49447803971553      0.00411232452611     -2.14607843888155
  H   -0.97040303806188     -1.35207271333513     -1.38404752326632
