15
Coordinates from ORCA-job run
  C   0.76818506595340     -0.32360607450475      0.21746466705505
  C   -0.61882377652554     -0.24995082660009     -0.45439340377727
  F   0.90022942134310     -1.66934706604286      0.63721183718252
  H   -0.59088402954909     -1.04176183222922     -1.21391281926945
  N   1.80449970303076      0.09096495292400     -0.63378389503879
  H   1.65173041417651     -0.19269282989317     -1.59097544382928
  H   2.71637894130927     -0.18852997041561     -0.29828856931139
  C   0.78125101560864      0.47759081530202      1.46018062762139
  N   0.72542666475572      1.14683067018297      2.42323866458601
  N   -0.76812083707937      1.02288919204827     -1.11726517327092
  H   -0.55447142447776      1.78837761880864     -0.48724898393754
  H   -1.73501026309949      1.11369598407557     -1.40680192212067
  N   -1.71691656805258     -0.57207525068063      0.43694470357374
  H   -1.60057784855715     -1.49945206989007      0.82857225369516
  H   -1.76389647883640      0.09506668691492      1.20005745684144
