15
Coordinates from ORCA-job run
  C   0.79155278231195     -0.22273554133990      0.27585742307122
  C   -0.56849416304914      0.41536961813835     -0.02560567291271
  F   0.60911647092830     -1.61727516795622      0.01260721861001
  H   -0.47675933230584      1.47988646925671      0.20473603366453
  N   1.79509375378211      0.35284848402284     -0.51263777957125
  H   1.48829982717119      0.39155952453912     -1.47687992803578
  H   2.68850437990035     -0.10726376456907     -0.40585308383130
  C   1.14233554138726     -0.13380288309249      1.70376672580246
  N   1.47461707332170     -0.05771314518719      2.82632084572895
  N   -1.54281022606733     -0.16270814671100      0.87346319213919
  H   -2.44664805279066      0.27627191591285      0.75613222514469
  H   -1.63440399637647     -1.15626288673576      0.70025873758720
  N   -0.77067892253861      0.29267040649799     -1.46779380141969
  H   -1.03474689314640     -0.66032459901909     -1.69041905048458
  H   -1.51397824252841      0.90847971624287     -1.77195308549293
