15
Coordinates from ORCA-job run
  C   0.78948289586073     -0.32875719748692      0.20561283832534
  C   -0.65773437973566     -0.36679501309551     -0.33432687533694
  F   1.12573975746922     -1.59228756787957      0.68752206879873
  H   -0.63964976085950     -1.10771015638300     -1.14423830311627
  N   1.67936092645172      0.10056134250552     -0.81717416870703
  H   2.62572036686594      0.18286621743119     -0.46587741320447
  H   1.67041008674508     -0.57407794065321     -1.57458398818395
  C   0.85697905281585      0.60869291699323      1.34541399209633
  N   0.83341521610373      1.35948684199107      2.24748360412773
  N   -1.09139762045202      0.90161004698647     -0.89589270843629
  H   -1.18823599932257      1.58689112056586     -0.15355887780772
  H   -0.40116803801633      1.25402018299479     -1.54925951375797
  N   -1.53561653731633     -0.86388537702717      0.69514109108299
  H   -2.46241561240355     -0.96695562994516      0.30008153787242
  H   -1.60289035420630     -0.19365978699758      1.45465671624710
