15
Coordinates from ORCA-job run
  C   0.66005501137069     -0.21119237120433      0.54512699038594
  C   -0.79343975184601      0.12237604303308      0.15449558235731
  F   0.64345744877816     -1.23248921291410      1.48167665696941
  H   -1.27910198371020      0.53341545078167      1.04550059855773
  N   1.35267316249214     -0.68917851470585     -0.61193895420558
  H   2.31022846591872     -0.92576840398134     -0.38030734488974
  H   1.34679732112173      0.04959773553868     -1.30677639283026
  C   1.29485437424846      0.95483148975414      1.20463647974428
  N   1.77561546196351      1.90424632181462      1.70221801945435
  N   -1.51192527523044     -1.05991230373058     -0.27145347056845
  H   -0.87166714886496     -1.64901435113202     -0.79588934158300
  H   -1.81181162114468     -1.59066076254843      0.53617071489710
  N   -0.71406207798113      1.11632361740240     -0.91498395865436
  H   -1.22214613262285      1.95389547153450     -0.66432792422871
  H   -1.17852725449313      0.72252979035756     -1.72514765540605
