15
Coordinates from ORCA-job run
  C   0.70650187145906      0.00106496091182      0.44931397030663
  C   -0.62317090425637      0.02258444645865     -0.35182806977329
  F   0.37688273907072     -0.04317833918867      1.79956023433035
  H   -0.34944917780050     -0.10351228729716     -1.41313243663198
  N   1.48482269412723     -1.13566933076975      0.11167007943896
  H   1.15900873386850     -1.62566964792375     -0.70624381571746
  H   2.47885938977911     -0.97635773007669      0.07540801436265
  C   1.44947435770888      1.26171517654082      0.24318575730372
  N   2.03455451236586      2.25103880416358      0.00113227707780
  N   -1.32695300669602      1.24803330455479     -0.05245976635232
  H   -2.27008111468077      1.15924177788935     -0.40777890519593
  H   -0.88499429159309      2.05293311401749     -0.47852805797726
  N   -1.50135718400186     -1.06414241573784      0.01402343598595
  H   -1.57745711679098     -1.09119283765989      1.02440383334209
  H   -1.15664150255979     -1.95788899588277     -0.30972655049992
