15
Coordinates from ORCA-job run
  C   0.82895267425516     -0.14785635972813      0.58994636208879
  C   -0.67338112575133      0.02177592999476      0.25390902493809
  F   0.87122251172130     -0.90349243921208      1.74601387744877
  H   -1.17327805687063      0.28917253019746      1.19664924046661
  N   1.60361666286701     -0.82089511379175     -0.40032797972643
  H   1.70908122328977     -0.23087032332223     -1.21704190119866
  H   1.08567248897390     -1.65589897726550     -0.65854283225485
  C   1.42805063879991      1.17262398703772      0.88339226482083
  N   1.83318836100873      2.25344140520528      1.09653962040315
  N   -1.16265577125356     -1.26358006375637     -0.19990913876885
  H   -1.30317734145338     -1.24092069275923     -1.20159068080772
  H   -2.01966614280772     -1.53017314293223      0.26048982965320
  N   -0.80020218814328      1.01084318985718     -0.80685682127586
  H   -1.78111358503753      1.13030409574657     -1.03182035312364
  H   -0.44631034959834      1.91452597472854     -0.51185051266345
