15
Coordinates from ORCA-job run
  C   0.69797653621250     -0.22969792631292      0.20179502006886
  C   -0.69708516928094      0.35358349753036     -0.08192902098143
  F   0.60064456350528     -1.61428664376014      0.11348687231324
  H   -0.60287095587148      1.44575254855277     -0.03789213271109
  N   1.62948855982479      0.18293933970117     -0.80983703135412
  H   2.53422345559562     -0.24163450917721     -0.63734621725286
  H   1.74467391985621      1.18988115069930     -0.78255646423740
  C   1.14508068782276      0.07819416300901      1.58057161889743
  N   1.58808532314460      0.38069100830960      2.62554082701022
  N   -1.56557901715069     -0.06684724488349      0.99037728113014
  H   -1.61781995465543     -1.07935769080633      1.00731936355518
  H   -2.49716389225230      0.28685202732737      0.81032976711840
  N   -1.19322773510472      0.00366618242424     -1.40160827593248
  H   -1.22997067894696     -1.00837101627308     -1.47213229847974
  H   -0.53645564269926      0.31863511365936     -2.10811930914435
