15
Coordinates from ORCA-job run
  C   0.79747258576610      0.10271670331761      0.36205690821848
  C   -0.53576722454844      0.06312176825590     -0.39794489228665
  F   0.42934289237553      0.10303645820729      1.74080901123901
  H   -0.30396457292433      0.21880099954510     -1.45602850064154
  N   1.61072651982782     -0.98668233204936      0.06288152225019
  H   1.15244296866853     -1.73108130848344     -0.43601976508270
  H   2.58331424156778     -0.82600507975780     -0.12254398954532
  C   1.49665071115178      1.37996283040979      0.13721863952376
  N   2.10890348406177      2.35869662010299     -0.07286874715685
  N   -1.34168945118051      1.17822197120641      0.04777303323421
  H   -2.20301916293123      1.23628470416017     -0.47975832634769
  H   -1.55971358539991      1.08260921563198      1.03151454668240
  N   -1.05050887522004     -1.29693767372339     -0.26830799077174
  H   -1.87518965026467     -1.41384326062234     -0.84375845242760
  H   -1.30900088095020     -1.46990161620089      0.69697700311202
