15
Coordinates from ORCA-job run
  C   0.64071307895012     -0.20718972489741      0.58801805990431
  C   -0.80642112146853      0.07281742960337      0.12304588120678
  F   0.58327072891361     -1.14285597901837      1.61017322535768
  H   -1.35146460891804      0.45282219600778      0.99857263803078
  N   1.38275497624823     -0.75053710137454     -0.49640272726483
  H   1.21947325754709     -0.17245537995177     -1.31405981918770
  H   2.37173103344701     -0.80689398687690     -0.29100385852380
  C   1.22321593753609      1.02370067351067      1.17861817563286
  N   1.65484895715826      2.04247313121192      1.57484371396123
  N   -1.48066029786889     -1.11636658965765     -0.33694406874521
  H   -1.66906127449489     -1.72261247688955      0.45165154923851
  H   -0.86249037533776     -1.61854913910827     -0.96554641091280
  N   -0.72766058118340      1.00635947944317     -0.98987211072319
  H   -1.62043967818951      0.98760373319555     -1.46747798997600
  H   -0.55781003233938      1.95068373480198     -0.66261625799862
