15
Coordinates from ORCA-job run
  C   0.69988536922303     -0.07232640493099      0.49462708469945
  C   -0.79265177970251      0.14132255192366      0.14047650778389
  F   0.68306240369113     -0.93508200450288      1.61900173685973
  H   -1.22423447339542      0.59774871224228      1.04406397041561
  N   1.45035635824163     -0.58235292002702     -0.57547201993418
  H   2.38009674602223     -0.86221371710107     -0.29221975451950
  H   0.97105346718727     -1.34327660371795     -1.03568711592376
  C   1.30354895738130      1.18749197407349      0.97067502298800
  N   1.73577111940256      2.21711809901294      1.33317415459486
  N   -1.52194949657469     -1.07987137613684     -0.10127731841048
  H   -1.37965590599605     -1.75401515669848      0.63911407265802
  H   -1.27219625967309     -1.46858069145648     -1.00174980768328
  N   -0.89816663076623      0.94153196497772     -1.05803232719221
  H   -1.85232267431623      1.26688690171997     -1.15096893523439
  H   -0.28259720072491      1.74461867062166     -1.02772527110177
