15
Coordinates from ORCA-job run
  C   0.68990653035642     -0.32335280793248      0.17049779619007
  C   -0.69331644804721      0.28458917166828     -0.14856155573538
  F   0.61970106579994     -1.69636799604927      0.10368728594753
  H   -0.57540612414195      1.37773754286357     -0.03135371030545
  N   1.66604541192605      0.09957941004576     -0.79471975380904
  H   2.55833871972635     -0.34410254991415     -0.60771869814038
  H   1.79102085854201      1.10450665560396     -0.75167125506342
  C   1.04633160748992      0.01605991315806      1.57461920594082
  N   1.32299718694106      0.36518516644567      2.66172480243686
  N   -1.74317097491589     -0.12768961596388      0.74953809813740
  H   -1.58207441322443      0.19246108196160      1.69637054004604
  H   -1.81011964399412     -1.13838571708910      0.73335275572386
  N   -1.06166164582609     -0.15605680434193     -1.47200835358492
  H   -0.31876307321617      0.02666698396792     -2.13305497126128
  H   -1.90982905741587      0.31816956557598     -1.75170218652272
