15
Coordinates from ORCA-job run
  C   0.67370111338659     -0.08285245289471      0.53054435745294
  C   -0.81424889834135      0.17174767498529      0.23061144122516
  F   0.70627480366244     -1.06884593732008      1.54094819519808
  H   -1.27143551576809      0.43961505797567      1.18836102952981
  N   1.36520975253501     -0.50339945473198     -0.63374496884832
  H   2.36417220708806     -0.55082259679208     -0.47888084360935
  H   1.03072551437908     -1.41574415113382     -0.91701804775496
  C   1.32027542379758      1.11420594226594      1.09148581424409
  N   1.86159831536107      2.03443842014361      1.57861500699625
  N   -1.51707336160224     -1.00277238140789     -0.26255771846583
  H   -1.20580646944374     -1.25375429073820     -1.19301230582190
  H   -1.40916309295536     -1.79258181102983      0.36307193218806
  N   -0.88370422067357      1.30270103310407     -0.65309962621632
  H   -0.36973151828726      1.10982873389164     -1.50459981576916
  H   -1.84979405313822      1.49923621368236     -0.88072445034856
