13
Coordinates from ORCA-job run
  C   1.00410183614506     -0.84556857569948      0.36429918968856
  C   0.11247355396844      0.13060304053912     -0.36900430779769
  Br  2.84324801149867     -0.23043635622081      0.42584296484541
  H   0.52586415465482      0.38187910212596     -1.34601627440111
  H   0.66924036085409     -0.97193440977317      1.39232708932522
  H   1.00491900329199     -1.80496323784582     -0.15247141015359
  N   0.07639818358976      1.43213417439453      0.38000674890099
  O   -0.18917294208992      1.37191692869580      1.57795045629374
  O   0.27448802458905      2.45812807071874     -0.26438800121863
  C   -1.31509345247838     -0.38466299408058     -0.47878181428855
  H   -1.94889622054746      0.35801662835342     -0.96759514755494
  H   -1.72057937379859     -0.59673990157247      0.51173779319257
  H   -1.33599113967753     -1.29837246963525     -1.07590728683198
