13
Coordinates from ORCA-job run
  C   1.20955960094601     -0.59279045626409      0.28138058518938
  C   0.05017199400188      0.16202235783947     -0.35044418499107
  Br  1.50111438387699     -2.28157097577415     -0.63271394252445
  H   0.26812815989922      0.34040777712391     -1.40865660392749
  H   2.13471829756258     -0.03151336038300      0.20186049064011
  H   1.00397904540371     -0.81926405908285      1.32800378687773
  N   0.01752893895751      1.55837134995807      0.25579271331387
  O   -1.06177812473929      2.13993996730140      0.27855072364050
  O   1.08451553564533      2.03364070648521      0.63875840795542
  C   -1.30150832496913     -0.50070784183768     -0.18120148010197
  H   -2.08462849801779      0.09252233482918     -0.64800302690812
  H   -1.53964795979020     -0.61334903918759      0.87907256353126
  H   -1.28315304877683     -1.48770876100787     -0.64240003269517
