13
Coordinates from ORCA-job run
  C   1.13266183565489     -0.63043239225063      0.46403491341091
  C   0.12099402699093      0.14221592167320     -0.36682160113202
  Br  1.51254949253725     -2.34398497287863     -0.36399813954012
  H   0.48073709717932      0.26968023101444     -1.38832026936202
  H   0.75411122312752     -0.82239275636606      1.46562192257941
  H   2.07929756866846     -0.09412970815017      0.52528948480927
  N   0.05689714318114      1.53525378904842      0.19529002339869
  O   0.11739974559562      2.47001631442120     -0.59892381460816
  O   -0.08116335442491      1.63413476775415      1.41367346849491
  C   -1.28357594999603     -0.43343825303831     -0.33988499685511
  H   -1.96437127032934      0.20784898868535     -0.90313635525082
  H   -1.63784782486072     -0.50994444041439      0.68987692663150
  H   -1.28868973332414     -1.42482748949857     -0.79270156257645
