13
Coordinates from ORCA-job run
  C   1.12762984634683     -0.74964893701941      0.14657048327474
  C   0.01326761875675      0.12087826048996     -0.38845759873312
  Br  2.87408961126282      0.00265108989311     -0.23925254060571
  H   0.16974094641985      0.35430965199438     -1.44184992045317
  H   1.04943912030281     -0.85081330361167      1.22757811527902
  H   1.09005804527639     -1.72999203216440     -0.32775861212043
  N   0.04105317187088      1.45061382301900      0.30908267432714
  O   0.00108950214084      2.45612808285040     -0.39421627035853
  O   0.06228160905333      1.42919962957294      1.53724261638555
  C   -1.35322711424973     -0.50431178355628     -0.14909532295402
  H   -1.43294286685362     -1.44562218452815     -0.69625409621352
  H   -2.14165475074073      0.16402081875928     -0.50110640385631
  H   -1.50282473958645     -0.69641311569917      0.91451687602835
