10
Coordinates from ORCA-job run
  C   0.49366937946594     -0.33645230689620     -0.29413691229440
  C   -0.49364581929757      0.33655325146002      0.29403239574006
  H   0.36902842888342     -1.09620611333166     -1.05307799792247
  H   -0.36904400586528      1.09580208394657      1.05348505758334
  N   1.87805601154830     -0.06521707258977      0.08031106107603
  O   2.72227570229226     -0.73661111401805     -0.51370783092034
  O   2.09782060298967      0.78740764527136      0.93583012744178
  N   -1.87804151745679      0.06520950597528     -0.08030627930703
  O   -2.72254084473776      0.73302031340006      0.51734318010729
  O   -2.09757793782219     -0.78450619321762     -0.93877280150425
