10
Coordinates from ORCA-job run
  C   0.62351127977846     -0.35352413470968     -0.67336902483907
  C   -0.62710531170247      0.09626549540959     -0.75180003641333
  H   1.16188855279046     -0.73640091331315     -1.53037629852783
  H   -1.16952898445416      0.15547613682363     -1.68624068616047
  N   1.38834008178182     -0.40606618108486      0.57000272705527
  O   1.36917709173254      0.57603898194859      1.30381491191923
  O   2.01564954792137     -1.44806271732071      0.74304263891008
  N   -1.38655721715227      0.58113323424571      0.39791664160070
  O   -1.36401072058016     -0.08253866910734      1.42864605953644
  O   -2.01336432011559      1.61867876710821      0.19836306691899
