10
Coordinates from ORCA-job run
  C   0.66781699887781      0.02022887199059     -0.72332964413301
  C   -0.65686151838703      0.15779159593425     -0.69389798889120
  H   1.24268649666819      0.06600434926515     -1.63832207225059
  H   -1.23146729863885      0.33375460595261     -1.59503704123836
  N   1.48308374193727     -0.21619573120728      0.46138846326926
  O   0.93105980272053     -0.20755984650347      1.55799655343835
  O   2.67973416357369     -0.40623217494003      0.24619795564971
  N   -1.48127413120914      0.09517308022582      0.51356982700895
  O   -1.75907539831799      1.17254188556523      1.02489766160470
  O   -1.87470285722448     -1.01550663628285      0.84553628554219
