10
Coordinates from ORCA-job run
  C   -0.53884245554730     -0.28794312673295      0.26484460064530
  C   0.53886426874731      0.28825297511780     -0.26450570134660
  H   -0.52879340595543     -1.07667832500536      1.00411608328903
  H   0.52931763942257      1.07636666945551     -1.00444791782495
  N   -1.86922475544000      0.14569050955883     -0.15078332467252
  O   -2.80497594321260     -0.43967135200706      0.39528150039084
  O   -1.96000021883711      1.03780273606806     -0.98923384814581
  N   1.86931082288676     -0.14574256906700      0.15065543431551
  O   2.80513974522512      0.43239901332201     -0.40285281492454
  O   1.96020430271069     -1.03047653070983      0.99692598827374
