10
Coordinates from ORCA-job run
  C   -0.66423931297888     -0.06488456099581     -0.72247637252649
  C   0.66093661716482     -0.19238969011016     -0.70249012885267
  H   -1.24989817228555     -0.19619147899610     -1.62282991664315
  H   1.24244980176099     -0.38500875290660     -1.59446364687176
  N   -1.46675129050183      0.23375816014307      0.46082216433357
  O   -1.08423983764341      1.12559647040670      1.21023355382729
  O   -2.48912418380598     -0.43850540156186      0.57068802012262
  N   1.46898891892855     -0.05863524616675      0.50688219811468
  O   1.09090665026261     -0.63199735433292      1.52256490124683
  O   2.49097080909867      0.60925785452042      0.37006922724907
