10
Coordinates from ORCA-job run
  C   -0.47713009273086      0.44384153398504      0.13667513369549
  C   0.47713981157980     -0.44480015633861     -0.13443637318939
  H   -0.31136675872303      1.46049123675886      0.46486367092094
  H   0.31125565739779     -1.46117475557372     -0.46340630959213
  N   -1.87966069525697      0.06763680810878     -0.01071726907332
  O   -2.14552281286363     -1.07811612245018     -0.36261681896940
  O   -2.69034559249375      0.96055248992728      0.23794174905220
  N   1.87963034940593     -0.06751142973442      0.01086133094567
  O   2.14502527185079      1.07466123458824      0.37447639797367
  O   2.69097486183393     -0.95558083927128     -0.25264151176373
