10
Coordinates from ORCA-job run
  C   -0.48192126695492      0.45916225015254      0.01279922318054
  C   0.48200844164005     -0.45943173661562     -0.01262037888245
  H   -0.32784593269555      1.52883676254631      0.04110408098183
  H   0.32847920064295     -1.52917765371062     -0.04079429671784
  N   -1.88048052755752      0.04136225813084      0.00396238383280
  O   -2.70130142007196      0.95889342730045      0.03073356777164
  O   -2.13337123159716     -1.15951596628492     -0.02909630681058
  N   1.88055049816537     -0.04121014842742     -0.00388147825360
  O   2.70152416866760     -0.95852063093563     -0.03374408474130
  O   2.13335806976112      1.15960143784408      0.03153728963896
