10
Coordinates from ORCA-job run
  C   0.60870319222075      0.26545407028880     -0.04942577132490
  C   -0.60870452380424     -0.26547008008730      0.04914665865296
  H   0.82494819979451      1.30778955604644     -0.23788412095260
  H   -0.82494872850978     -1.30770125145434      0.23818144082800
  N   1.78420976052729     -0.58657628755055      0.10190476179458
  O   1.61714101167041     -1.78338279533165      0.31845962308626
  O   2.86660475299185     -0.00926603321734     -0.00517613990371
  N   -1.78420918296261      0.58659187573135     -0.10202263336375
  O   -2.86660595731054      0.00922357792590      0.00472782722386
  O   -1.61713852461763      1.78333736764871     -0.31891164604070
