17
Coordinates from ORCA-job run
  C   -0.72403744957406      0.01853264076355     -0.33375895793696
  C   0.80342487402523     -0.10149488286042     -0.47656390977667
  Cl  -1.31724197713460      0.73111656391423     -1.85742383950197
  H   1.01614215103966     -0.87871790624733     -1.21965658933484
  N   -1.34243094846638     -1.37893773708050     -0.29548748784107
  O   -0.88654393188170     -2.19662406665920     -1.08494334233239
  O   -2.26393924014069     -1.56012045624735      0.48789838996470
  C   -1.16825863319314      0.85628807696499      0.83462140140144
  H   -2.24437954333827      1.01315230597013      0.79730137226111
  H   -0.65235226126020      1.81448077284907      0.77375893063704
  H   -0.92640988448760      0.35738128956419      1.77310508106486
  N   1.37257508147315     -0.65634666206479      0.81665620213414
  O   0.71593856710903     -1.53510964129599      1.36515050985755
  O   2.45931634809385     -0.23298370620436      1.19487541108969
  N   1.39377283891261      1.18582402369236     -0.71689862632904
  H   2.33673822292850      1.19001095136872     -0.34799779401100
  H   1.42568578589458      1.37254843357270     -1.70963675134662
