17
Coordinates from ORCA-job run
  C   -0.61609289192671     -0.13629597443637     -0.40471905589177
  C   0.90716339818984      0.12445376788261     -0.30503545707337
  Cl  -0.94614976338323     -0.89983365217162     -1.95922259895961
  H   1.17855279698981      0.70337836433011     -1.18852265328123
  N   -1.08257514664704     -1.05992199595463      0.72773122899833
  O   -0.94919124818435     -0.57074915598691      1.84856920858220
  O   -1.55823562389723     -2.15047718092433      0.46970950473312
  C   -1.39741320145119      1.15712335288655     -0.28245450037150
  H   -1.20713619400555      1.62194424915487      0.68354699174665
  H   -1.10405656844428      1.83500163962751     -1.08582770885593
  H   -2.46518893099224      0.95250618473677     -0.37596746905330
  N   1.63530370526387     -1.18957052518729     -0.47228340139382
  O   1.41812286599477     -2.02916992318450      0.39673480910337
  O   2.40254340910009     -1.29668070211586     -1.42155298233316
  N   1.41589907437723      0.74673047060626      0.86709992395121
  H   1.42239044272286      1.75236673284022      0.79614944355137
  H   0.94406387629334      0.43919434789661      1.70604471654746
