17
Coordinates from ORCA-job run
  C   -0.66919381812967      0.01191409810815     -0.41704459160919
  C   0.86406232253719     -0.01381268581202     -0.35583344349644
  Cl  -1.09309658029733      0.79343810402485     -1.96868115114621
  H   1.23105667497631     -0.66590323735109     -1.15714875273183
  N   -1.19257306287500     -1.41807208833970     -0.55642453799059
  O   -0.54165399865647     -2.17031851687706     -1.27111859034076
  O   -2.23787369478106     -1.68568099870381      0.01808556965216
  C   -1.33619905733265      0.73827888369273      0.71993179631940
  H   -0.88810541808386      1.72805593924864      0.79864467136723
  H   -1.19269808841986      0.19048915419898      1.65057981481562
  H   -2.40409952481924      0.82666201495594      0.53125379778653
  N   1.32343344873716     -0.70311292274811      0.91452808384469
  O   0.56545486464590     -1.52258077054742      1.42305213136476
  O   2.45415264617325     -0.43412106710247      1.30446788634297
  N   1.39688088740162      1.32388223213537     -0.33030460419711
  H   2.36718245039719      1.27869440238081     -0.04322176638107
  H   1.35326994852653      1.72318745873623     -1.25876631360015
