17
Coordinates from ORCA-job run
  C   -0.60029772670283     -0.17083707290364     -0.18458907785336
  C   0.87561979188575      0.01782409098291      0.24821451345622
  Cl  -0.72581024138284     -1.44238108331104     -1.39415926880070
  H   0.89782936197531      0.83265101885801      0.97035401014319
  N   -1.29205204825063     -0.62848538177157      1.11093353158183
  O   -1.89524312364499     -1.68893452070174      1.14009330958441
  O   -1.16717977509611      0.16398521865269      2.04186286749034
  C   -1.31488406313495      1.08082874097637     -0.65046849438370
  H   -1.20006516238028      1.87226672206209      0.09028307919257
  H   -0.89941022879109      1.41816665773117     -1.59813210178594
  H   -2.37495679806424      0.85984158545539     -0.78984287341889
  N   1.63138082678322      0.53805831979596     -0.95451638920702
  O   2.25074935896882     -0.27399371186970     -1.62923263643083
  O   1.54104486618401      1.74711123185912     -1.16497665437300
  N   1.54300794418474     -1.11522404403922      0.77263205347482
  H   1.38301704550629     -1.95821659164538      0.23953166808950
  H   1.34724997195981     -1.25166118013142      1.75301246324054
