17
Coordinates from ORCA-job run
  C   -0.70557381031447     -0.15708732297518     -0.34262016799457
  C   0.79425652441785      0.20409753567923     -0.25891638455643
  Cl  -1.12795810865952     -1.16804159727415     -1.73233688234395
  H   0.96734426832476      0.97664340975827     -1.01008630087011
  N   -1.05918114796801     -0.98403635120989      0.89066873672499
  O   -0.26179946036558     -1.86967254293071      1.18294524253828
  O   -2.10236948412786     -0.72558546115756      1.47538073001956
  C   -1.53072335672874      1.10957340444245     -0.36514715066699
  H   -2.59080057511436      0.86575425742114     -0.36194497973081
  H   -1.29303494985712      1.71471770820560      0.50906011606784
  H   -1.29804772865712      1.66409360945331     -1.27571558636548
  N   1.74717698870606     -0.91626061854507     -0.70737718242371
  O   2.38011907044822     -1.50608370497730      0.16031630569982
  O   1.84282715120255     -1.08333467080607     -1.91878253728629
  N   1.08361171234522      0.69053532104796      1.04341471010650
  H   1.24278823013170     -0.08553485004301      1.67609741300391
  H   1.91136467621643      1.27122187391098      1.03604391807744
