17
Coordinates from ORCA-job run
  C   -0.64635724344661      0.04904110413248     -0.41350789349945
  C   0.90051754979240     -0.07796560634088     -0.47074824994764
  Cl  -1.15236146561736      0.84028999537771     -1.92090247536768
  H   1.14443554828040     -0.70632171973882     -1.32735294818144
  N   -1.19407089105264     -1.38086716176966     -0.45500642531200
  O   -0.93960072001183     -2.03458387910449     -1.45730173535263
  O   -1.79798323890469     -1.77097477990842      0.53929017822701
  C   -1.19723612183221      0.80059026980606      0.77113248986011
  H   -0.81597300524669      1.82212733969506      0.75603215587108
  H   -0.91594016018944      0.32186816845300      1.70680971132773
  H   -2.28425879522259      0.83852993583971      0.70843664354379
  N   1.31606754796438     -0.86195587925836      0.75164366124462
  O   1.37555765227061     -2.08278452007028      0.63599151226290
  O   1.53133194741740     -0.21417918124676      1.77226147369713
  N   1.66381766949902      1.12120842591565     -0.49663239019682
  H   1.44887128008114      1.73313312614697      0.27819731299027
  H   1.56218244621870      1.60284436207097     -1.37834302116700
