17
Coordinates from ORCA-job run
  C   -0.67002694965082     -0.16812561986387     -0.38119152175351
  C   0.80924005836103      0.23294265570675     -0.34077525105908
  Cl  -0.97243154783629     -0.94601990684891     -1.93637273869526
  H   1.00659115388119      0.79207333658237     -1.25657706989759
  N   -1.03382603243116     -1.13547757188417      0.75215505362310
  O   -0.67069650006504     -0.75975769978883      1.86363118200624
  O   -1.70126371001713     -2.12254188046142      0.50677340614626
  C   -1.57089710253031      1.04055998564427     -0.21357385063034
  H   -1.38762006651728      1.50264970143438      0.75479468897059
  H   -1.35723769471865      1.76457539590286     -1.00083589370245
  H   -2.61337444712361      0.72799475587777     -0.29597539136901
  N   1.69774202075300     -1.00334273070668     -0.49922375559403
  O   2.75386319911616     -0.81552705839146     -1.09783952247149
  O   1.34703721753487     -2.04516356918580      0.04722738533895
  N   1.17584221895172      1.02510560144689      0.77791818803803
  H   2.11403925294685      1.38774311551604      0.67114024405270
  H   1.07201892934546      0.52231148901980      1.64872484699689
