17
Coordinates from ORCA-job run
  C   -0.67078898206047     -0.03069831687195     -0.40958305782639
  C   0.86137289931634     -0.07782859871871     -0.35365565747997
  Cl  -1.09186237512806      0.53216390873701     -2.05506252109215
  H   1.21188498203316     -0.82436713822532     -1.07584343126934
  N   -1.21970867835362     -1.45627477113437     -0.34377207438064
  O   -0.57929029109006     -2.31541111568289     -0.93734224871767
  O   -2.27259335972595     -1.61882453929367      0.25541023917585
  C   -1.31875947685931      0.86022172656173      0.61609369760999
  H   -2.38628896972510      0.93843571375637      0.42085785614299
  H   -0.85509396531572      1.84387390372539      0.55465306018243
  H   -1.17662636994786      0.44652336416176      1.61359932175516
  N   1.32576024487116     -0.62019411561114      0.98404426479112
  O   0.54107298106904     -1.30443362938091      1.63268325633895
  O   2.48886169004938     -0.37944222064578      1.28727033307059
  N   1.41947210482084      1.24376439383636     -0.48387812057630
  H   2.40758328998696      1.19939690921689     -0.26598778843048
  H   1.31400427605927      1.56209452556926     -1.43848712929419
