17
Coordinates from ORCA-job run
  C   -0.62185039724324     -0.15895348342071     -0.38800100585823
  C   0.88988533372879      0.17310414321129     -0.33076885423975
  Cl  -0.96494536306172     -0.91074476684178     -1.94520728661629
  H   1.10514329417003      0.77901121693357     -1.21163204809952
  N   -1.00687505288173     -1.12325728827137      0.74114969475634
  O   -1.43684169271946     -2.23137321561362      0.47795697740682
  O   -0.86167377525086     -0.64715283678609      1.86611500268188
  C   -1.45889847980130      1.09344463973806     -0.21725492984331
  H   -1.26113027444996      1.54898356696388      0.75164985973201
  H   -2.51827081111168      0.84029795720404     -0.28337383140564
  H   -1.22198365714266      1.79918053551129     -1.01527831845835
  N   1.67384177692888     -1.10142036706364     -0.54446753051049
  O   1.52604831173749     -1.96416870480854      0.31637170238497
  O   2.41323934403389     -1.15639451012489     -1.51988340819485
  N   1.40517471350562      0.79945929057172      0.83604328624175
  H   1.36092465245128      1.80525592750935      0.78359337421812
  H   0.97721207710662      0.45472789528743      1.68398731580453
