17
Coordinates from ORCA-job run
  C   -0.65442798527636     -0.02600351656439     -0.40275720167144
  C   0.89640144367731     -0.05254961972757     -0.48277857693301
  Cl  -1.23724262136849      0.61395538115311     -1.95370648885190
  H   1.16946094577920     -0.72583378561515     -1.29534188768756
  N   -1.10322602157826     -1.48873112551321     -0.32695703466413
  O   -1.66348971631573     -1.84260436085308      0.70558172179874
  O   -0.81985560694676     -2.19725976304690     -1.28320814872745
  C   -1.23719800416777      0.77372722435616      0.73402581346552
  H   -2.32511928392179      0.73488664525462      0.69035438749178
  H   -0.91037458790916      0.38612257783772      1.69671764194335
  H   -0.92593255565087      1.81428551608274      0.63634458489471
  N   1.38408010415044     -0.71230283311280      0.78539061388800
  O   1.57103143464890      0.02370650239840      1.75028668967393
  O   1.52507953876921     -1.93157627768803      0.75941671734642
  N   1.57545089292846      1.18995716846750     -0.61304899648518
  H   1.33615107370115      1.83918331140096      0.12342731402427
  H   1.42021094948053      1.60003695516992     -1.52274714950606
