17
Coordinates from ORCA-job run
  C   -0.68975950854642     -0.00026426217701     -0.49017020277672
  C   0.85097062618393     -0.00309515549043     -0.48555867965658
  Cl  -1.22363434519448      0.55297427553767     -2.08331224709008
  H   1.19768742696766     -0.61455057250361     -1.31836164638756
  N   -1.11563231339236     -1.46736875928292     -0.35881979002347
  O   -0.81430400676440     -2.21114655511470     -1.28166481991077
  O   -1.67895800431343     -1.78685350558199      0.68370287204297
  C   -1.32219529220817      0.84265317553318      0.58888358080880
  H   -0.99055124942101      0.53087364685324      1.57777977597050
  H   -1.05176702371483      1.88447619670355      0.41530050541300
  H   -2.40646320151083      0.75231952707669      0.53747067034888
  N   1.30099807575070     -0.77058356586433      0.77075424455116
  O   1.43014217606915     -0.11233449158169      1.80113986144096
  O   1.49766917636588     -1.97588084188527      0.64933077909531
  N   1.37043899317603      1.31110069910287     -0.53499488791119
  H   1.31317491414417      1.75463561499469      0.37337429140225
  H   2.33218355640840      1.31204457368004     -0.84585430731744
