17
Coordinates from ORCA-job run
  C   -0.59271309837471     -0.25465285369769     -0.08666155841080
  C   0.86892233284151      0.15877705247427      0.21966701804773
  Cl  -0.66763270630157     -1.95651990526985     -0.52726164316711
  H   0.86041968906015      1.22216633982852      0.45442426599566
  N   -1.30815891780409     -0.04351509177409      1.25872480046437
  O   -1.89565236880476     -0.97132898543890      1.79090543699059
  O   -1.21806006213194      1.10400052738387      1.68900978820493
  C   -1.31658774008279      0.59389298022251     -1.11143097671483
  H   -1.23232601806632      1.64822220694080     -0.84762345600429
  H   -2.36933118501917      0.30571874710328     -1.13867263183875
  H   -0.88477662437023      0.43872573058231     -2.09828886881192
  N   1.64546489321084      0.04832395795648     -1.07414263720506
  O   2.29567015971621     -0.97199807574780     -1.25938270974699
  O   1.53888707652071      0.99883824731948     -1.84828134610605
  N   1.54130106277185     -0.55871908065600      1.23783901389812
  H   1.40931329809185     -1.55850181431129      1.17991734788742
  H   1.32526020874245     -0.20642998291592      2.15825815651701
