17
Coordinates from ORCA-job run
  C   -0.62910748391846     -0.22633501157548     -0.19212228741364
  C   0.80935740908512      0.02291757047914      0.28505640849081
  Cl  -0.61908708079737     -1.17810015719436     -1.67603523378578
  H   0.75842825020134      0.63176659447467      1.18787524596321
  N   -1.24487570122670     -1.05378744276760      0.95160253610892
  O   -1.68737715388839     -2.16561124593603      0.72507404861676
  O   -1.24740853455658     -0.46628978584219      2.02824986584395
  C   -1.49533616737613      1.00423749700842     -0.36462260358093
  H   -2.52299618074676      0.68828862679769     -0.55416680629634
  H   -1.46159305316201      1.61293245116610      0.53841172586745
  H   -1.14916714571854      1.59669672295681     -1.20883429946097
  N   1.49761667920573      0.93316659084826     -0.74185036808399
  O   2.28435437626060      0.40874256923772     -1.52292932364028
  O   1.21174490512274      2.12726183929223     -0.68852510165167
  N   1.48168736099185     -1.19079549842188      0.53152059804062
  H   2.35105262635100     -1.04329795901005      1.02499473535597
  H   1.66070689417259     -1.70079336151345     -0.32369914037409
