17
Coordinates from ORCA-job run
  C   -0.64893139166157      0.02914173556293     -0.41197066008564
  C   0.90244765032089     -0.01231494713597     -0.47371003628092
  Cl  -1.19917961035892      0.84545936332506     -1.89038424123445
  H   1.17811716631682     -0.59388024385029     -1.35343359517296
  N   -1.11845163426280     -1.42579717028348     -0.50420844258548
  O   -0.83151257485846     -2.02843580401190     -1.52955617377096
  O   -1.69730621567572     -1.88337916717961      0.47602896962600
  C   -1.23789308387635      0.70765358569607      0.79808934484075
  H   -2.32549977448823      0.68801610898863      0.73698620636348
  H   -0.91330083486807      1.74851067670778      0.81830703191564
  H   -0.92878819297943      0.21308350909998      1.71660037664974
  N   1.36268514609879     -0.81807697489363      0.71788801078021
  O   1.54222679845882     -0.19892023052685      1.76296134815919
  O   1.49115188462243     -2.02814331521248      0.55533234529973
  N   1.60047383065686      1.22639415409641     -0.45388698888164
  H   1.35964086966127      1.79182962485621      0.34826037216634
  H   1.46411996689367      1.73885909476112     -1.31330386778904
