17
Coordinates from ORCA-job run
  C   -0.62756308928298     -0.16721700835771     -0.37559804795919
  C   0.88384760571373      0.17181383310415     -0.34951231104506
  Cl  -0.99486805582225     -0.94690962904279     -1.91316669253685
  H   1.08245460071248      0.76209296270919     -1.24481573722567
  N   -0.98726253619094     -1.11443579281091      0.77667232018914
  O   -0.82871845531109     -0.61722578152012      1.89067054013219
  O   -1.41084472867076     -2.23100259785161      0.53982931434291
  C   -1.46796697645305      1.08363226843976     -0.21064388836185
  H   -2.52691319266926      0.82366781137153     -0.25220016140525
  H   -1.25417148642394      1.55678094900593      0.74631953820545
  H   -1.25021837349502      1.77693093429564     -1.02489451172771
  N   1.66857653616028     -1.10444427958287     -0.55298322460849
  O   1.54701048492829     -1.94625982020428      0.33240965418064
  O   2.38154545243879     -1.18122134881278     -1.54642244298399
  N   1.41572134229548      0.82105216908203      0.79672294605750
  H   1.36343528213788      1.82548012766342      0.72825179384704
  H   1.00693558993232      0.48726520251141      1.65836091089915
