17
Coordinates from ORCA-job run
  C   -0.71079135330430     -0.00426923116015     -0.45917229506218
  C   0.82586232388262      0.08563573262203     -0.52057672700309
  Cl  -1.35020537217449      0.63409068226843     -1.98003638485179
  H   1.16710854906571     -0.43693532304323     -1.41398037259139
  N   -1.04561150301079     -1.50055071201474     -0.42452512512402
  O   -1.54086420951852     -1.93072643782976      0.61263161477302
  O   -0.74541968688876     -2.15305182531673     -1.41432944292898
  C   -1.33906155316850      0.71460618661778      0.70824422931326
  H   -1.13692466647540      1.78112954520390      0.60662728770213
  H   -2.41775360310207      0.56368472938967      0.69464248024606
  H   -0.94487574076274      0.34876666994036      1.65476295337020
  N   1.37842858399021     -0.74850653052116      0.64975842952465
  O   1.63994145922063     -1.92605008168783      0.42337345409913
  O   1.51667565716797     -0.16591337534608      1.72366526928371
  N   1.26732280722765      1.42847337462619     -0.48684692378707
  H   2.21517585287694      1.50963563560722     -0.82843953632728
  H   1.21999245497383      1.79898096064404      0.45420108936365
