14

C	0.0	0.0	0.0
C	-0.521276	-0.010819	-1.406731
F	1.380161	0.0	0.0
H	-0.086201	-0.837168	-1.966
H	-0.248519	0.935985	-1.878794
H	-1.610143	-0.100556	-1.371844
C	-0.521276	1.122183	0.848361
H	-0.248513	2.066075	0.370504
H	-1.610143	1.040631	0.89953
H	-0.086204	1.07764	1.845182
N	-0.305925	-1.346802	0.67666
O	-0.360528	-2.339078	-0.043758
O	-0.360487	-1.361096	1.902799
Cl	-3.833071	0.0	0.0
