17

C	-0.518838	-0.00221	-1.42469
C	0.0	0.0	0.0
Cl	0.577453	0.815546	-2.497872
H	1.088784	0.0	0.0
N	-0.613439	-1.459797	-1.929148
O	0.391123	-2.122261	-1.728087
O	-1.622224	-1.779842	-2.536676
N	-1.940877	0.558696	-1.607554
O	-2.24372	0.960274	-2.720211
O	-2.647668	0.532092	-0.607464
N	-0.452546	-1.169737	0.818933
O	0.273452	-1.440499	1.767747
O	-1.401923	-1.853131	0.394494
N	-0.43576	1.246426	0.717433
O	-0.332672	2.274508	0.058877
O	-0.784098	1.147311	1.885117
F	2.473498	0.0	0.0
