17

C	-0.534656	-0.015861	-1.417441
C	0.0	0.0	0.0
Cl	-2.273972	0.042983	-1.62138
H	1.089492	0.0	0.0
N	0.114281	1.127637	-2.267082
O	1.330648	1.127385	-2.237466
O	-0.624387	1.857853	-2.901621
N	-0.058269	-1.290609	-2.132625
O	0.202526	-1.187371	-3.322926
O	-0.053453	-2.313876	-1.465073
N	-0.485826	-1.145489	0.838566
O	0.368464	-1.81642	1.402044
O	-1.701745	-1.301608	0.938916
N	-0.42522	1.230032	0.695163
O	-0.569046	1.174204	1.913176
O	-0.520655	2.249102	0.011166
F	2.420431	0.0	0.0
