17

C	-0.433319	-0.013337	-1.454393
C	0.0	0.0	0.0
Cl	-0.303052	1.589149	-2.140662
H	1.087688	0.0	0.0
N	0.521666	-0.92787	-2.332839
O	1.602785	-1.178391	-1.828745
O	0.124114	-1.269891	-3.434415
N	-1.906729	-0.455592	-1.647755
O	-2.622189	-0.168072	-0.699496
O	-2.230588	-1.04567	-2.6622
N	-0.434239	-1.2499	0.678654
O	-0.609138	-2.215303	-0.063681
O	-0.503087	-1.237459	1.898728
N	-0.365639	1.190458	0.861819
O	-1.522425	1.3492	1.228401
O	0.582869	1.935386	1.105455
F	2.514331	0.0	0.0
