17

C	-0.515415	0.019133	-1.424912
C	0.0	0.0	0.0
Cl	-2.196137	0.279727	-1.731351
H	1.085606	0.0	0.0
N	0.261428	1.103749	-2.193598
O	0.49841	0.870676	-3.368293
O	0.489121	2.123911	-1.563439
N	-0.067944	-1.294049	-2.130367
O	1.075989	-1.636423	-1.860282
O	-0.910835	-1.921564	-2.765464
N	-0.483621	-1.25937	0.6744
O	0.392408	-2.025079	1.066982
O	-1.688824	-1.333842	0.92927
N	-0.452674	1.136613	0.887234
O	-1.616997	1.550054	0.778564
O	0.449055	1.683773	1.51439
F	2.489014	0.0	0.0
