17

C	-0.481978	-0.009763	-1.432154
C	0.0	0.0	0.0
Cl	0.628017	-0.847936	-2.472431
H	1.089261	0.0	0.0
N	-1.909556	-0.555827	-1.678134
O	-2.629516	-0.691554	-0.701155
O	-2.211338	-0.750861	-2.84727
N	-0.575915	1.465055	-1.896469
O	-1.701784	1.945031	-1.966003
O	0.484992	2.02444	-2.116624
N	-0.38682	-1.216019	0.733382
O	-0.507438	-1.12198	1.950975
O	-0.456317	-2.254894	0.080986
N	-0.478796	1.196937	0.768277
O	0.392315	1.970145	1.162737
O	-1.688851	1.327181	0.957878
F	2.423776	0.0	0.0
