18

C	-0.21406	-0.076482	-1.516644
C	0.0	0.0	0.0
F	-1.411295	-0.806396	-1.807258
H	1.090549	0.0	0.0
N	-0.230135	1.191443	-2.139386
H	-1.059767	1.704732	-1.880737
H	-0.167125	1.041328	-3.137279
N	0.871248	-0.837195	-2.101667
H	0.704801	-1.81505	-1.894133
H	1.721672	-0.563134	-1.574264
C	-0.498223	-1.218881	0.755277
H	-0.093967	-2.117352	0.286919
H	-1.590197	-1.282997	0.752644
H	-0.126482	-1.180013	1.780752
N	-0.564284	1.19074	0.673619
O	-0.059267	1.516759	1.746249
O	-1.551983	1.76006	0.189678
F	2.649451	0.0	0.0
