18

C	-0.19448	-0.051757	-1.518299
C	0.0	0.0	0.0
F	-0.018332	1.318795	-1.966084
H	1.090411	0.0	0.0
N	0.866334	-0.850193	-2.014153
H	0.996864	-0.671313	-3.001205
H	1.726486	-0.591038	-1.491679
N	-1.478983	-0.487856	-1.963981
H	-1.492913	-0.488813	-2.977464
H	-2.15417	0.190859	-1.631337
C	-0.557929	-1.206818	0.721933
H	-0.107953	-2.094685	0.276576
H	-0.274862	-1.167315	1.777935
H	-1.644297	-1.273927	0.62939
N	-0.608329	1.227353	0.557521
O	0.067417	1.953232	1.281618
O	-1.803379	1.433328	0.301834
F	2.676772	0.0	0.0
