16

C	-0.588647	-0.005091	-1.405766
C	0.0	0.0	0.0
Br	0.275089	1.362635	-2.474506
H	1.086675	0.0	0.0
N	-0.255547	-1.350189	-2.093642
O	-1.006235	-1.678976	-3.000778
O	0.747044	-1.918805	-1.7023
C	-2.028426	0.195584	-1.46237
N	-3.183125	0.415836	-1.500374
N	-0.496514	-1.171706	0.783732
O	-0.020617	-1.291165	1.903809
O	-1.331663	-1.907456	0.258316
N	-0.484218	1.218069	0.739211
O	-1.548736	1.110232	1.347979
O	0.211998	2.221149	0.653855
Cl	3.130707	0.0	0.0
