16

C	-0.561525	0.006278	-1.417811
C	0.0	0.0	0.0
Br	-2.454286	-0.428385	-1.488611
H	1.088069	0.0	0.0
N	-0.320982	1.413559	-2.051849
O	-1.063121	1.746615	-2.958161
O	0.656846	2.002057	-1.622063
C	0.138541	-0.916782	-2.301151
N	0.672628	-1.589707	-3.104966
N	-0.423167	-1.268426	0.682953
O	-1.090784	-1.199881	1.707032
O	-0.048514	-2.289066	0.119796
N	-0.47482	1.15495	0.811387
O	0.080471	1.289117	1.894461
O	-1.363365	1.871809	0.350773
Cl	3.077123	0.0	0.0
