16

C	0.0	0.0	0.0
C	-0.120869	0.324847	-1.518387
Br	2.057519	0.0	0.0
H	0.14443	1.364644	-1.700824
H	0.546497	-0.330935	-2.072678
C	-0.45931	1.127514	0.892538
H	-1.544926	1.218507	0.773109
H	-0.23199	0.882257	1.931041
H	0.030279	2.064784	0.626648
N	-0.531386	-1.234271	0.415565
H	-0.511574	-1.910709	-0.338962
H	-1.518764	-1.071958	0.642324
N	-1.437035	0.094035	-2.191424
O	-1.743872	-1.082022	-2.372815
O	-2.036339	1.072815	-2.622317
Cl	-3.699151	0.0	0.0
