16

C	0.0	0.0	0.0
C	-0.154174	0.021477	-1.554102
Br	1.976729	0.0	0.0
H	0.473837	0.809118	-1.966097
H	0.156042	-0.945703	-1.949933
C	-0.478568	1.278498	0.656392
H	-1.569663	1.30859	0.574414
H	-0.191781	1.26441	1.709573
H	-0.050075	2.15473	0.169491
N	-0.547843	-1.129464	0.663849
H	-0.420514	-1.969935	0.110788
H	-1.557352	-0.958543	0.744458
N	-1.493243	0.296935	-2.160543
O	-2.061827	-0.638955	-2.715856
O	-1.857895	1.46824	-2.157332
Cl	-3.738997	0.0	0.0
