16

C	0.0	0.0	0.0
C	-0.122316	0.298731	-1.522845
Br	2.058473	0.0	0.0
H	0.535838	-0.37523	-2.066864
H	0.15292	1.332232	-1.724888
C	-0.470485	1.137812	0.87158
H	-1.557677	1.208553	0.751066
H	-0.23948	0.917239	1.914823
H	0.003276	2.077067	0.58479
N	-0.521342	-1.232745	0.435346
H	-1.513624	-1.080285	0.645097
H	-0.474742	-1.926444	-0.300308
N	-1.444011	0.071315	-2.185719
O	-1.757328	-1.103743	-2.361218
O	-2.043628	1.052112	-2.612173
Cl	-3.704224	0.0	0.0
