12
Coordinates from ORCA-job run
  C   -0.58200625861544      0.08147635449824      0.04113410358952
  C   0.64652136670701      0.37017060009351     -0.83370143270189
  Br  -2.16671976989212      0.72611356952509     -1.06080608300045
  H   0.56147224447281     -0.20915973130056     -1.75806040738243
  H   0.66215144724814      1.42658218842861     -1.10857567385527
  C   -0.58819052423606      0.91763755188903      1.24054549341454
  N   -0.58007415473329      1.58366956241737      2.20871019937195
  N   -0.64349189160359     -1.27885477241394      0.39337063081813
  H   -1.40704853525223     -1.49414495711022      1.02085350304329
  H   -0.66945760611534     -1.88681591134639     -0.41570697572144
  C   1.88272328941575      0.01623823039868     -0.13730499001601
  N   2.88512039260435     -0.25391268507943      0.40954163244006
