12
Coordinates from ORCA-job run
  C   -0.49073668077981     -0.02864351475770      0.10742532092951
  C   0.91172242854556     -0.23168233708641     -0.48310954147275
  Br  -1.52959849212509      1.10131769614250     -1.20152014900621
  H   0.81658812623704     -0.77142056571389     -1.43020034489006
  H   1.46800138683389     -0.86219645215071      0.21763990637319
  C   -0.43340574278285      0.75050640774646      1.34346467083000
  N   -0.37879586397477      1.35241655709940      2.35115893275153
  N   -1.07844980210947     -1.29349096027650      0.36006679696896
  H   -1.98118999834527     -1.20892877476973      0.81124414817483
  H   -1.18046872272534     -1.82822111513946     -0.49462553367409
  C   1.63464693245593      1.01517990191287     -0.70561283158430
  N   2.24268642877019      2.00416315699317     -0.87593137540062
