16

C	0.0	0.0	0.0
C	-0.457154	0.108149	-1.453946
F	1.404035	0.0	0.0
H	-1.495516	0.447754	-1.42801
H	0.154797	0.868613	-1.952625
C	-0.428449	1.217276	0.794146
H	-0.024006	2.123596	0.334838
H	-1.517716	1.279769	0.829815
H	-0.031087	1.125546	1.806815
N	-0.438274	-1.198873	0.652452
H	-0.328645	-1.947922	-0.026848
H	-1.438867	-1.096598	0.821444
N	-0.35061	-1.188482	-2.140177
H	0.167459	-1.091498	-3.002804
H	-1.282799	-1.508264	-2.369687
Br	-3.933351	0.0	0.0
