16

C	0.0	0.0	0.0
C	-0.434157	-0.058735	-1.453086
F	1.416368	0.0	0.0
H	-0.175882	-1.063946	-1.817286
H	-1.521096	0.051765	-1.475106
C	-0.413519	1.287457	0.682375
H	-1.503585	1.315396	0.732908
H	0.003345	1.307527	1.694741
H	-0.044849	2.145875	0.120536
N	-0.439606	-1.202633	0.658181
H	-0.327681	-1.075407	1.659374
H	-1.445845	-1.272019	0.493499
N	0.18932	1.024362	-2.217036
H	-0.21534	1.04481	-3.144477
H	1.175953	0.818441	-2.313067
Br	-3.94991	0.0	0.0
