16

C	0.0	0.0	0.0
C	-0.294027	-0.25694	-1.494342
F	1.402741	0.0	0.0
H	0.360672	-1.094156	-1.755445
H	0.085343	0.620374	-2.034024
C	-0.458149	1.361842	0.480885
H	-1.547609	1.415995	0.410804
H	-0.167191	1.506289	1.527
H	-0.005803	2.156819	-0.118648
N	-0.476112	-1.103001	0.790738
H	-1.483244	-1.154295	0.641588
H	-0.3495	-0.88086	1.773143
N	-1.631107	-0.560825	-1.948389
H	-2.325401	0.077407	-1.574643
H	-1.917904	-1.469315	-1.607831
Br	-4.291184	0.0	0.0
