16

C	0.0	0.0	0.0
C	-0.425552	0.133916	-1.460198
F	1.399682	0.0	0.0
H	-1.517261	0.150486	-1.499418
H	-0.055323	1.097597	-1.825706
C	-0.424554	1.192707	0.834469
H	-0.020726	2.118868	0.414355
H	-0.040148	1.079883	1.853534
H	-1.515078	1.240348	0.858434
N	-0.442929	-1.276301	0.507361
H	-0.221458	-1.322809	1.497431
H	-1.463113	-1.267874	0.435406
N	0.091448	-0.923446	-2.329806
H	1.079106	-1.019835	-2.116835
H	-0.331016	-1.791786	-2.01972
Br	-3.912005	0.0	0.0
