16

C	0.0	0.0	0.0
C	-0.443124	0.157108	-1.447167
F	1.431251	0.0	0.0
H	-1.530736	0.270635	-1.436612
H	0.007585	1.076092	-1.838463
C	-0.477906	1.1406	0.862725
H	-0.09259	1.027754	1.881058
H	-0.115962	2.090473	0.463562
H	-1.571329	1.129295	0.876925
N	-0.442461	-1.243591	0.522687
H	0.004305	-2.010797	0.040321
H	-0.25373	-1.31321	1.51288
N	-0.091129	-0.952745	-2.329828
H	0.862226	-1.240841	-2.143283
H	-0.709558	-1.731036	-2.13779
Br	-4.196211	0.0	0.0
