16
Coordinates from ORCA-job run
  C   -0.40900475760153      0.44943098317074     -0.15115839244722
  C   0.76730457553745     -0.45990234888316      0.24911987879519
  Br  0.21833909800027      1.82874017280706     -1.35204588349415
  H   0.35039966855056     -1.20985979462280      0.92618690856469
  C   -1.55004142097892     -0.32574266253351     -0.77899953530533
  H   -1.19256241207544     -0.82217184323460     -1.67877482383707
  H   -1.90411877979519     -1.07621589951266     -0.06771457819446
  H   -2.36839771966293      0.35135677620775     -1.02903291595909
  N   -0.95236746619836      1.08981247896569      1.13034591602340
  O   -1.27594497170491      2.26640517568309      1.13190118301173
  O   -1.08237903276850      0.29713088592180      2.06130732804951
  C   1.77667219041946      0.30482255277626      1.00764613010190
  N   2.62520772563233      0.88014414209606      1.58189900399692
  N   1.28292330984053     -1.14375299331798     -0.92204727257252
  H   1.84831009844571     -0.51187131098830     -1.47685320763451
  H   1.86665989435948     -1.91932631453543     -0.63377973909896
