16
Coordinates from ORCA-job run
  C   -0.46708972399104      0.32048831251834     -0.42843741551246
  C   0.83672876408229     -0.48304517669662     -0.25677294824970
  Br  -0.48349464848320      1.11368304210523     -2.19679292629147
  H   0.78017156229326     -1.25009825390389     -1.03735686139653
  C   -1.70987187313419     -0.52514723154952     -0.23021173899614
  H   -2.59824652428843      0.07242850961022     -0.42622313835048
  H   -1.69037287064125     -1.37141665692942     -0.91913475443479
  H   -1.74927750063616     -0.89866463240978      0.79636162381134
  N   -0.53074128776894      1.46477755524557      0.57921180441303
  O   0.42515202056673      1.60257260208137      1.34007845967047
  O   -1.54892123920458      2.14130383815490      0.57774591259821
  C   0.80542808598915     -1.19525105920138      1.03898248381563
  N   0.81617159817176     -1.78756386215132      2.05382370123103
  N   2.03552868969803      0.28877123664914     -0.49277150252587
  H   2.80532174726334     -0.32480730582038     -0.72395444794828
  H   2.27351320008325      0.83196908229755      0.32545174816601
