16
Coordinates from ORCA-job run
  C   -0.42345656907803      0.31887569873702     -0.45799514876458
  C   1.06362062767321     -0.08330918908665     -0.27244859341821
  Br  -0.75733137687149      0.67108674818411     -2.34050699342625
  H   1.66660982877787      0.67504495868200     -0.77715834348570
  C   -1.41679352021549     -0.68633042379676      0.07085709693772
  H   -1.27820188824111     -1.63620202179433     -0.44703809312797
  H   -1.27068076320634     -0.82930052586536      1.14405421728796
  H   -2.43556302827958     -0.33862934351879     -0.08550197884409
  N   -0.59753630860172      1.65999768819922      0.25210377936265
  O   0.33812100589916      2.45080356477218      0.17272128174339
  O   -1.65442515965570      1.85568484129906      0.84041601270631
  C   1.28222064011811     -1.37133330965380     -0.94215457737009
  N   1.43623273016967     -2.42186790234530     -1.44294645585360
  N   1.51829032622096     -0.16938528788990      1.09589124056498
  H   1.53566951824955      0.73832550988130      1.53919992340934
  H   0.99422393704092     -0.83346100580398      1.64850663227813
