16
Coordinates from ORCA-job run
  C   -0.52721742606183      0.32275305250396     -0.35027498736830
  C   0.81701884338906     -0.43014075945164     -0.38310262307759
  Br  -0.78554319969774      1.21484208437383     -2.05147833460287
  H   0.69670878327506     -1.15297565312210     -1.19793319145106
  C   -1.70431842435974     -0.58808402066468     -0.06102088207706
  H   -2.63134131431626     -0.02012713456109     -0.11078016809859
  H   -1.73737744011584     -1.38970974935992     -0.80075948301161
  H   -1.60483349799156     -1.02400652636834      0.93638141562428
  N   -0.51292841701622      1.40363509630004      0.72719706594938
  O   -1.54970890750962      2.03064200503089      0.88933202074522
  O   0.52234393586391      1.54240762124382      1.37564227828184
  C   0.96891654277190     -1.21430952929333      0.86139269583287
  N   1.13005349331896     -1.85492060176757      1.83329811046355
  N   1.94945992472912      0.40652088324057     -0.71055151317939
  H   2.26126585147528      0.91436456661675      0.10564516497112
  H   2.70950125224551     -0.15989133472119     -1.06298756900177
