16
Coordinates from ORCA-job run
  C   -0.52316902917092      0.28450635419580     -0.38695982055012
  C   0.83561989089650     -0.43998869165984     -0.32722540538637
  Br  -0.74973270467099      1.04195791554215     -2.15680569157610
  H   0.75138521478956     -1.22378836855161     -1.08846397422735
  C   -1.69054875493773     -0.62671661380228     -0.06215975627204
  H   -1.68634483781244     -1.48251850484226     -0.73942222031042
  H   -2.62648381383286     -0.08403982265405     -0.18119650253786
  H   -1.61241210871238     -0.98384010351657      0.96801056124092
  N   -0.56021651527178      1.44280155550555      0.60609423074991
  O   0.45340364277474      1.65201893214270      1.26962367062169
  O   -1.61309131645623      2.05803357349015      0.69253978958763
  C   0.96686091535725     -1.12681899673856      0.97586058281892
  N   1.11195622034386     -1.69030451227309      1.99682246262780
  N   1.96060265378537      0.39348156472684     -0.68564368302450
  H   2.24100061517488      0.96582515858627      0.09872027771085
  H   2.74016992774315     -0.18060944015120     -0.97779452147297
