16
Coordinates from ORCA-job run
  C   -0.52159680462543      0.39044002501819     -0.37963896600437
  C   0.95707283589538     -0.03374192885664     -0.34696287334208
  Br  -1.02698498205955      0.83425926403518     -2.20218032833343
  H   1.53169028479042      0.78486293078284     -0.78479417405834
  C   -1.46338419888115     -0.63339509929977      0.20078862627240
  H   -1.20016099489886     -0.81697929974546      1.24376370584741
  H   -2.48976105935951     -0.27426089619131      0.16392943869521
  H   -1.38866689550649     -1.55822322102406     -0.37412232347713
  N   -0.58539766016904      1.69532921759364      0.41410658818277
  O   0.29661969831202      2.51534207923201      0.19292712693090
  O   -1.51713787764926      1.82899829474919      1.19677273012123
  C   1.15530969781655     -1.24083008182459     -1.16210792339418
  N   1.33312591518370     -2.24841985621046     -1.73984056642603
  N   1.34566481961599     -0.19935563031931      1.04527187830064
  H   2.29278269225722      0.12082644177824      1.19412022470521
  H   1.27982452927802     -1.16485223971770      1.33996683597980
