16
Coordinates from ORCA-job run
  C   -0.47936843715552      0.35244821672534     -0.46329812817266
  C   0.99469059395675     -0.01394802342979     -0.21834395652164
  Br  -0.75489368386674      0.69301686246846     -2.35621448085334
  H   1.59603959017730      0.80517351843707     -0.61777217661479
  C   -1.45659023508061     -0.67821789241792      0.04132407029419
  H   -1.27709428787483     -1.62537481985925     -0.47066445272934
  H   -1.32690669452276     -0.80191805061392      1.11774153314982
  H   -2.48019683723048     -0.36108033700013     -0.14686879156266
  N   -0.68726555840372      1.68927058823511      0.24825417292347
  O   -1.71732821423312      1.82407143016530      0.89572931740122
  O   0.19016920984184      2.53067869281791      0.10181558950142
  C   1.33653944599568     -1.24841035330601     -0.93877065598618
  N   1.62091233079353     -2.27355569790890     -1.43760531708715
  N   1.20179343314302     -0.10069775075484      1.21951694648879
  H   1.13070700709430     -1.05382484474948      1.55126536934359
  H   2.10979233736537      0.26336846119106      1.47389096042526
