16
Coordinates from ORCA-job run
  C   -0.51553842478503      0.38213921632502     -0.39613948987357
  C   0.94310219498874     -0.10631196630504     -0.36936211326979
  Br  -1.05732278535158      0.70080661891525     -2.23437412359857
  H   1.53993259305864      0.64665268627894     -0.88803478955853
  C   -1.48295874886248     -0.54661880313435      0.29199097267349
  H   -1.19561390406074     -0.65661694417241      1.33895104562735
  H   -1.46632326991408     -1.51750103731731     -0.20650930684197
  H   -2.49337977777334     -0.14493900360553      0.25413426961183
  N   -0.49682517082566      1.74836236859969      0.28931772533369
  O   0.41340728964157      2.50579413485090     -0.02242433791797
  O   -1.39686859881610      1.98813546709951      1.08363755608283
  C   1.06297864142124     -1.38289834978303     -1.08788010857135
  N   1.17838175323946     -2.44095110875120     -1.58571249501034
  N   1.36699107872617     -0.17649794046451      1.02087864753218
  H   1.26856870446996     -1.11107945081006      1.39565404566779
  H   2.33146842484323      0.11052411227414      1.11687250211294
