16
Coordinates from ORCA-job run
  C   -0.52618221433030      0.32577448727763     -0.35143739219343
  C   0.80273806241306     -0.45331734061271     -0.38871850579489
  Br  -0.79726761075173      1.17173719433790     -2.07393842382063
  H   0.66232451553307     -1.17888391779877     -1.19792812687168
  C   -1.71667107454400     -0.55033988242060     -0.01297396275296
  H   -2.63271068149633      0.03551822890153     -0.06630539062124
  H   -1.77924455811598     -1.37507479943544     -0.72504517132650
  H   -1.60828016095253     -0.95561233868348      0.99645267384057
  N   -0.47070135888790      1.43345753640262      0.69611236198205
  O   0.55488028064281      1.52283220032386      1.36820437556444
  O   -1.47257929770034      2.12269979996764      0.82088969941576
  C   0.95524286315271     -1.23476438885850      0.85734848009605
  N   1.11586967719364     -1.87765379876109      1.82785215232078
  N   1.94411900315151      0.36568512781003     -0.73035256272116
  H   2.28184944259456      0.85849310501324      0.08493129598046
  H   2.68661311209775     -0.20955121346386     -1.10509150309761
