16
Coordinates from ORCA-job run
  C   -0.45682132041961      0.33511313187527     -0.42880113520217
  C   0.81773987024159     -0.51421428495863     -0.25801238708553
  Br  -0.45079596632397      1.12082945734336     -2.20061514722955
  H   0.73131250817668     -1.28058816996202     -1.03658805742198
  C   -1.72844897286706     -0.46447379731203     -0.22267594912027
  H   -1.77761172400013     -0.83192635575402      0.80568312885840
  H   -2.59555030892831      0.16369110558423     -0.41833705207790
  H   -1.74174511853477     -1.31393089743399     -0.90782122263112
  N   -0.47609785831294      1.48539064232148      0.57393991120837
  O   0.48560855352744      1.59082915414900      1.33272189671763
  O   -1.46915663818399      2.19834834015344      0.57196252129795
  C   0.76477842599100     -1.22094681768256      1.04001512410770
  N   0.76261579857404     -1.80405016166893      2.06024974407520
  N   2.04281868062878      0.21322959255553     -0.49942840736869
  H   2.30133069647962      0.75191696270026      0.31561350354400
  H   2.79002337395162     -0.42821790191039     -0.72890647167204
