16
Coordinates from ORCA-job run
  C   -0.49131776857281      0.31057305654964     -0.39136584064144
  C   0.81891132228253     -0.49284881017920     -0.24192336252008
  Br  -0.52832411081232      1.03637491512767     -2.19269536950428
  H   0.83148645811628     -1.19349910000565     -1.09128189437939
  C   -1.74501531499995     -0.50151844625013     -0.14287088139370
  H   -2.62923081232971      0.11796853974534     -0.30054066265632
  H   -1.78189109929889     -1.34200055588826     -0.83821223780957
  H   -1.74469835254330     -0.87611509969587      0.88089565385526
  N   -0.42422015815070      1.45175465405736      0.62511045497262
  O   -0.30544913584048      2.60540159542804      0.25016512344864
  O   -0.48484362699328      1.05943409529567      1.78590389108769
  C   0.80614439859731     -1.31618854741486      0.97377736555478
  N   0.83986027942588     -2.04088177769794      1.89693482820087
  N   1.94860652215127      0.42167400726586     -0.19231154546402
  H   2.78856437488314     -0.06968467131605      0.08656852068792
  H   2.10041702408504      0.82755614497839     -1.10815404343896
