16
Coordinates from ORCA-job run
  C   -0.44794319107764      0.36810052875485     -0.39267800771899
  C   1.02664913331076     -0.11467609285045     -0.38108629356813
  Br  -0.94184292327325      0.86049641522407     -2.20748385682284
  H   1.61769664505889      0.64659738519865     -0.89546541079173
  C   -1.43799429843575     -0.62246497671860      0.16885248073167
  H   -1.19601900558711     -0.84520773376526      1.21063775129564
  H   -1.40194065851709     -1.54035482749037     -0.41915178403032
  H   -2.44675407534138     -0.21680996778483      0.13782303684655
  N   -0.48154895252078      1.66556161531152      0.41236718869590
  O   0.48279252347364      2.41526278707639      0.28919598189603
  O   -1.46498223284261      1.87109128809555      1.11381776215199
  C   1.11076238697556     -1.36401516001076     -1.14759992082928
  N   1.16043630452223     -2.38511578473218     -1.72471838139535
  N   1.60573873298559     -0.31315484258986      0.92719320871514
  H   1.10374635605134     -0.98829790256066      1.48689729154863
  H   1.71320325521759      0.56098726884195      1.42239895327505
