16
Coordinates from ORCA-job run
  C   -0.50293937030192      0.31943304260773     -0.46239067131870
  C   0.97885676463122     -0.05036019304847     -0.27647345676442
  Br  -0.89177835155009      0.49878183839720     -2.35745427133946
  H   1.56439829840607      0.71952314801564     -0.78298457862850
  C   -1.45947489915404     -0.64606190380980      0.18935835615293
  H   -1.26392569926869     -0.67994015746055      1.26238882735273
  H   -1.32525690811013     -1.63673788744252     -0.24870903209871
  H   -2.48867471055058     -0.32720808366679      0.03828582831058
  N   -0.64967783740358      1.71636529938646      0.14050505753394
  O   -1.63607864082879      1.92540462734233      0.83459670534612
  O   0.22782472161525      2.52595202125013     -0.13159071066908
  C   1.25976025390233     -1.34888060171460     -0.90509465188031
  N   1.49962330478028     -2.41880948972610     -1.32738574554835
  N   1.27441072804079     -0.01522859752180      1.14799572605125
  H   1.21140259206177     -0.93441750867191      1.56596161641757
  H   2.20152975373012      0.35218444606304      1.31299100108242
