16
Coordinates from ORCA-job run
  C   -0.49709888322406      0.30030235939082     -0.39534039019397
  C   0.82643762206334     -0.47967421807351     -0.23850822232100
  Br  -0.54004033379208      1.02020730611038     -2.19866167738882
  H   0.85360333737427     -1.18301541466797     -1.08527579886854
  C   -1.73622938782789     -0.53445280366440     -0.14915999202460
  H   -1.73237910996662     -0.90581647624031      0.87581383373068
  H   -1.75405378573033     -1.37754970560419     -0.84210550020069
  H   -2.63194489058959      0.06691065221898     -0.31187194943783
  N   -0.45432718277999      1.44532823117774      0.61808228564679
  O   -0.35434325861577      2.59977734604354      0.24000839508988
  O   -0.51530903972376      1.05615665986039      1.77991965759823
  C   0.82555042304097     -1.29714351540758      0.98136728733970
  N   0.89071597949294     -2.00083012074939      1.91901326901383
  N   1.94012383431043      0.45407817666813     -0.18789667686476
  H   2.09071543694222      0.85752588399529     -1.10499027906558
  H   2.78657923902593     -0.02080436105790      0.09960575794668
