16
Coordinates from ORCA-job run
  C   -0.51936109936012      0.28760502487469     -0.39008978504424
  C   0.82158209005321     -0.46894772436082     -0.32257338585793
  Br  -0.74342811482720      1.00213814987407     -2.17797990959228
  H   0.71110381305450     -1.26928870830542     -1.06302203644272
  C   -1.70577657349821     -0.58538219062827     -0.03069717485549
  H   -2.62937748770346     -0.02330235263152     -0.15634884601602
  H   -1.72859239225266     -1.45894412984506     -0.68465833839747
  H   -1.62667805620327     -0.91636009134792      1.00816606818445
  N   -0.51868309757741      1.47236257183224      0.57121664164348
  O   0.50508276302706      1.67204947597479      1.22224116956724
  O   -1.55441070335014      2.11714234192288      0.64867426616530
  C   0.94752056016173     -1.12570931129465      0.99650216712648
  N   1.08754437357929     -1.66754604953185      2.02980571997306
  N   1.96352252604265      0.32700446568808     -0.71148580957194
  H   2.72598389138618     -0.27342281380844     -0.99554205270455
  H   2.26496750746784      0.91160134158722      0.05579130582263
