16
Coordinates from ORCA-job run
  C   -0.45606967689983      0.25395355252499     -0.34410120486883
  C   0.88522485387970     -0.52736506225969     -0.23539723086455
  Br  -0.54492159676600      1.08297381434810     -2.10289050589384
  H   0.76549933144237     -1.35522112175336     -0.94483131428045
  C   -1.66500413352272     -0.63101388011225     -0.12960818926675
  H   -1.63744892332210     -1.46202898376334     -0.83661249258300
  H   -1.65574955725556     -1.02594287271467      0.88947881173370
  H   -2.58181629289424     -0.06457261754783     -0.27920096559451
  N   -0.51019273154451      1.39763335506678      0.66481955599194
  O   -1.60229652116700      1.91745356265549      0.84919446691589
  O   0.54134157732321      1.71898459340752      1.21380021855201
  C   0.94454697794111     -1.12685376473487      1.10781394617842
  N   0.95450973365620     -1.61424500120811      2.17585589739026
  N   2.13633079743920      0.11915890448427     -0.54133810760352
  H   2.25501204749046      0.94372367051896      0.03061019834082
  H   2.17003411419971      0.37636185108800     -1.51859308414762
