16
Coordinates from ORCA-job run
  C   -0.43576423924320      0.43475622851373     -0.11621128329901
  C   0.79798137829651     -0.43138797416379      0.19831377326932
  Br  0.07338142521644      1.88289980484694     -1.29186820801670
  H   0.44681298887568     -1.22324967464452      0.86495017842954
  C   -1.56727360412327     -0.37148280644969     -0.72175610224146
  H   -1.85659803473121     -1.15929032088931     -0.02158070626309
  H   -2.42499742765036      0.27469721899813     -0.91517672632518
  H   -1.22634393062161     -0.82251616513417     -1.65141400790846
  N   -0.94935341542150      1.00409255834097      1.21020024357067
  O   -1.32892845869111      2.16236313253470      1.26807726002121
  O   -0.99816023030376      0.17512828600347      2.11705323038722
  C   1.80486107417244      0.35320798627661      0.93964733320845
  N   2.65201328664977      0.94756979505935      1.49643667488916
  N   1.29056454102599     -1.04886944099511     -1.01854215339303
  H   1.92061575650057     -1.80642937238996     -0.78513888623581
  H   1.80118889004860     -0.37248925590735     -1.57399062009283
