16
Coordinates from ORCA-job run
  C   -0.41726636228378      0.28570470056613     -0.48526132959540
  C   1.05742195555731     -0.14645257735274     -0.26987402176738
  Br  -0.75788616496933      0.45795923156340     -2.39115054922899
  H   1.68059013980263      0.53537873090247     -0.85316071859552
  C   -1.43815658867555     -0.62652783296582      0.14921382323720
  H   -2.44632143495909     -0.26215974647066     -0.03518891715820
  H   -1.33614688579580     -1.62809828331079     -0.27032163392269
  H   -1.28644199562820     -0.66484905303227      1.23040377876847
  N   -0.53893799078640      1.69643244283835      0.08748533770237
  O   0.42153424777645      2.44285317472846     -0.07854803436634
  O   -1.58166576335737      1.98615589266269      0.66210313497974
  C   1.22587583566846     -1.50250833952252     -0.80645914851258
  N   1.33964145452976     -2.60280228812899     -1.19955837735650
  N   1.52324813475757     -0.10941589550370      1.09716669830525
  H   1.57157014277377      0.83718394434658      1.44723359803924
  H   0.98394127558958     -0.69785410132057      1.71691635947135
