16
Coordinates from ORCA-job run
  C   -0.42816533545889      0.43352408029904     -0.14881556943195
  C   0.78729626206826     -0.42797949104360      0.24112704069337
  Br  0.13140505295402      1.83204037089830     -1.36065814839904
  H   0.40595000282322     -1.19060196732903      0.92506306531403
  C   -1.54455578128345     -0.38832994764289     -0.76130298439995
  H   -1.86297256609399     -1.14732748308053     -0.04237022338463
  H   -1.17624253454361     -0.87590893355513     -1.66160812476626
  H   -2.39070636008284      0.25508130154952     -1.00769333543747
  N   -0.98062745933112      1.05578681969098      1.13799687903244
  O   -1.33170038341096      2.22426122576613      1.14787546596616
  O   -1.08588815920074      0.25518043844343      2.06518668875290
  C   1.77340455972201      0.37765720411580      0.98766486149611
  N   2.60333157534651      0.98605382587965      1.55514712815858
  N   1.31677021425312     -1.09505131782195     -0.93305941319226
  H   1.93122804553741     -1.84820488251229     -0.64934602234637
  H   1.85247286670102     -0.44418124365743     -1.49520730805568
