16
Coordinates from ORCA-job run
  C   -0.46521774003555      0.40433394796780     -0.11115882076581
  C   0.82988905832495     -0.37581994691975      0.17993577260178
  Br  -0.08771697658295      1.84788037132383     -1.34135290899018
  H   0.55162127497607     -1.16970764242121      0.87775581871950
  C   -1.56492724614123     -0.48571816553720     -0.65472966683466
  H   -2.46768557060730      0.10115023475350     -0.83195386654340
  H   -1.77990368971867     -1.27072641689806      0.07490791041315
  H   -1.22959269476952     -0.93942050358482     -1.58511984416198
  N   -0.96775059267828      0.97798774816450      1.21740074439982
  O   -0.92712093949627      0.17622695081179      2.14880457139205
  O   -1.42464075938658      2.10887882380784      1.25616753055254
  C   1.81118084286515      0.48737001685846      0.86571779880957
  N   2.63914670959821      1.14510716248637      1.37822567663077
  N   1.31745242543649     -0.99416017988975     -1.03832247369795
  H   1.99683925534501     -1.70899291083832     -0.80952712617613
  H   1.76942664287046     -0.30438949008498     -1.62675111634908
