16
Coordinates from ORCA-job run
  C   -0.43959729389133      0.42757921950089     -0.12491830713782
  C   0.80395924499660     -0.41973445498588      0.20132976711450
  Br  0.04156313876392      1.83039980149383     -1.36626901332493
  H   0.46928973383221     -1.18658565352020      0.90460911446963
  C   -1.57751784427018     -0.40672765762941     -0.67811312960139
  H   -2.44212473280301      0.22760779207917     -0.87961488935852
  H   -1.84952021507367     -1.16897001857501      0.05657276016717
  H   -1.25172461496312     -0.89126558644403     -1.59622115816724
  N   -0.93403820016347      1.04799761499464      1.18531359702610
  O   -0.94759450760080      0.26222255370614      2.13104500276885
  O   -1.33535078691456      2.20034424289483      1.19677001262154
  C   1.81960943874302      0.39736453715622      0.89383466596112
  N   2.67357946507484      1.01538827537110      1.41292005011691
  N   1.27808319851246     -1.08206678802909     -0.99913353591857
  H   1.91547458065277     -1.82763586291868     -0.74781662100701
  H   1.77590939510432     -0.42591801509454     -1.58930831573033
