16
Coordinates from ORCA-job run
  C   -0.47610783595894      0.39078498698522     -0.10938014344747
  C   0.84149660571106     -0.35731978030558      0.16817356111956
  Br  -0.15945203161704      1.81297101363947     -1.37992540894847
  H   0.59414154490050     -1.14108981690101      0.88884864371197
  C   -1.56944782312672     -0.53374788381005     -0.60625011974202
  H   -2.48868418171103      0.03010458415026     -0.77291323686181
  H   -1.24769728635094     -0.99913960358976     -1.53564162709448
  H   -1.74950044652341     -1.30769706368426      0.14393803832694
  N   -0.95430680037482      0.98249553301261      1.22063901215251
  O   -0.90350345404869      0.18859046991900      2.15826260431593
  O   -1.39556959931592      2.11949940761385      1.25880069415260
  C   1.81802231001195      0.54321567624554      0.81149081843525
  N   2.62495298691564      1.25815992923077      1.27900878326354
  N   1.31412062776804     -0.99257307492564     -1.04733250514050
  H   1.73839053245527     -0.30664481062786     -1.66060738453121
  H   2.01314485126507     -1.68860956695257     -0.81911172971233
