16
Coordinates from ORCA-job run
  C   -0.53042286736642      0.30238801800846     -0.44268935190765
  C   0.91953720060758     -0.20880424635954     -0.38482393043363
  Br  -1.16772688782696      0.23388465408749     -2.27659444043912
  H   1.49868276341174      0.39841624411066     -1.08341681562892
  C   -1.47300165603199     -0.43026730331520      0.47750156321801
  H   -1.12920110639011     -0.32253517974930      1.50755312348809
  H   -1.50058462469185     -1.48529872279187      0.19903125224678
  H   -2.47708560272880     -0.01747225844023      0.40588324676306
  N   -0.45229044643939      1.78276597602354     -0.06997633030209
  O   -1.30389655906381      2.21219289946480      0.69740883075034
  O   0.45166391728462      2.43036783849853     -0.58273817163962
  C   0.97903596389641     -1.61273042116773     -0.81587836218419
  N   1.04996538198338     -2.75564535175500     -1.07917033451699
  N   1.41850113302089      0.00946868657568      0.96466548397668
  H   2.39134312828493      0.28357718187860      0.94706864706898
  H   1.32648026204979     -0.82030801506893      1.53617558954025
