16
Coordinates from ORCA-job run
  C   -0.50592281755487      0.30376881209798     -0.46863707727457
  C   0.93704288095488     -0.21649674265654     -0.32980718340954
  Br  -1.01389726692120      0.30642765897654     -2.34487351127109
  H   1.56082543762255      0.37565575489342     -1.00293583357521
  C   -1.51047179472352     -0.45405522070353      0.35985961653322
  H   -1.53902165711236     -1.49393744343098      0.03010181244856
  H   -2.50164494255057     -0.01889261499871      0.25305275664832
  H   -1.21327311063536     -0.40344896122437      1.40869141614766
  N   -0.45375110468864      1.76983011448935     -0.04129844591356
  O   -1.41641452205211      2.20878340819511      0.57362638098115
  O   0.54238101212354      2.40431310913983     -0.37028280187249
  C   1.00312153622273     -1.61991127914970     -0.74892271637720
  N   1.07042436177766     -2.76175550573434     -1.01637918390655
  N   1.34929242348349     -0.02562670649945      1.05565330006530
  H   2.19276144614647      0.52794079648462      1.10538873875671
  H   1.49654811790729     -0.90259517987923      1.53576273201927
