16
Coordinates from ORCA-job run
  C   -0.45110135935485      0.25946038789096     -0.34594917608694
  C   0.86616077169210     -0.56075627467927     -0.23002233171917
  Br  -0.53181428905033      1.04591930098910     -2.12481907910452
  H   0.71398715899402     -1.40113572991478     -0.91817765247958
  C   -1.68487701710067     -0.58135558783799     -0.09796827903157
  H   -1.67733378333572     -0.95141306075563      0.93042356210431
  H   -1.69077742153458     -1.42982773724168     -0.78439621881635
  H   -2.58502266242398      0.00991753732926     -0.25259469254077
  N   -0.45942414292467      1.42926198563441      0.63361385798665
  O   0.60669729730126      1.73001671047821      1.16593580197920
  O   -1.53258651989026      1.98858447928999      0.81364145487894
  C   0.91996273714108     -1.12928208431442      1.12674704210566
  N   0.92558774686731     -1.59107344892036      2.20608795025858
  N   2.13381319226778      0.03875410865593     -0.56299059722693
  H   2.16535451293655      0.27087918481421     -1.54662730701091
  H   2.28337377841498      0.87305022858204     -0.01290433529659
