16
Coordinates from ORCA-job run
  C   -0.40155431183192      0.28134125378503     -0.38759325746285
  C   0.84987815097450     -0.61129984747241     -0.14622722498156
  Br  -0.27241961996219      1.05281314007434     -2.17005404505362
  H   0.71419315326393     -1.44790037768680     -0.84241885178314
  C   -1.69954522335892     -0.48508270296966     -0.25067958740515
  H   -1.69181803992767     -1.33820143449721     -0.93138475886010
  H   -2.54582113614881      0.15556872815395     -0.48993802799420
  H   -1.80757104381167     -0.84528257570220      0.77559785432815
  N   -0.43281937738831      1.45946524827623      0.58154098890509
  O   0.59378771794267      1.70154396387684      1.21235096741414
  O   -1.48282298563134      2.08306131232563      0.65598357764799
  C   0.74509781482936     -1.16997801747732      1.21169645736179
  N   0.62407546192798     -1.62231966973358      2.28826753614073
  N   2.17512428340454     -0.08765612032632     -0.36226237100164
  H   2.32056707175406      0.74264989248965      0.19497915730270
  H   2.31164808396380      0.13127720688383     -1.33985841455835
