16
Coordinates from ORCA-job run
  C   -0.37547733720877      0.42921520964603     -0.12211367493162
  C   0.87543565609571     -0.40873567384999      0.27303888194097
  Br  0.12564083617184      1.80792482961168     -1.37709748555900
  H   0.51684417538058     -1.13410055039185      1.01091036119087
  C   -1.48678992240609     -0.42628732545430     -0.69979396026747
  H   -1.74206451560869     -1.22042083363301      0.00469369998093
  H   -1.16760544546797     -0.85901601833594     -1.64770433632146
  H   -2.37193531909487      0.18393716855634     -0.88649703899873
  N   -0.90243545497986      1.05545768962955      1.17138102004385
  O   -1.19063567958083      0.21798344006069      2.02550360894904
  O   -1.00589754358964      2.26645554040865      1.27978508927072
  C   1.84827157738266      0.45821484520199      0.95229876612982
  N   2.61819187774334      1.15661705073486      1.49778211243083
  N   1.52587051927460     -1.13242601738915     -0.79114389006825
  H   1.79227740678123     -0.51604533360955     -1.54876786630047
  H   0.94030916910675     -1.87777402118600     -1.14227528749003
