16
Coordinates from ORCA-job run
  C   -0.41424340967814      0.39630356566245     -0.10772010311395
  C   0.91594735789230     -0.33655355368336      0.23520466755827
  Br  -0.08083274107167      1.79780333164023     -1.39276813573392
  H   0.64873808747197     -1.08254156379591      0.99109571322299
  C   -1.47891440942420     -0.54986652250310     -0.62866842696379
  H   -1.16768936056090     -0.96783752232807     -1.58583701159871
  H   -1.64045737564591     -1.35284106198218      0.09326796567911
  H   -2.41647607478927     -0.01297166241513     -0.78192681830832
  N   -0.92980811229915      0.99171808549346      1.20437376520176
  O   -1.12612583225748      2.19145406074723      1.30896326831973
  O   -1.10941036084027      0.14312165731648      2.07701315842085
  C   1.84493344573925      0.61039228875940      0.86740283348308
  N   2.57999193332156      1.37309559790577      1.37363303433121
  N   1.57559248940314     -1.01407980487695     -0.85330916917513
  H   1.03579287049740     -1.80459578133035     -1.17780795230459
  H   1.76196149224136     -0.38360111460997     -1.62291678901861
