16
Coordinates from ORCA-job run
  C   -0.45064094399956      0.26823522833827     -0.33990404086636
  C   0.87154778151368     -0.54636688509515     -0.24317723207905
  Br  -0.52429835198501      1.11689829765160     -2.09020404514171
  H   0.73043781322114     -1.36336793403909     -0.96122774148760
  C   -1.68010544605443     -0.58937966790126     -0.13120100215949
  H   -1.67544847511354     -1.41236189187716     -0.84794800058879
  H   -2.58318988656640      0.00113357778378     -0.27072140869136
  H   -1.67709214455512     -0.99640306336686      0.88314711292700
  N   -0.47450492734079      1.40249286910615      0.68059829637700
  O   -1.55329573042344      1.94649091039415      0.87320691725376
  O   0.58581455979946      1.69293886741271      1.22980214319159
  C   0.92017478162887     -1.16112130333965      1.09346376144629
  N   0.92140363570852     -1.66035670444928      2.15600691927540
  N   2.13724205255807      0.07322728403788     -0.54593975982969
  H   2.17374517820092      0.34047321690654     -1.52040319907566
  H   2.27721010340762      0.88846719843738      0.03450127944867
