17
Coordinates from ORCA-job run
  C   0.76737495954969     -0.20542977174960      0.12665927269539
  C   -0.63488860237676     -0.06993607625277      0.72796020925293
  H   1.44619196126198      0.08871488923183      0.93718951477443
  H   -0.71989587775373     -0.63804514355430      1.65524543945776
  C   1.03511255958316      0.69746714614524     -1.06785840290312
  H   2.09813904334839      0.63838486385458     -1.31647959664773
  H   0.80858498043641      1.74134068483887     -0.84613084260219
  H   0.44960903453380      0.38632081014102     -1.93100455785315
  N   0.89366165951445     -1.60684620456281     -0.25867119479977
  H   1.14775741425040     -2.18453427765518      0.53326330934685
  H   1.60921083361961     -1.71326237950519     -0.96552812484070
  N   -1.69309851270322     -0.60473589777594     -0.17656417472119
  O   -2.37742787828312     -1.51668139107541      0.27938480264185
  O   -1.78585695849151     -0.10712949509659     -1.29184299714144
  N   -0.94845097043772      1.35432177793498      1.09114530474351
  O   -0.08894350241232      1.89620174432250      1.77951820039150
  O   -2.00708014363955      1.84384872075879      0.72171383820507
