17
Coordinates from ORCA-job run
  C   0.77291469863427      0.05323254953216      0.10257557377553
  C   -0.62491634488343      0.62315735735934      0.30005713321927
  H   1.39239721565208      0.67209365667260      0.76040514457039
  H   -0.66332691134068      1.70303868912727      0.15895639945571
  C   1.24444576760187      0.24747554272632     -1.33925428099719
  H   0.68101298173060     -0.38960400001213     -2.02281582256335
  H   2.29900148610015     -0.02648112010417     -1.41347445156440
  H   1.14474044235262      1.28763185983345     -1.66511784677149
  N   0.82522698010280     -1.29850540542814      0.63102398551128
  H   1.78289146202271     -1.56537838870029      0.81495896938134
  H   0.41865229989232     -1.95391728556052     -0.02313082071934
  N   -1.06822894849567      0.36006964223003      1.71464002894337
  O   -1.99616602343207     -0.41183766460923      1.90231017033787
  O   -0.41590268578905      0.95978509658323      2.55848348158695
  N   -1.66599399158807      0.04988618520686     -0.60731761830531
  O   -2.61416546171827      0.78826182816710     -0.86129596326405
  O   -1.51358296684217     -1.09990854302389     -1.01200408259656
