17
Coordinates from ORCA-job run
  C   0.84620872297328      0.11206802179397      0.06179130208658
  C   -0.60069624202589      0.55218595538176      0.35476804700991
  H   1.46196504000528      0.75376590516597      0.69815428992521
  H   -0.72531392896579      1.63384986092106      0.28015214819205
  C   1.16075923916012      0.40294631688663     -1.40108741316400
  H   0.61244697850420     -0.27649265839806     -2.05929561870986
  H   0.90672989077627      1.42828348497802     -1.68125454133704
  H   2.22543782873348      0.24047688250762     -1.56644972166433
  N   1.17968654420096     -1.25623410504774      0.38311468746654
  H   1.13404515999266     -1.41812745146378      1.38053736104054
  H   0.55594382596678     -1.90307808322448     -0.08259239190461
  N   -1.04597788676601      0.17923708971399      1.74297470229821
  O   -2.22344053463659     -0.11306182028731      1.90591012289272
  O   -0.18564596759715      0.26984454306609      2.61322920212715
  N   -1.54949068647262     -0.05130340588396     -0.62020425484583
  O   -2.12131842694964      0.72197127748779     -1.38456617309080
  O   -1.63033955689933     -1.27733181359755     -0.62618174832244
