17
Coordinates from ORCA-job run
  C   0.65517849502623     -0.23492183321421     -0.05200034306087
  C   -0.83236954999849      0.04363084430708      0.05822888690738
  H   1.04875115831752     -0.31978630332340      0.96841935237885
  H   -1.31417391804993      0.10520118693388     -0.91526726440016
  C   1.34079079205249      0.91193088239630     -0.78059508635568
  H   2.40753882786837      0.69437573850855     -0.87431221092081
  H   1.24444206369078      1.85689579248130     -0.24465473883020
  H   0.92282341361173      1.03226151516581     -1.78298320001560
  N   0.77199293526493     -1.46579724570557     -0.82668550800842
  H   0.71354620922802     -2.26822482064213     -0.21305888695369
  H   1.66409616247936     -1.49522369688299     -1.30275930070829
  N   -1.08149985568689      1.32656301569464      0.78167194956946
  O   -1.44419198116334      2.28179432431771      0.10171213886661
  O   -0.84105334519334      1.32740087868955      1.98623622437325
  N   -1.56329920167015     -1.01413150458069      0.83826132137657
  O   -0.90540979753369     -1.82269650957246      1.48610209448951
  O   -2.78716240824361     -0.95727226457335      0.77068457129211
