17
Coordinates from ORCA-job run
  C   0.65378812198565     -0.24343621453594     -0.01147610694301
  C   -0.83352993796391      0.05427792019113      0.02136385593309
  H   1.00580654942144     -0.26800268657454      1.02720804887539
  H   -1.27624318036363      0.06119914385530     -0.97239299267341
  C   1.38100534778683      0.85013817503163     -0.78058731462443
  H   1.00356221860748      0.91423496139176     -1.80400636052085
  H   2.44781653930790      0.61676767603181     -0.81929676552937
  H   1.27554273005565      1.82645989109181     -0.30608427185314
  N   0.78743359174106     -1.52152566568563     -0.70258428953917
  H   0.69702080218926     -2.28330581075624     -0.04269625058525
  H   1.69759784283742     -1.58797886556594     -1.13922866297654
  N   -1.09655962298896      1.38155466823264      0.65513657202135
  O   -1.41868535674700      2.29688695368912     -0.09626197142951
  O   -0.90745139926865      1.45325691513625      1.86663729302145
  N   -1.60667354421696     -0.94736194926406      0.83391485473965
  O   -2.82593345552561     -0.88760469492164      0.70915691877624
  O   -0.98449724685796     -1.71556041734745      1.56119744330749
