14

C	-0.513814	-0.059256	-1.434731
C	0.0	0.0	0.0
Br	0.151126	-1.646327	-2.386197
H	1.103195	0.0	0.0
H	-1.601687	-0.167709	-1.467147
C	-0.167105	1.128074	-2.210869
N	0.014341	2.097053	-2.851118
C	-0.51387	-1.137514	0.74176
N	-0.927641	-2.042674	1.370051
C	-0.389712	1.314131	0.679897
H	-0.016318	1.293469	1.70658
H	-1.470704	1.490935	0.697696
H	0.109278	2.140724	0.169686
H	2.655868	0.0	0.0
