14

C	-0.501109	0.140006	-1.433362
C	0.0	0.0	0.0
Br	0.138108	-1.325693	-2.576208
H	1.106475	0.0	0.0
H	-1.590894	0.065523	-1.489504
C	-0.114856	1.40913	-2.044095
N	0.091319	2.44955	-2.550872
C	-0.513696	-1.226256	0.581407
N	-0.913822	-2.208413	1.091625
C	-0.391744	1.213084	0.846394
H	0.119495	2.097545	0.459316
H	-1.471933	1.394446	0.872349
H	-0.034518	1.051251	1.866025
H	2.648207	0.0	0.0
