14

C	-0.300912	0.085098	-1.473327
C	0.0	0.0	0.0
Br	-2.190089	0.527184	-1.926783
H	1.10604	0.0	0.0
H	0.278389	0.917214	-1.883686
C	0.044536	-1.127647	-2.204342
N	0.340524	-2.088869	-2.81297
C	-0.500953	-1.210799	0.613158
N	-0.832531	-2.204229	1.148433
C	-0.374524	1.255365	0.773949
H	-1.454	1.412316	0.839681
H	0.045729	1.18246	1.780418
H	0.09109	2.119707	0.289638
H	2.590141	0.0	0.0
