15

C	0.0	0.0	0.0
C	-0.261344	0.07282	-1.552269
Br	1.920159	0.0	0.0
H	0.205135	1.022027	-1.841639
H	-0.30014	0.877118	0.553369
N	-0.630382	-1.164936	0.626508
O	-0.66811	-2.200945	-0.08038
O	-0.646641	-1.174729	1.875634
C	-1.665159	0.049222	-2.181797
H	-1.530011	0.049957	-3.270549
H	-2.187092	-0.856274	-1.883335
H	-2.253752	0.915173	-1.893989
C	0.505952	-0.964349	-2.275367
N	1.014434	-1.740351	-2.996933
H	-2.000522	0.0	0.0
