15

C	0.0	0.0	0.0
C	-0.560022	-0.014687	-1.413389
Br	1.917193	0.0	0.0
H	-1.679476	-0.092688	-1.119577
H	-0.36413	0.865354	0.547798
N	-0.423657	-1.179864	0.846207
O	-0.472673	-0.971679	2.053229
O	-0.569669	-2.268794	0.303223
C	-0.046591	-1.086393	-2.373591
H	1.025396	-0.976759	-2.565172
H	-0.233082	-2.078522	-1.970308
H	-0.570544	-0.988337	-3.327443
C	-0.338521	1.30222	-1.987336
N	-0.162137	2.349024	-2.495995
H	-2.783848	0.0	0.0
