15

C	0.0	0.0	0.0
C	-0.393479	-0.035488	-1.480925
Br	1.928039	0.0	0.0
H	0.291728	-0.71081	-2.007096
H	-0.293896	0.886431	0.548377
N	-0.497781	-1.174763	0.750645
O	-0.577881	-1.072719	1.984283
O	-0.500633	-2.247941	0.127808
C	-0.306696	1.370858	-2.073113
H	0.698132	1.788395	-1.973385
H	-1.020643	2.014974	-1.551147
H	-0.580047	1.34248	-3.13069
C	-1.777253	-0.534867	-1.652132
N	-2.577767	-1.024135	-2.388707
H	-2.094941	0.0	0.0
