15

C	0.0	0.0	0.0
C	-0.25654	0.0437	-1.551958
Br	1.920552	0.0	0.0
H	0.275655	0.951162	-1.864386
H	-0.297327	0.895351	0.527944
N	-0.621133	-1.14319	0.669653
O	-0.628251	-1.105277	1.919695
O	-0.661084	-2.207148	0.006539
C	-1.657515	0.115429	-2.179524
H	-1.521161	0.167839	-3.270511
H	-2.200557	0.994957	-1.840859
H	-2.234409	-0.771343	-1.929486
C	0.434427	-1.05833	-2.247611
N	0.899464	-1.860641	-2.969909
H	-2.011735	0.0	0.0
