15

C	0.0	0.0	0.0
C	-0.502153	0.181411	-1.43874
Br	1.914387	0.0	0.0
H	-1.595616	0.264767	-1.31693
H	-0.347333	0.842148	0.619167
N	-0.625326	-1.18851	0.611031
O	-0.366994	-1.355523	1.830499
O	-1.796415	-1.404638	0.061247
C	-0.164909	-0.988989	-2.361852
H	0.912948	-1.088596	-2.509637
H	-0.565495	-1.897483	-1.9145
H	-0.6348	-0.834739	-3.337171
C	-0.027182	1.444166	-2.003262
N	0.318628	2.448324	-2.507749
H	-2.839092	0.0	0.0
