15

C	0.0	0.0	0.0
C	-0.523103	0.327538	-1.400482
Br	1.914809	0.0	0.0
H	-1.619069	0.371107	-1.243599
H	-0.334656	0.78208	0.699312
N	-0.61772	-1.232534	0.531808
O	-0.388387	-1.444702	1.746317
O	-1.774151	-1.437132	-0.041095
C	-0.181611	-0.713596	-2.463287
H	0.893734	-0.764277	-2.643817
H	-0.680667	-0.459419	-3.402063
H	-0.546263	-1.679572	-2.12042
C	-0.082411	1.659014	-1.808891
N	0.249885	2.721518	-2.186425
H	-2.820816	0.0	0.0
