15

C	0.0	0.0	0.0
C	-0.394458	0.194513	-1.482323
Br	1.914325	0.0	0.0
H	-1.490582	0.322403	-1.419508
H	-0.38421	0.823997	0.613005
N	-0.611247	-1.260245	0.556254
O	0.183183	-2.110302	1.049762
O	-1.732484	-0.9878	1.322032
C	-0.091175	-1.02636	-2.341732
H	0.978584	-1.231449	-2.390856
H	-0.470535	-0.875474	-3.35509
H	-0.590513	-1.883165	-1.88696
C	0.160184	1.418756	-2.052504
N	0.528474	2.417681	-2.553226
H	-2.319161	0.0	0.0
