15

C	0.0	0.0	0.0
C	-0.258936	-0.112381	-1.549903
Br	1.92041	0.0	0.0
H	0.258052	0.771962	-1.945252
H	-0.295431	0.945706	0.43271
N	-0.604005	-1.06766	0.79757
O	-0.603426	-0.89147	2.035152
O	-0.636919	-2.198315	0.256383
C	-1.661903	-0.124214	-2.177136
H	-1.533986	-0.166603	-3.273428
H	-2.225347	0.770712	-1.911503
H	-2.218182	-0.998244	-1.843369
C	0.449716	-1.263124	-2.141156
N	0.912172	-2.143289	-2.767171
H	-2.010122	0.0	0.0
