16

C	-0.530195	0.022028	-1.431955
C	0.0	0.0	0.0
F	-0.058694	-1.121767	-2.045862
H	1.088738	0.0	0.0
N	-1.910173	0.202898	-1.552234
H	-2.1971	0.110838	-2.518274
H	-2.415683	-0.421174	-0.93726
N	0.104576	1.171388	-2.207405
O	0.750862	2.0027	-1.58472
O	-0.148895	1.172419	-3.408704
N	-0.451541	-1.314186	0.616157
O	-1.669529	-1.493087	0.710382
O	0.413497	-2.096801	0.975778
C	-0.53931	1.081895	0.807025
N	-0.960662	1.943701	1.484399
Br	3.382865	0.0	0.0
