16

C	-0.319555	-0.000814	-1.493728
C	0.0	0.0	0.0
F	-0.042719	1.290278	-1.930162
H	1.09374	0.0	0.0
N	0.344649	-0.992584	-2.201529
H	0.300787	-0.810351	-3.196143
H	1.305595	-1.091445	-1.878294
N	-1.822838	-0.137848	-1.78186
O	-2.154771	-0.002701	-2.954404
O	-2.567294	-0.389112	-0.839354
N	-0.418886	-1.247327	0.728207
O	-0.029179	-2.305864	0.254823
O	-1.058017	-1.111701	1.764737
C	-0.528482	1.18032	0.66142
N	-0.93286	2.148473	1.188198
Br	3.282524	0.0	0.0
