16

C	-0.62042	0.030368	-1.391114
C	0.0	0.0	0.0
F	-1.98598	-0.206644	-1.267501
H	1.092424	0.0	0.0
N	-0.329209	1.218711	-2.066056
H	-0.52925	2.042828	-1.516549
H	-0.804522	1.239365	-2.958598
N	-0.110253	-1.079832	-2.305941
O	-0.743254	-1.187447	-3.353605
O	0.88164	-1.705277	-1.976054
N	-0.43423	-1.209962	0.786801
O	-0.769123	-2.210734	0.163971
O	-0.368224	-1.105941	2.006413
C	-0.453371	1.186487	0.717859
N	-0.827562	2.18731	1.206579
Br	3.299916	0.0	0.0
