16
Coordinates from ORCA-job run
  C   -0.59564621644954      0.01856703380151      0.17945283872544
  C   0.89716778025968     -0.16929797970294     -0.13636111859932
  Cl  -0.72793911440113      1.67114801398633      1.03228759359908
  H   0.96191005319435     -1.14017848771532     -0.64014011095506
  C   -1.45153216491387      0.11288380159439     -1.06574639431732
  H   -1.16083744252110      0.96099901257772     -1.68512374322390
  H   -1.35111537808395     -0.81446218141291     -1.63532002528709
  H   -2.49945013646371      0.23780066448800     -0.78550790089607
  N   -0.99108405915888     -1.05599671115554      1.00309953388359
  H   -1.94626399858039     -0.95768036530991      1.32079165342614
  H   -0.35852970253590     -1.15010050175251      1.78892543708406
  N   1.66262749541029     -0.26089176546269      1.09771028161872
  H   2.58593387992182     -0.63076603130546      0.90902447250439
  H   1.76699318580424      0.66200448379221      1.50355873555006
  C   1.38295817626484      0.85699928163946     -1.07596172833888
  N   1.82480764225325      1.65997173193765     -1.81068952477385
