16
Coordinates from ORCA-job run
  C   -0.60697508911334      0.36324537958132      0.05557230817168
  C   0.93293803775513      0.46246376350157     -0.01050108257055
  Cl  -1.23801599207728      1.68955152305720     -0.98999850990617
  H   1.17908491989523      1.46636726784219      0.36303605203665
  C   -1.13155214261756     -0.95523640248852     -0.48445126518049
  H   -0.76481730177878     -1.77135742473489      0.14517761188566
  H   -0.79484152007416     -1.12738291053754     -1.50531113038049
  H   -2.22296437405186     -0.95405931481771     -0.45391926594723
  N   -0.99915646376369      0.68827411841941      1.41328913016597
  H   -0.79058736618621     -0.10186239979685      2.01666707583243
  H   -1.99939654602384      0.84928753979492      1.44914634573702
  N   1.43137889777457      0.16284208816139     -1.34669032707270
  H   2.44285643893559      0.11194831310349     -1.33312463718170
  H   1.16619419647930      0.91867387705052     -1.96746601666112
  C   1.48837192095437     -0.51017786897882      0.93913693426301
  N   1.90748238389250     -1.29157754915767      1.70843677680803
