16
Coordinates from ORCA-job run
  C   -0.69255384857486      0.33990528934026      0.10360390137259
  C   0.82919938247727      0.42343603023174     -0.20230999507382
  Cl  -1.28211650628538      2.03441968211275      0.16409405116173
  H   0.96947147528130      1.03751715185754     -1.10236064674051
  C   -1.40883503061079     -0.38952350210238     -1.01744302451287
  H   -2.48189473953378     -0.34618722143198     -0.83469528246628
  H   -1.19196276757427      0.06460851686635     -1.98716165209618
  H   -1.10128784706664     -1.43757341043315     -1.02677995056781
  N   -1.00289887341484     -0.28698846174031      1.36140880030369
  H   -0.55192298473744     -1.19703629264792      1.36999939914827
  H   -0.63328898335153      0.26079365752344      2.13130162805371
  N   1.34373297895414     -0.94305186711844     -0.33401926381845
  H   2.31157662315730     -0.99510810895635     -0.04306989254151
  H   1.29758083718732     -1.23194895052676     -1.30304788508048
  C   1.51836320018674      1.08771991402664      0.90641760779984
  N   2.07783708390546      1.57701757299858      1.81506220505810
