16
Coordinates from ORCA-job run
  C   -0.60078278829620      0.09388660031620      0.10962084756217
  C   0.94879430365057     -0.02198537866501     -0.01989601751719
  Cl  -0.94502299417047      1.74016814901464      0.75528259005558
  H   1.12926278433559     -1.02970390244221     -0.41805778491155
  C   -1.28316299619766     -0.05904932629619     -1.23531010300851
  H   -2.36221471573431      0.00481193229244     -1.09525782381966
  H   -0.96356080057040      0.71486953925568     -1.93229000876197
  H   -1.04004721467515     -1.03747176691736     -1.66419221435446
  N   -1.16614910306655     -0.84963133883267      1.03983544596666
  H   -1.09561959035212     -1.79351199179627      0.67723806984061
  H   -0.72093860727481     -0.79390983606053      1.94714476826754
  N   1.72812831112702      0.10540592244613      1.19450742840021
  H   1.51901977426596      0.97902417708599      1.66215209130898
  H   1.54712992415139     -0.66578523790419      1.82266660567717
  C   1.45799359145472      0.92804390792670     -1.01839169560710
  N   1.84717012135243      1.68583855057667     -1.82605219909848
