16
Coordinates from ORCA-job run
  C   -0.63117352887551      0.35839920989260      0.17787971729999
  C   0.85992404576740      0.44438780798473     -0.20132201076045
  Cl  -1.23366839255417      2.04708697673747      0.33465776541269
  H   0.93451302224106      1.04037245585994     -1.12016795901282
  C   -1.42437298322677     -0.31083152788053     -0.93739303362047
  H   -1.30995733546585      0.21500087796046     -1.88891430084818
  H   -1.08788686913444     -1.34449801784435     -1.04517392507895
  H   -2.48537627306314     -0.31734516353486     -0.67982924016659
  N   -0.71885498566440     -0.27632198188236      1.46453152636253
  H   -0.26010073320438     -1.17917038886158      1.39430575896088
  H   -1.68686162531571     -0.41058137220233      1.73142097545576
  N   1.38127339655479     -0.91970639065463     -0.35905277081030
  H   2.32271693648533     -0.99136171906994      0.00385642602971
  H   1.40452359759547     -1.17096205657317     -1.33876938849983
  C   1.62334118421730      1.14352674088716      0.83724138860414
  N   2.31196054364303      1.67100454918139      1.62772907067190
