16
Coordinates from ORCA-job run
  C   -0.57763221146190     -0.01167731433255      0.23168430704310
  C   0.88374642336336     -0.13645083040924     -0.22959994643659
  Cl  -0.65623953758804      1.55168401202009      1.24480348789593
  H   0.91634070887295     -1.05499403058042     -0.82602673351979
  C   -1.54200924875551      0.17899258230076     -0.91957389236447
  H   -2.56261574816979      0.25334787933745     -0.53867936333358
  H   -1.31958723844425      1.08758196378990     -1.47851061428449
  H   -1.47932657281418     -0.68850152631161     -1.58144609971093
  N   -0.88342514682378     -1.16618996761199      0.98181460379414
  H   -0.18201060510173     -1.31927746202142      1.69663310036250
  H   -1.80766660429269     -1.11852386803807      1.38975402756471
  N   1.75708788100626     -0.32485376633646      0.91888147473873
  H   1.88445507480049      0.55878042719087      1.39891863222662
  H   2.66492744828626     -0.65549235214228      0.61642034758413
  C   1.26966071248161      0.98303547223621     -1.10700374870375
  N   1.63329466464095      1.86053878090877     -1.79806958285626
