16
Coordinates from ORCA-job run
  C   -0.62370151374647      0.22584440140567      0.12166140925004
  C   0.82643603009963      0.49330579680610     -0.32103330157297
  Cl  -1.37547069952778      1.89012443567350      0.37600356900380
  H   0.79834223297481      1.17028278092772     -1.17896299263000
  C   -1.42226377080800     -0.46276139512062     -0.96691031282062
  H   -2.46629982024878     -0.54957987425738     -0.65775928778343
  H   -1.00476957183623     -1.45114497873057     -1.15167279230817
  H   -1.38689803131527      0.11822618194375     -1.88875163894711
  N   -0.60426027429810     -0.55477687499988      1.31001353192756
  H   -0.22569568951575     -0.03530467450749      2.09434429691300
  H   -1.53163637304640     -0.88049011856040      1.55177317436652
  N   1.43000658365082     -0.76465890038754     -0.72869338635587
  H   1.46169926439253     -1.38418253878340      0.07312896722506
  H   2.37570269324735     -0.60935639215762     -1.05646038653804
  C   1.56167397634220      1.16921799469706      0.77021645349072
  N   2.18813496363542      1.62625415605109      1.65310269677951
