16
Coordinates from ORCA-job run
  C   -0.61767883546359      0.07376809146397      0.27511507465840
  C   0.86160256779238     -0.09609079415569     -0.14813156751911
  Cl  -0.69164887170885      1.63096827460142      1.21321004240517
  H   0.89140618055195     -1.02930562902144     -0.72361725095288
  C   -1.53610458463196      0.20859889598007     -0.92190747206126
  H   -2.56469643476571      0.30252259874827     -0.57180736774025
  H   -1.28506685787566      1.08514580183441     -1.51839541500943
  H   -1.45470228751713     -0.68268326315621     -1.55331450841219
  N   -1.05070122488630     -0.98686627439117      1.12881935305986
  H   -1.38656000042175     -1.77038578522756      0.58343302463735
  H   -0.28635909631583     -1.27756705031574      1.72839014366280
  N   1.69769921377679     -0.28415528506422      1.02708043383395
  H   1.79894149144242      0.59686432794914      1.51811531206709
  H   2.62007279542411     -0.60007765511450      0.75395314541133
  C   1.30548788145737      0.98800455407144     -1.04254623555957
  N   1.69830806314178      1.84125919179780     -1.74839671248125
