16
Coordinates from ORCA-job run
  C   -0.56903829863095     -0.00886378586710      0.25206095320004
  C   0.86552918850122     -0.15517071126007     -0.28138140302485
  Cl  -0.51646317424992      1.40952352212603      1.46131783103474
  H   0.82104103894689     -0.98747967733744     -0.99253602439085
  C   -1.55784616752932      0.38650942607721     -0.82395159988392
  H   -2.55821401816815      0.46942020997497     -0.39432429693819
  H   -1.57222345767327     -0.38904649868618     -1.59387326030529
  H   -1.29781919599528      1.34602031717934     -1.27015320858498
  N   -0.92071565461120     -1.23264065514242      0.85848729335842
  H   -1.82635100662473     -1.18661870557048      1.30632583213520
  H   -0.20693121485117     -1.51818666494132      1.51836511382323
  N   1.76346729657276     -0.54259108663817      0.79588606526250
  H   2.63826600041611     -0.88249913806277      0.41621159798629
  H   1.96168702776114      0.26126515186544      1.38047364973535
  C   1.29042475690090      1.04598915514228     -1.02211364078807
  N   1.68418687923499      1.98436914114066     -1.60879490261960
