16
Coordinates from ORCA-job run
  C   -0.59130514752553      0.38811559004063      0.05931276877120
  C   0.95067970278294      0.42352700922027     -0.02062382903454
  Cl  -1.17673313012879      1.73320061942948     -0.98938114418635
  H   1.24154203891516      1.41748531228156      0.34731921120075
  C   -1.17433987768547     -0.91090335816798     -0.46813298309801
  H   -2.26459960821408     -0.86363544203139     -0.43110261119515
  H   -0.85144359338010     -1.10425174203408     -1.48981478916322
  H   -0.83826091775070     -1.73733093625956      0.16538644760304
  N   -0.95837641911414      0.73699697283757      1.41801077786503
  H   -0.77150529996630     -0.05544966207763      2.02576374481918
  H   -1.95222287600695      0.93302806907995      1.46181081380015
  N   1.42431579586364      0.09933918769372     -1.36028957342781
  H   2.43347847458399      0.01009803624933     -1.35552525746702
  H   1.18242342115050      0.86226605776210     -1.98213739159074
  C   1.47477339420215     -0.56866042145606      0.92604347754235
  N   1.86957404227367     -1.36582529256792      1.69236033756115
