16
Coordinates from ORCA-job run
  C   -0.57478315920775     -0.04415428783503      0.23481646607816
  C   0.87691232713155     -0.10836562136284     -0.26754383177265
  Cl  -0.59997326182831      1.28324618615748      1.54268491003286
  H   0.87709474622829     -0.88902163617031     -1.03639599881006
  C   -1.54733135155229      0.39705233383704     -0.83828475370134
  H   -2.56104457876045      0.41733361413578     -0.43312233621837
  H   -1.51551180831073     -0.32069321433457     -1.66181571279114
  H   -1.30757164010652      1.39399369346955     -1.20698123808097
  N   -0.90244201037238     -1.31920488240086      0.74192672130123
  H   -1.81973143084233     -1.33183631958891      1.16805741485805
  H   -0.19660856363813     -1.62988301520728      1.39933208929676
  N   1.75907257326326     -0.54452636499430      0.80447286496725
  H   2.65539246768610     -0.82515488908193      0.42643109585870
  H   1.91296096695869      0.22069323103035      1.45112038141520
  C   1.28208106143553      1.15491035695595     -0.90936530248622
  N   1.66048366191547      2.14361081538987     -1.41833276994744
