16
Coordinates from ORCA-job run
  C   -0.62517578343417      0.03462884930709      0.26563252554462
  C   0.86748489630997     -0.05285259528769     -0.13492233547773
  Cl  -0.78253816734207      1.54049652151843      1.27486638203296
  H   0.94709044657770     -0.95525096441026     -0.75321731707477
  C   -1.52648894468206      0.18885625911354     -0.94202479014998
  H   -2.56431803723824      0.22308695527709     -0.60866830482574
  H   -1.30192259556800      1.10271585412794     -1.49116831491973
  H   -1.39609250628537     -0.66693235473346     -1.61309838369513
  N   -1.02826314940120     -1.08292903999477      1.05899150643075
  H   -0.26389787022425     -1.37002732386560      1.66024442790481
  H   -1.32093287852338     -1.85269627385500      0.47083649923168
  N   1.68931297878768     -0.26232286047441      1.04648138645804
  H   1.74436868349863      0.59711276027149      1.58108420943821
  H   2.62895972013483     -0.52675927537914      0.77749029476230
  C   1.28117500006584      1.09054486528864     -0.96794559671714
  N   1.65023820732407      1.99232862309609     -1.62458218894314
