16
Coordinates from ORCA-job run
  C   -0.47053278547486      0.01953654343175      0.25972843612097
  C   1.00481974314919     -0.03177282474050     -0.22005094191451
  Cl  -0.64324807922018      1.38264140937040      1.41027494776935
  H   1.05950263087320     -0.91297123815618     -0.87577794255806
  C   -1.44308166735596      0.23691948382305     -0.88751886374908
  H   -2.46886748389041      0.20821143768962     -0.51490738954112
  H   -1.27774376748132      1.19488611863076     -1.38163858725210
  H   -1.31862561100168     -0.56290801191736     -1.62537050583823
  N   -0.68664225854555     -1.20731705711516      1.01480125828310
  H   -1.51052231131838     -1.11339676226925      1.59751921470143
  H   -0.85640027616609     -1.96740109267970      0.36252021515370
  N   2.00244610963338     -0.19455112623269      0.81712705097136
  H   1.66849568218544     -0.92754984928670      1.43488802331414
  H   2.06161889408502      0.65843835042029      1.36122825575181
  C   1.32127089377316      1.13710593168570     -1.04700442504274
  N   1.55751028675504      2.07912868734597     -1.70581874616999
