16
Coordinates from ORCA-job run
  C   -0.56744543648772      0.24168352506304      0.12788010663681
  C   0.91035434379854      0.53152273582988     -0.23230472463241
  Cl  -1.36387668932773      1.89507085207159      0.32285746763730
  H   0.91963010256366      1.23096565763833     -1.07351369233604
  C   -1.29393679978140     -0.45850443946816     -1.00451684296205
  H   -0.89082395072358     -1.46347474111789     -1.13749611454124
  H   -2.35727834289794     -0.53956227811968     -0.77077538363161
  H   -1.19716280137584      0.10621192580045     -1.93308736882030
  N   -0.61336644809538     -0.54077480563591      1.31151540566147
  H   -1.55516476659862     -0.84899578172170      1.51815648154414
  H   -0.25146934434235     -0.03414711230967      2.11197411853677
  N   1.68663594312030     -0.64137658601732     -0.58707037623645
  H   1.51244114333887     -1.37478396025157      0.09058258275656
  H   1.42355380321696     -0.97204110441851     -1.50584266513381
  C   1.55954245083068      1.19694438612965      0.90955193155111
  N   2.07736679276157      1.67126172652748      1.85008907396974
