16
Coordinates from ORCA-job run
  C   -0.64797441297860      0.31984138139874      0.13346758437485
  C   0.88684651325831      0.47693154699127      0.06305773760916
  Cl  -1.33385952242172      1.81661936177308     -0.68191679160592
  H   1.12934738916530      1.44249314875212      0.52002628635589
  C   -1.13490071111497     -0.88538008591821     -0.64276269460374
  H   -0.86073773375339     -0.79481186206044     -1.69281529810604
  H   -2.22323293611868     -0.95223775907751     -0.58304725673825
  H   -0.70412476969680     -1.79372265662034     -0.21340680728682
  N   -1.03192681769568      0.22987913631726      1.49822950043485
  H   -2.02398799954882      0.05069235017869      1.58926786103040
  H   -0.80965574018368      1.07719575140249      2.00747501082087
  N   1.36898487998117      0.48833053471755     -1.30771438155382
  H   2.23328053843017      1.00940345681308     -1.37183025621515
  H   1.55287080441487     -0.45461666670890     -1.62679278196512
  C   1.51665188952788     -0.58197849449351      0.87683928203909
  N   2.08141862873463     -1.44863914346536      1.43392300540974
