16
Coordinates from ORCA-job run
  C   -0.51476421878071     -0.04411500378515      0.17478408044536
  C   0.97730326027158      0.05255361102518     -0.22455441287000
  Cl  -0.84608685957056      1.37330941806236      1.31127809641686
  H   1.12829518147625     -0.76391150763467     -0.94068852140803
  C   -1.43611901891344      0.10982477755464     -1.01752650596467
  H   -1.28804991709562      1.07232885679163     -1.50575888922540
  H   -1.23845445736202     -0.69637917012700     -1.72875304241550
  H   -2.47838964833629      0.04780963355939     -0.69684359242595
  N   -0.72225986069935     -1.29907930603217      0.81111069013860
  H   -0.23396673075651     -1.34375733518911      1.69670346063890
  H   -1.70711691275180     -1.45578610668248      0.98690395283921
  N   1.95140303103594     -0.11437311149432      0.83257389734725
  H   1.76350041202884      0.51360204226313      1.60414040994435
  H   1.97346106517412     -1.07179205140840      1.15521261203313
  C   1.23625810799602      1.31151707862186     -0.93743459943302
  N   1.43598656628354      2.30924817447513     -1.52214763606109
