16
Coordinates from ORCA-job run
  C   -0.69790092963992      0.40095296106088      0.07420375685031
  C   0.85373994803919      0.49193478096555      0.04774390151791
  Cl  -1.28932516290498      1.90627534033796     -0.70572477611290
  H   1.11782493267156      1.45577452191353      0.49484292261489
  C   -1.19922328541365     -0.79340027590480     -0.71203448259739
  H   -0.80951257943675     -1.72088971217745     -0.27907712349194
  H   -0.89255997186456     -0.72151495513600     -1.75492871023226
  H   -2.28765437549214     -0.81464131887890     -0.66196503069290
  N   -1.24647671895774      0.36983727949140      1.40584486490140
  H   -1.01595244356299     -0.50316666678332      1.86628806650597
  H   -0.90874916561198      1.14401065813646      1.96591717461520
  N   1.39600888690883      0.44798385371058     -1.29786005506529
  H   1.49371480348515     -0.50829174384095     -1.61519380118879
  H   2.30989101497346      0.88086162484997     -1.32701156712185
  C   1.38359156000275     -0.57287891361996      0.92536043287784
  N   1.79158348680378     -1.46384743412495      1.57459442661981
