16
Coordinates from ORCA-job run
  C   -0.63761684636509      0.31329640009689      0.10947454919598
  C   0.86703299253707      0.54225007012623     -0.23428039816208
  Cl  -1.35593139096847      1.96533898652888      0.22166886639872
  H   0.91673657148445      1.19862209881763     -1.10913774806125
  C   -1.34111821805517     -0.43254792363169     -1.00951495306130
  H   -2.40897998056567     -0.46674964046464     -0.79609196740236
  H   -1.18601810300594      0.06630122821676     -1.96785208741683
  H   -0.97127988082458     -1.45912202222759     -1.07767046123226
  N   -0.88433382853298     -0.35250813858977      1.35645880213905
  H   -0.66850947480877     -1.33910112957058      1.30023244707774
  H   -0.38637057657928      0.07766906205309      2.12690729161459
  N   1.63584992747707     -0.65507235322869     -0.52475365100068
  H   1.30947515325815     -1.10167884540452     -1.37082341339919
  H   1.59845061806390     -1.31256781306497      0.24383558476020
  C   1.51094120558673      1.23379487741573      0.89155782712039
  N   2.00067183129858      1.72207514292724      1.83998931142929
