16
Coordinates from ORCA-job run
  C   -0.63865137973396      0.34916670047181      0.03333602201927
  C   0.91343111579052      0.51578094426134      0.00730857846627
  Cl  -1.26647539128810      1.64473820427812     -1.05963769895019
  H   1.11625614502227      1.53105683552211      0.37002440628555
  C   -1.09010375229215     -0.99605291034766     -0.49683550574855
  H   -0.76097733260921     -1.14823640411994     -1.52446971335367
  H   -0.68919132788224     -1.79950140694110      0.12862344096367
  H   -2.17880648719615     -1.03823146386130     -0.47043398958317
  N   -1.21399594227123      0.57406500163437      1.33130170049378
  H   -1.00147352712600     -0.19917322708374      1.95114847272900
  H   -0.87781163406429      1.43656201221079      1.74427038957562
  N   1.61512664131743      0.35217909537289     -1.24948765483541
  H   1.24971514223482      1.00453584765072     -1.93183620404578
  H   1.50906738637538     -0.58927113029890     -1.60558311454270
  C   1.46574548371947     -0.42477591403473      0.99342462304658
  N   1.84714486000344     -1.21184218471479      1.77684624747973
