14

C	-0.489575	-0.075485	-1.443877
C	0.0	0.0	0.0
Br	0.36919	-1.518209	-2.410158
H	1.09368	0.0	0.0
H	-1.565336	-0.235324	-1.538833
N	-0.232756	1.220117	-2.172356
O	-1.241303	1.86858	-2.463182
O	0.925278	1.549749	-2.386009
N	-0.361879	-1.176787	0.779069
H	-1.196976	-1.638861	0.438473
H	0.423614	-1.813361	0.721275
C	-0.554361	1.203661	0.610029
N	-0.989036	2.176317	1.108501
F	2.512078	0.0	0.0
