14

C	-0.25413	-0.280714	-1.461064
C	0.0	0.0	0.0
Br	-2.121898	-0.731368	-1.917843
H	1.093501	0.0	0.0
H	0.010974	0.568751	-2.085165
N	0.589585	-1.419415	-1.966081
O	0.554182	-2.478575	-1.35126
O	1.237302	-1.20169	-2.985683
N	-0.429877	-0.976244	0.978872
H	-1.298802	-1.418237	0.700243
H	0.291072	-1.684464	1.021746
C	-0.522862	1.323831	0.302617
N	-0.936747	2.400147	0.534515
F	2.494209	0.0	0.0
