14

C	-0.378928	-0.040227	-1.45747
C	0.0	0.0	0.0
Br	-2.238785	-0.554119	-1.809069
H	1.098029	0.0	0.0
H	-0.231587	0.925198	-1.935876
N	0.508689	-0.983923	-2.232159
O	1.178131	-0.460964	-3.121871
O	0.503719	-2.169467	-1.939827
N	-0.38658	-1.181975	0.748241
H	0.408086	-1.451949	1.312696
H	-1.193003	-1.023244	1.337463
C	-0.488079	1.243818	0.576053
N	-0.898572	2.226819	1.077189
F	2.49416	0.0	0.0
