14

C	-0.515304	-0.141923	-1.420046
C	0.0	0.0	0.0
Br	0.47167	-1.490302	-2.412617
H	1.101979	0.0	0.0
H	-1.566869	-0.431896	-1.483918
N	-0.440835	1.147029	-2.196101
O	-1.451679	1.445308	-2.83742
O	0.592632	1.797263	-2.136647
N	-0.314452	-1.173913	0.811617
H	-1.119196	-1.689546	0.473572
H	0.50649	-1.766108	0.782229
C	-0.588096	1.197126	0.589086
N	-1.066688	2.165502	1.056643
F	2.509666	0.0	0.0
