14

C	-0.359563	-0.006943	-1.459949
C	0.0	0.0	0.0
Br	-0.221176	1.723757	-2.313792
H	1.10534	0.0	0.0
H	0.309294	-0.685148	-1.982992
N	-1.751757	-0.52321	-1.721536
O	-2.634307	-0.203985	-0.932397
O	-1.904308	-1.235096	-2.712021
N	-0.335397	-1.32993	0.512306
H	-1.186297	-1.32199	1.059387
H	0.441149	-1.627218	1.090835
C	-0.551118	1.096729	0.776315
N	-0.971692	1.942948	1.477713
F	2.522531	0.0	0.0
