13

C	0.0	0.0	0.0
C	-0.51615	0.06634	-1.434789
F	1.379462	0.0	0.0
H	-1.619947	0.083286	-1.290533
H	-0.212091	-0.831603	-1.97962
N	-0.526763	1.092205	0.736649
H	-0.286392	0.97482	1.715815
H	-1.560917	0.923096	0.62094
C	-0.357477	-1.338232	0.57176
N	-0.519985	-2.384766	1.079874
C	-0.006298	1.240784	-2.127955
N	0.388454	2.162033	-2.739445
F	-2.766669	0.0	0.0
