13

C	0.0	0.0	0.0
C	-0.364201	-0.150899	-1.492342
F	1.408411	0.0	0.0
H	-0.525652	-1.205922	-1.732835
H	0.533341	0.192715	-2.023452
N	-0.457637	1.238237	0.522985
H	-0.208302	1.272977	1.507307
H	-1.497615	1.072833	0.448704
C	-0.366059	-1.20671	0.788165
N	-0.483291	-2.165529	1.4569
C	-1.488677	0.619415	-2.03311
N	-2.191649	1.229545	-2.751
F	-2.556053	0.0	0.0
