13

C	0.0	0.0	0.0
C	-0.494742	0.044067	-1.454674
F	1.384135	0.0	0.0
H	-0.150151	-0.832612	-2.010923
H	-1.600689	0.027628	-1.299717
N	-0.501818	1.039763	0.835922
H	-1.5326	0.868643	0.745764
H	-0.28376	1.925574	0.38718
C	-0.401978	-1.31124	0.57465
N	-0.561541	-2.387055	1.015231
C	-0.040392	1.256839	-2.115135
N	0.315337	2.24727	-2.637179
F	-2.735517	0.0	0.0
