13

C	0.0	0.0	0.0
C	-0.541319	-0.289999	-1.395761
F	1.381859	0.0	0.0
H	-0.13418	0.471113	-2.066678
H	-1.641909	-0.171837	-1.243173
N	-0.519995	1.261984	0.407943
H	-1.553277	1.067786	0.359238
H	-0.26916	1.411069	1.380588
C	-0.354799	-1.10961	0.93911
N	-0.515679	-1.947122	1.746822
C	-0.247576	-1.62451	-1.89315
N	-0.069509	-2.70318	-2.323043
F	-2.7732	0.0	0.0
