13

C	0.0	0.0	0.0
C	-0.522902	-0.023923	-1.432827
F	1.376796	0.0	0.0
H	-0.284097	0.948927	-1.870074
H	-1.623516	-0.114334	-1.286279
N	-0.540265	1.146956	0.642449
H	-0.329099	1.088989	1.634142
H	-1.574589	0.957814	0.522009
C	-0.348504	-1.286519	0.682306
N	-0.5581	-2.311637	1.220118
C	0.053364	-1.087556	-2.239144
N	0.50112	-1.934859	-2.915914
F	-2.77776	0.0	0.0
