17

C	-0.503396	0.071481	-1.440618
C	0.0	0.0	0.0
Br	0.140328	-1.647114	-2.349363
H	1.093068	0.0	0.0
N	-1.922554	0.152709	-1.500564
H	-2.232912	0.208586	-2.464766
H	-2.340564	-0.66968	-1.078719
C	0.170211	1.208651	-2.175363
H	1.250859	1.112207	-2.053685
H	-0.092993	1.193722	-3.237171
H	-0.159923	2.141037	-1.717909
C	-0.540029	-1.166864	0.698999
N	-1.030132	-2.046711	1.308944
N	-0.329236	1.253981	0.677188
H	0.391899	1.416351	1.372578
H	-1.236696	1.213856	1.121451
H	2.73182	0.0	0.0
