17

C	-0.318697	-0.034682	-1.501821
C	0.0	0.0	0.0
Br	0.025057	1.949661	-2.202334
H	1.10266	0.0	0.0
N	0.586828	-0.91983	-2.069782
H	1.53627	-0.765676	-1.705868
H	0.557449	-0.946509	-3.079379
C	-1.763247	-0.266871	-1.878793
H	-2.038084	-1.281102	-1.57315
H	-1.909957	-0.163772	-2.956654
H	-2.39483	0.4541	-1.359915
C	-0.453009	-1.261171	0.578592
N	-0.799141	-2.267017	1.080131
N	-0.627858	1.111574	0.722764
H	-0.093325	1.93851	0.474374
H	-0.451178	0.951101	1.710176
H	2.781811	0.0	0.0
