17

C	-0.498934	0.067598	-1.446436
C	0.0	0.0	0.0
Br	-0.222065	-1.696273	-2.3036
H	1.097647	0.0	0.0
N	-1.926624	0.323321	-1.458089
H	-2.045804	1.175887	-0.913835
H	-2.222179	0.513179	-2.411095
C	0.348086	1.072733	-2.214397
H	0.172546	2.061272	-1.778084
H	0.058375	1.086587	-3.26963
H	1.410116	0.830447	-2.108109
C	-0.524186	-1.135171	0.745557
N	-0.916066	-2.001596	1.438273
N	-0.346664	1.278426	0.662274
H	0.525263	1.626003	1.057985
H	-0.991393	1.118654	1.427071
H	2.731099	0.0	0.0
