17

C	-0.404612	-0.00316	-1.489703
C	0.0	0.0	0.0
Br	0.114751	1.762141	-2.225308
H	1.093098	0.0	0.0
N	0.351897	-0.995849	-2.219299
H	1.326383	-0.916579	-1.916623
H	0.018716	-1.913107	-1.933868
C	-1.893544	-0.159567	-1.718639
H	-2.119315	-0.083332	-2.783499
H	-2.432583	0.615979	-1.171665
H	-2.217293	-1.14123	-1.354774
C	-0.421287	-1.274733	0.572557
N	-0.784166	-2.29407	1.037235
N	-0.501909	1.136475	0.771299
H	0.314267	1.620193	1.137045
H	-1.061273	0.82656	1.554464
H	2.745378	0.0	0.0
