17

C	-0.316011	-0.035346	-1.503428
C	0.0	0.0	0.0
Br	0.01617	1.948933	-2.199658
H	1.102315	0.0	0.0
N	0.594183	-0.919115	-2.069691
H	0.569373	-0.941192	-3.079853
H	1.54218	-0.760569	-1.70312
C	-1.759283	-0.273372	-1.882057
H	-2.030285	-1.287545	-1.575535
H	-2.393077	0.446662	-1.365222
H	-1.905635	-0.171983	-2.960127
C	-0.45282	-1.261373	0.57743
N	-0.808231	-2.266971	1.071928
N	-0.630092	1.111813	0.721028
H	-0.086374	1.935842	0.487892
H	-0.472184	0.944047	1.709868
H	2.783049	0.0	0.0
