17

C	-0.384122	-0.030704	-1.493473
C	0.0	0.0	0.0
Br	0.051389	1.772198	-2.234625
H	1.10426	0.0	0.0
N	0.440613	-0.972406	-2.207403
H	1.399713	-0.868278	-1.861721
H	0.126736	-1.908773	-1.96836
C	-1.858569	-0.259404	-1.753193
H	-2.132211	-1.263011	-1.410069
H	-2.068648	-0.178976	-2.820985
H	-2.447085	0.470836	-1.197357
C	-0.431524	-1.269559	0.577146
N	-0.754008	-2.305447	1.03234
N	-0.600559	1.110684	0.755678
H	-0.385238	0.945445	1.735329
H	-0.058439	1.931113	0.4974
H	2.786667	0.0	0.0
