17

C	-0.167658	0.036008	-1.522249
C	0.0	0.0	0.0
Br	-2.108792	0.386805	-1.999041
H	1.099448	0.0	0.0
N	0.609444	1.102401	-2.108251
H	0.342989	1.972755	-1.657028
H	1.572942	0.909804	-1.792258
C	0.248582	-1.277196	-2.143022
H	1.280733	-1.462743	-1.817414
H	-0.384633	-2.100937	-1.813246
H	0.21772	-1.193303	-3.229953
C	-0.555708	-1.199375	0.61011
N	-0.991714	-2.178059	1.095559
N	-0.393121	1.186896	0.736243
H	-1.199258	1.630638	0.313633
H	0.39357	1.824911	0.755885
H	2.691185	0.0	0.0
