17

C	-0.437428	0.191973	-1.457198
C	0.0	0.0	0.0
Br	0.109101	-1.4872	-2.474919
H	1.098797	0.0	0.0
N	-1.847259	0.391789	-1.551992
H	-2.126243	0.498969	-2.521083
H	-2.338629	-0.406157	-1.162469
C	0.339307	1.32143	-2.10539
H	0.042	2.266153	-1.643606
H	1.40613	1.156283	-1.933001
H	0.130121	1.370471	-3.177261
C	-0.583587	-1.208582	0.577088
N	-1.062711	-2.176926	1.042702
N	-0.34935	1.154913	0.826903
H	-1.137892	1.650034	0.428208
H	0.466759	1.756983	0.855297
H	2.722763	0.0	0.0
