17

C	-0.501645	0.018995	-1.447237
C	0.0	0.0	0.0
Br	-0.237189	-1.773518	-2.242255
H	1.097381	0.0	0.0
N	-1.925516	0.287458	-1.465823
H	-2.032681	1.158321	-0.950084
H	-2.219648	0.448957	-2.424378
C	0.352826	0.987767	-2.252686
H	0.062809	0.966982	-3.307353
H	0.185037	1.991758	-1.851527
H	1.411744	0.74077	-2.138178
C	-0.526817	-1.106702	0.785049
N	-0.938058	-1.943679	1.502666
N	-0.343873	1.302431	0.618085
H	-0.974983	1.167726	1.399497
H	0.532809	1.666462	0.987583
H	2.731429	0.0	0.0
