12
Coordinates from ORCA-job run
  C   -0.47315969627995     -0.03310375670764      0.61276411424652
  C   0.50559892628778      0.16553870236091     -0.51940427116313
  F   -0.04302465407333     -1.02513324358581      1.43534194506180
  H   0.11340740848613      0.94807885875145     -1.17032453585654
  H   -0.63677099595178      0.87646686734806      1.19001300839091
  H   0.54822551130855     -0.77306720816975     -1.09202501817628
  N   -1.81217761167936     -0.42882541995228      0.04026380893842
  O   -2.39088388984115      0.47314185265750     -0.55905245808224
  O   -2.19290136226669     -1.58216931783813      0.18113661730255
  N   1.76910227782098      0.59831006689182      0.05719683634253
  H   2.37416729589161      0.96972064787427     -0.66220940109325
  H   2.24041679029720     -0.18695804963040      0.48629935408870
