12
Coordinates from ORCA-job run
  C   -0.39320996044331     -0.52159008533646      0.68846600752718
  C   0.79064408923582      0.34276267705767      0.33237176409389
  F   -0.15896001880318     -1.81351856514903      0.33193484728452
  H   1.64875679610689     -0.03154231584849      0.90985385918159
  H   -0.66662216965627     -0.48105177580496      1.74421404744311
  H   0.57408966008322      1.35955736648008      0.66189227224630
  N   -1.59941168238349     -0.02334973440469     -0.07161559203668
  O   -1.96413837786149      1.10014056607666      0.25821125956386
  O   -2.09728884693491     -0.74362056039415     -0.92043844818529
  N   0.95422972740195      0.32945352599048     -1.11079212791328
  H   1.59960762122792      1.04865149777625     -1.40498480653352
  H   1.31130316202685     -0.56489259644336     -1.41911308267167
