12
Coordinates from ORCA-job run
  C   -0.44973568502883      0.05081551075413      0.53136029501930
  C   0.56475082727576     -0.00140501901536     -0.60039607593647
  F   -0.07272002762316     -0.78298444811515      1.53686762145833
  H   0.58618012176409     -1.03200780134126     -0.96768003649857
  H   -0.60460188993667      1.05310856716900      0.93389806650587
  H   0.21458763430193      0.63829592478942     -1.41259448341294
  N   -1.78819300095729     -0.39609954973458      0.00440489230848
  O   -2.35707364970202      0.43600971272799     -0.69731611009408
  O   -2.16720283107716     -1.53034486228284      0.26006807135010
  N   1.90570905424326      0.38645603738321     -0.21408624925239
  H   2.22870396293181     -0.18021481504967      0.55883112645734
  H   1.94059548380827      1.35837074271511      0.06464288209502
