19

C	-0.320951	0.068087	-1.499704
C	0.0	0.0	0.0
Br	-2.262962	0.46948	-1.816664
H	1.100291	0.0	0.0
C	0.5089	1.123072	-2.224414
H	1.562869	0.922242	-2.000856
H	0.253306	2.119906	-1.863013
H	0.332725	1.083768	-3.300814
C	-0.122896	-1.231747	-2.142695
N	0.0271	-2.273532	-2.666625
C	-0.519597	-1.259966	0.675551
H	-1.612848	-1.31786	0.62251
H	-0.226225	-1.248668	1.728705
H	-0.095958	-2.160704	0.226935
C	-0.437353	1.245889	0.764104
H	-1.523814	1.283303	0.890818
H	0.029364	1.220072	1.752794
H	-0.108184	2.167575	0.280426
Cl	3.443264	0.0	0.0
