19

C	-0.401925	-0.037904	-1.485842
C	0.0	0.0	0.0
Br	0.138851	1.641617	-2.392398
H	1.097349	0.0	0.0
C	0.294805	-1.174338	-2.232655
H	-0.089135	-2.136627	-1.886292
H	1.365553	-1.110099	-2.020836
H	0.118426	-1.097164	-3.306599
C	-1.855664	-0.112668	-1.642617
N	-3.023174	-0.216927	-1.746117
C	-0.454022	-1.288314	0.695427
H	0.042531	-2.170351	0.289241
H	-1.539943	-1.427617	0.638799
H	-0.17426	-1.226945	1.750044
C	-0.539227	1.209698	0.750376
H	-0.196956	1.163997	1.787336
H	-0.17343	2.144054	0.325504
H	-1.635897	1.226285	0.751629
Cl	3.474334	0.0	0.0
