14

C	0.0	0.0	0.0
C	-0.338048	-0.042902	-1.502753
Br	1.960971	0.0	0.0
H	-0.125684	0.973169	-1.884589
H	-0.289098	-0.942898	0.46676
H	0.393332	-0.701332	-1.98653
C	-0.584829	1.181757	0.731008
H	-1.678181	1.077847	0.672009
H	-0.273621	2.114892	0.252123
H	-0.278126	1.203309	1.779821
N	-1.675384	-0.540537	-1.785576
H	-2.018644	-0.076354	-2.61946
H	-2.376871	-0.312437	-1.04401
H	-3.606493	0.0	0.0
