14

C	0.0	0.0	0.0
C	-0.54892	0.004928	-1.392939
F	1.380161	0.0	0.0
H	-0.131042	-0.813537	-1.977974
H	-0.298883	0.96153	-1.85935
H	-1.644333	-0.084013	-1.291921
C	-0.548855	1.097071	0.858214
H	-0.297649	2.05532	0.395779
H	-1.644309	0.963121	0.865056
H	-0.131893	1.049741	1.863571
N	-0.295068	-1.360033	0.658855
O	-0.329482	-2.346087	-0.072548
O	-0.352912	-1.395013	1.885086
H	-3.332813	0.0	0.0
