14
Coordinates from ORCA-job run
  C   -0.74806661553927     -0.08504412525789      0.08888116366280
  C   0.57715156058412     -0.32786030260155      0.80301728949021
  Cl  -2.08968871640708     -0.29677178055739      1.23091361445808
  H   0.55972523892140     -1.37638211123688      1.11040376953529
  H   0.64390445166398      0.29609405979538      1.69695065044355
  N   -0.94866169688568     -0.85010595258294     -1.07777644820720
  H   -1.52914413812592     -1.65907955416874     -0.92476511682470
  H   -0.04699203964022     -1.08398808414063     -1.47695113072937
  N   -0.79954483072301      1.42631079180248     -0.31018334938121
  O   -0.08933972721538      2.18638805759264      0.34720244252580
  O   -1.55044061419023      1.74561926199404     -1.21481851474258
  N   1.64567363722098     -0.13126202277351     -0.16756435844678
  H   2.45536658057991     -0.68609950006940      0.07266104693367
  H   1.92205690975642      0.84218126220439     -0.17897105871758
