14
Coordinates from ORCA-job run
  C   -0.69796215894548     -0.04848197564064      0.03175195922515
  C   0.54912358984655     -0.32504774940119      0.85867695780887
  Cl  -2.13181591484648     -0.30654632693809      1.12180801804444
  H   0.39562549058199     -1.30689058052922      1.31261655880824
  H   0.58506840106717      0.41405081531369      1.66507198108416
  N   -0.72849372201675     -0.75523167675593     -1.16310338893420
  H   -1.64103506262662     -0.89933146248752     -1.56330916018035
  H   -0.10488403895994     -1.54523254903279     -1.19160253062864
  N   -0.79846722244313      1.44575617102917     -0.33980992693346
  O   -1.75181508207290      1.76433686483150     -1.03295178515591
  O   0.10912226909829      2.18508668300568      0.03393040512973
  N   1.72824159058780     -0.39172386738998      0.01047487584790
  H   2.50240972861837     -0.77242655171013      0.53927948526661
  H   1.98388213211112      0.54268220570545     -0.28383344938255
