14
Coordinates from ORCA-job run
  C   -0.56431938875705     -0.04606346757532      0.08911758384008
  C   0.87936684175403      0.25210427131665      0.45955248137795
  Cl  -1.50921223420807     -0.60476173358842      1.47546200218431
  H   0.88373926602662      0.98529140892825      1.26488736013489
  H   1.32998213084696      0.73141028535493     -0.42900608930476
  N   -0.64015999333868     -0.99624879877519     -0.95132798495239
  H   -0.22036145050320     -0.62270450222591     -1.79493417179724
  H   -1.59905945119073     -1.24873980003041     -1.15326273203957
  N   -1.21509212897011      1.32002049766108     -0.31086793566970
  O   -1.01939054169070      2.27095269465800      0.43436080446901
  O   -1.86636299415130      1.33525239932737     -1.35053663691334
  N   1.52221400010916     -0.96610522991301      0.90272172740198
  H   1.55240336329916     -1.64040311287790      0.15013853506742
  H   2.46425258077391     -0.77100491226010      1.21269505620135
