14
Coordinates from ORCA-job run
  C   -0.67044266816013     -0.06712781232373      0.10109065541182
  C   0.78844387146996     -0.51351263450295      0.12665796103197
  Cl  -1.28956293259195      0.01208498888029      1.75291563711475
  H   0.80662396503579     -1.51318495859593      0.58512179788521
  H   1.10011347911087     -0.60991187977350     -0.91599704121744
  N   -1.57195613167772     -0.84722576155291     -0.69205726703020
  H   -1.72669542634869     -1.75145209226686     -0.26666388089387
  H   -1.19685767844612     -0.95683750438309     -1.62649479950803
  N   -0.67222788574307      1.33107212747514     -0.52930268809017
  O   -0.97615000765584      2.31121928631043      0.12385552062801
  O   -0.33452663718986      1.30950553488121     -1.71039752958602
  N   1.61507895044010      0.48977380204019      0.76731862167298
  H   2.58463603463675      0.37455873567878      0.50781201249095
  H   1.54252306711990      0.43003816813293      1.77414100009005
