16

C	-0.439374	-0.03861	-1.452982
C	0.0	0.0	0.0
Cl	-2.218302	-0.018819	-1.641379
H	1.099968	0.0	0.0
H	-0.078821	-0.952488	-1.91402
N	0.113749	1.080572	-2.293598
O	0.834448	0.745225	-3.229888
O	-0.193336	2.232335	-2.001665
N	-0.404884	-1.29617	0.556865
H	-1.240475	-1.189059	1.119372
H	0.343133	-1.625827	1.154029
C	-0.487718	1.190409	0.810647
H	-1.580813	1.213088	0.86953
H	-0.14237	2.135171	0.393741
H	-0.081619	1.093936	1.820426
Cl	3.380989	0.0	0.0
