16

C	-0.442809	-0.065106	-1.456583
C	0.0	0.0	0.0
Cl	-2.206557	-0.274456	-1.63547
H	1.095026	0.0	0.0
H	0.039681	-0.90628	-1.945943
N	-0.027328	1.159467	-2.232959
O	0.981988	1.036169	-2.91854
O	-0.683449	2.187194	-2.09612
N	-0.391356	-1.281311	0.590387
H	0.333286	-1.559456	1.238521
H	-1.261169	-1.184804	1.100045
C	-0.502136	1.219894	0.757472
H	-0.11918	2.149572	0.336016
H	-1.596058	1.267441	0.765223
H	-0.142613	1.146619	1.786721
Cl	3.373078	0.0	0.0
