16

C	-0.526619	0.038602	-1.437641
C	0.0	0.0	0.0
Cl	0.244872	1.267754	-2.442174
H	1.094043	0.0	0.0
H	-1.603338	0.212089	-1.463988
N	-0.359956	-1.310891	-2.084244
O	0.766759	-1.694921	-2.35595
O	-1.400019	-1.960224	-2.225863
N	-0.43718	-1.204734	0.697134
H	0.182108	-1.971979	0.468129
H	-1.389054	-1.464281	0.459222
C	-0.495599	1.233788	0.741178
H	-1.590294	1.233956	0.813306
H	-0.082919	1.209219	1.749323
H	-0.171666	2.15452	0.253672
Cl	3.481536	0.0	0.0
