16

C	-0.583148	-0.005183	-1.397249
C	0.0	0.0	0.0
Cl	0.128384	1.217353	-2.464804
H	1.096727	0.0	0.0
H	-1.661161	0.1512	-1.371982
N	-0.425102	-1.341794	-2.080207
O	-1.322065	-1.651758	-2.864108
O	0.571823	-2.006899	-1.830249
N	-0.557986	-1.196703	0.655502
H	-0.636755	-1.008911	1.648516
H	0.127096	-1.938061	0.556468
C	-0.474964	1.247535	0.729721
H	-1.566057	1.24338	0.836839
H	-0.166331	2.154437	0.209397
H	-0.021264	1.270695	1.723518
Cl	3.494154	0.0	0.0
