16

C	-0.451186	-0.02812	-1.450717
C	0.0	0.0	0.0
Cl	-2.227881	-0.121523	-1.617408
H	1.095024	0.0	0.0
H	-0.033638	-0.900493	-1.943455
N	0.021541	1.155068	-2.252335
O	-0.444734	2.259704	-1.987652
O	0.854557	0.916257	-3.122457
N	-0.392627	-1.302565	0.549685
H	0.355752	-1.623821	1.151241
H	-1.234578	-1.209806	1.104961
C	-0.493325	1.185277	0.815449
H	-0.132668	2.132959	0.417597
H	-1.586879	1.218082	0.854505
H	-0.105823	1.074942	1.830971
Cl	3.38401	0.0	0.0
