16

C	-0.354222	0.007444	-1.496045
C	0.0	0.0	0.0
Cl	0.00126	-1.523499	-2.29961
H	1.096223	0.0	0.0
H	0.182407	0.796976	-2.018386
N	-1.812443	0.324569	-1.674452
O	-2.084775	1.452966	-2.084573
O	-2.636455	-0.515596	-1.314817
N	-0.466915	-1.142203	0.757772
H	-1.427056	-1.364758	0.516536
H	0.112905	-1.945066	0.544629
C	-0.487069	1.294314	0.636883
H	-0.173901	2.171569	0.064984
H	-1.578614	1.310665	0.735015
H	-0.051538	1.355982	1.634039
Cl	3.425596	0.0	0.0
