13

C	0.0	0.0	0.0
C	-0.579032	-0.140567	-1.407414
Br	1.961754	0.0	0.0
H	-0.357911	0.770914	-1.972598
H	-1.676758	-0.197842	-1.245683
N	-0.524845	1.169552	0.584238
H	-0.302041	2.006465	0.065314
H	-0.313317	1.266621	1.565803
C	-0.351808	-1.167415	0.821179
N	-0.539096	-2.110987	1.494816
C	-0.07849	-1.294272	-2.13971
N	0.315053	-2.212088	-2.757161
Br	-3.829521	0.0	0.0
