13

C	0.0	0.0	0.0
C	-0.273458	0.412227	-1.486412
Br	1.958781	0.0	0.0
H	-0.138072	1.499935	-1.503981
H	0.526783	-0.020865	-2.087037
N	-0.526765	0.957156	0.912398
H	-1.549798	0.939804	0.753195
H	-0.373644	0.629867	1.861528
C	-0.357438	-1.409552	0.251965
N	-0.537427	-2.541277	0.521807
C	-1.482362	0.06434	-2.240401
N	-2.184631	-0.172202	-3.154747
Br	-3.548621	0.0	0.0
