12

C	-0.441581	0.007952	-1.442378
C	0.0	0.0	0.0
F	-0.08679	-1.16149	-2.0382
H	1.092986	0.0	0.0
H	-0.055613	0.850343	-2.016013
H	-0.358488	-0.921965	0.464366
N	-1.950683	0.098876	-1.52763
O	-2.422205	1.160175	-1.931578
O	-2.585852	-0.885112	-1.16214
C	-0.517479	1.15689	0.717502
N	-0.956349	2.084513	1.287561
Cl	3.291758	0.0	0.0
