12

C	-0.52636	0.001481	-1.419015
C	0.0	0.0	0.0
F	-0.099602	1.076278	-2.116921
H	1.094248	0.0	0.0
H	-1.617299	-0.044423	-1.476024
H	-0.33206	-0.91481	0.495771
N	-0.060071	-1.257668	-2.122846
O	-0.480774	-2.299055	-1.623751
O	0.637599	-1.149451	-3.118634
C	-0.52817	1.155219	0.714072
N	-0.986607	2.074777	1.281471
Cl	3.301552	0.0	0.0
