16

C	-0.446349	0.001212	-1.473907
C	0.0	0.0	0.0
Cl	-2.203587	-0.156131	-1.654493
H	1.09032	0.0	0.0
N	-0.009065	1.400093	-2.002204
O	-0.866055	2.245525	-2.219365
O	1.202646	1.523821	-2.120948
C	0.215748	-0.994718	-2.308008
N	0.742248	-1.777468	-3.010351
N	-0.380097	-1.31296	0.618629
O	0.236578	-2.30557	0.192268
O	-1.456438	-1.375689	1.220066
N	-0.508973	1.046023	0.791228
H	-1.497804	1.226509	0.692687
H	0.055514	1.880918	0.72862
Br	2.918545	0.0	0.0
