18
Coordinates from ORCA-job run
  C   -0.87284474047472      0.10997851033655     -0.23576985247323
  C   0.57198425493155      0.04813685190478      0.23831627321690
  Br  -1.07536563966280      0.25803703548129     -2.12936759701667
  H   0.50545787656796      0.17586590507649      1.32367467163505
  N   -1.59471050484790     -1.13670018956647      0.29625940921855
  O   -1.89656597569779     -2.03108544431929     -0.47369320776308
  O   -1.72683524776891     -1.12514908879368      1.51554322622957
  N   -1.67196970093862      1.25316039369554      0.41083742398656
  O   -1.06314351602919      2.02633905308967      1.13826143084667
  O   -2.86687527238126      1.26859451386758      0.15441047452392
  C   1.43854745361728      1.16389616982121     -0.34271541721728
  H   0.97299038493521      2.14334090658386     -0.24415700175576
  H   1.65945169880271      0.97887582513478     -1.39510491504014
  H   2.38563389233420      1.18609874621613      0.20159874286833
  C   1.17988041856580     -1.32350655581361     -0.06054560248932
  H   1.13262431020545     -1.55635125570272     -1.12674432011041
  H   2.23052715063572     -1.31370342849790      0.23682388019034
  H   0.68921315720532     -2.12582794851421      0.49337238114999
