18
Coordinates from ORCA-job run
  C   -0.87268880691412      0.10569763714117     -0.23798317246005
  C   0.57202176752214      0.05187088847944      0.23825464868252
  Br  -1.07364206594631      0.22811747708368     -2.13347111354290
  H   0.50403748456103      0.19418933862343      1.32166744778451
  N   -1.59327985304932     -1.13430360735651      0.31031582736683
  O   -1.72668745412706     -1.10642121168497      1.52925995138119
  O   -1.89281552781486     -2.03966110108695     -0.44779405375627
  N   -1.67355078292492      1.25691393417415      0.39264700092582
  O   -2.86816166238799      1.26777354676095      0.13434067110477
  O   -1.06607502378945      2.03971761870684      1.11085187983911
  C   1.43750159834817      1.16090049812918     -0.35712896386622
  H   2.38413946994358      1.19216542515619      0.18750224801452
  H   0.97040119380005      2.14092167903403     -0.27237589639244
  H   1.65947726664218      0.96188258868500     -1.40672686605952
  C   1.18146922849750     -1.32299404371228     -0.04179803878524
  H   0.69262653463194     -2.11772276505993      0.52455365471624
  H   2.23266530501985     -1.30775144927288      0.25332217998127
  H   1.13256132798759     -1.57129645380053     -1.10443740493412
