18
Coordinates from ORCA-job run
  C   -0.89462680470442     -0.05612534760794     -0.16093090816662
  C   0.58410795047965     -0.07549317552571      0.19944771128053
  Br  -1.25797023124602     -0.34257686397763     -2.01408308176204
  H   0.59431770662134     -0.10725375745755      1.29377106902425
  N   -1.72460539266579     -1.07217269666877      0.64101064014087
  O   -2.93380947294806     -1.00981109724390      0.47405369539719
  O   -1.12036113780083     -1.82971020843130      1.38843940454345
  N   -1.47409278729268      1.28553531941266      0.30989686389098
  O   -1.50929963720078      1.38555015774186      1.53184259169713
  O   -1.76652453543770      2.13558148528040     -0.51230975404452
  C   1.26906542464273      1.21160975171986     -0.26349540191750
  H   1.15226515563113      1.36007261462396     -1.33939663500143
  H   2.33677946276761      1.13863137489244     -0.04669433809911
  H   0.88836511206578      2.09434470504624      0.25337916836731
  C   1.31342900911700     -1.30365689516280     -0.34201564706137
  H   2.29636704541279     -1.36010084509947      0.13166115054072
  H   0.78332310742504     -2.22946022257762     -0.12364989996263
  H   1.46327002513320     -1.22496429896472     -1.41992662886721
