18
Coordinates from ORCA-job run
  C   -0.90542914403284      0.09887449065330     -0.43221887254838
  C   0.59320697449029     -0.19142569112324     -0.41588835452129
  Br  -1.48883092069671      0.90344341819059     -2.07932443157912
  H   0.75921191354982     -0.80002175177544     -1.30996729681114
  N   -1.76363874992336     -1.16240995697886     -0.29829762613133
  O   -2.89503618639265     -1.00865151735937      0.13648164014891
  O   -1.26198829741303     -2.19994002885372     -0.70989101755488
  N   -1.26489540567576      0.98147471880404      0.75888520763223
  O   -1.27523156204588      0.38691542234230      1.83148567677704
  O   -1.42178390486618      2.17862056114624      0.57685437422785
  C   1.05859896819969     -0.98971738785841      0.80628594008438
  H   1.03867091411185     -0.38476363913022      1.71310521390117
  H   2.09242925246794     -1.29554992101686      0.62822248435392
  H   0.47009563276481     -1.88981031518877      0.97380864351600
  C   1.40089663556629      1.10322297047024     -0.52928829185475
  H   1.26479166959630      1.73339287520909      0.35308862675206
  H   2.46098082853395      0.84912260651440     -0.59273890076566
  H   1.13895138176547      1.68622314595470     -1.41160301562702
