18
Coordinates from ORCA-job run
  C   -0.91227892720213      0.10101234267874     -0.42880069937343
  C   0.59908428757316     -0.13181572453604     -0.41170194343447
  Br  -1.51981186038722      0.74625791584921     -2.13430750124232
  H   0.75992602017862     -0.72208707462728     -1.32108977158867
  N   -1.58405771155927     -1.24928656073150     -0.14419779677036
  O   -1.48135059203088     -2.08858800829838     -1.02421207495121
  O   -2.06498619156433     -1.39646548593145      0.97188188045201
  N   -1.45041017075236      1.03598524715041      0.65604320271366
  O   -2.61781470617927      1.37896370476340      0.55416691895783
  O   -0.67882338483854      1.32321727003197      1.56444862730496
  C   1.06602292296559     -0.98417046786949      0.77248344400205
  H   0.86077725419206     -0.50144553361469      1.72632147105174
  H   0.61106121369971     -1.97660862960733      0.76918791776243
  H   2.14571740225586     -1.12498244786491      0.68419397220386
  C   1.40361103848369      1.16242677570181     -0.53386314895015
  H   2.44224389751120      0.90602784625245     -0.75445494496880
  H   1.04052396867261      1.79660173440808     -1.34376512298469
  H   1.38256553898150      1.72795709624501      0.39666556981555
