18
Coordinates from ORCA-job run
  C   -0.94364538615988      0.17720359437558     -0.32335972821018
  C   0.55156095067951     -0.10181892944031     -0.47984013464579
  Br  -1.68082481558331      1.03819122828780     -1.87516350542743
  H   0.60154466032011     -0.59173939732559     -1.45917208457679
  N   -1.64044691726741     -1.17732709069334     -0.12969691468538
  O   -1.66392257682094     -1.90636982200672     -1.10795225813979
  O   -2.01057868586053     -1.44260156939868      1.00646733923192
  N   -1.34074587656336      0.99450447206788      0.90800800242714
  O   -0.47217800683648      1.17048326443000      1.75507259333517
  O   -2.50257060882587      1.36526074803440      0.96623892535130
  C   1.09109544119287     -1.09516504658556      0.55439223911536
  H   2.15173515457716     -1.25652074753780      0.34859194332918
  H   0.99337403279524     -0.71643490383094      1.57033798654896
  H   0.59881882212605     -2.06728357708396      0.48715923148847
  C   1.39611239269543      1.17106980843843     -0.54010896105485
  H   2.39676751706952      0.90685818191045     -0.88954906802968
  H   1.48831525899283      1.62888778639369      0.44373637091093
  H   0.98558864346904      1.90380199996468     -1.23616197696855
