18
Coordinates from ORCA-job run
  C   -0.83961561326099      0.03705195808148     -0.31458645066579
  C   0.55732191479509     -0.02322815034394      0.27791595978824
  Br  -0.87073540795853     -0.00233723301130     -2.21691195359647
  H   0.39916978282050      0.00839535239729      1.35775079197125
  N   -1.71792003022771     -1.10989202386378      0.25636138232379
  O   -1.52841963541754     -1.35040926844155      1.44289556091577
  O   -2.53566677520284     -1.63886184911492     -0.47960355764834
  N   -1.59234749358400      1.29275814880838      0.20452356157150
  O   -2.35269341102644      1.87146673811689     -0.55517505707180
  O   -1.37568547222192      1.56345494455013      1.37985367736649
  C   1.39118766140423      1.18855451737896     -0.13183738708746
  H   0.90366399203480      2.13058856626288      0.12645658240376
  H   1.60240999538521      1.18422601220249     -1.20251327769457
  H   2.34425301913096      1.15609054775539      0.40098541641743
  C   1.25927279565768     -1.33193356271644     -0.07734020302949
  H   1.46729722965867     -1.39586622323531     -1.14674185792335
  H   0.67674368395226     -2.20594563685107      0.22030020710030
  H   2.21176376406058     -1.37611283797556      0.45566660485873
