18
Coordinates from ORCA-job run
  C   -0.90411453345671      0.08334436008150     -0.43825524092188
  C   0.60181886488056     -0.16769717177314     -0.41392903470151
  Br  -1.49350612815150      0.90381839011191     -2.07576049200640
  H   0.79128415659698     -0.75339932307468     -1.31852432090147
  N   -1.72962387294911     -1.20198294483026     -0.33683172513411
  O   -1.19810930119458     -2.21747552536676     -0.76553063339219
  O   -2.86777733816038     -1.08683263275979      0.09249112047370
  N   -1.29679053006893      0.93380783198830      0.76537093303310
  O   -1.30054430305819      0.31950080991393      1.82686793205309
  O   -1.48390231302965      2.12953300877603      0.60373267054245
  C   1.07717018044606     -0.97827492568020      0.79626727811639
  H   0.51270984260528     -1.89794686636641      0.93820109538759
  H   2.12105641010663     -1.25126485990413      0.62351171668433
  H   1.03101539698262     -0.39353305963598      1.71526041678666
  C   1.37563314366012      1.14977739448704     -0.49375042817801
  H   1.10423426931277      1.74403628184783     -1.36567385865346
  H   1.21698954506230      1.75751123733100      0.40047720628111
  H   2.44245651041573      0.92507799485380     -0.55492463546937
