18
Coordinates from ORCA-job run
  C   -0.87423447996919      0.10187280024013     -0.23423289775001
  C   0.57269350104544      0.05451990749809      0.23550735956046
  Br  -1.08413856299590      0.22223210236936     -2.12883065380547
  H   0.50907241071535      0.19682891557277      1.31919230724086
  N   -1.58611470206872     -1.14151707078404      0.31771929605836
  O   -1.88074813518447     -2.05017128932344     -0.43837979545423
  O   -1.71674322908643     -1.11317545979353      1.53693633396573
  N   -1.67718658611272      1.24998701126174      0.39971846985658
  O   -1.07095664357476      2.03251672075325      1.11924029908468
  O   -2.87217304897927      1.25856670690130      0.14317673639461
  C   1.43023773024637      1.16725884882501     -0.36416435171707
  H   1.65057116612417      0.96764151708469     -1.41400856498725
  H   2.37805201840451      1.20521474647555      0.17799239969372
  H   0.95782459347273      2.14481376988661     -0.28010585982588
  C   1.18692901454442     -1.31771153121332     -0.04676523820322
  H   1.13596407694079     -1.56607945875045     -1.10927594570123
  H   2.23885926960110     -1.29813062440972      0.24550360562889
  H   0.70309160687657     -2.11466761259399      0.52077649996047
