14

C	-0.546342	0.008312	-1.428202
C	0.0	0.0	0.0
Br	0.298864	1.384979	-2.499067
H	1.089629	0.0	0.0
H	-0.345964	-0.929577	0.467768
N	-0.284807	-1.321672	-2.138614
O	0.60746	-2.019867	-1.67868
O	-0.982938	-1.571615	-3.116207
C	-1.989406	0.225293	-1.436907
N	-3.15081	0.391081	-1.368109
N	-0.47351	1.204063	0.670211
H	0.312432	1.651569	1.121413
H	-1.173967	0.992488	1.365118
Br	3.541905	0.0	0.0
