14

C	-0.548472	-0.002653	-1.419935
C	0.0	0.0	0.0
Br	0.237289	1.428532	-2.471923
H	1.091321	0.0	0.0
H	-0.325421	0.940068	0.457324
N	-0.207143	-1.316088	-2.128288
O	0.778557	-1.915542	-1.732425
O	-0.942427	-1.63659	-3.05728
C	-2.000409	0.138816	-1.436423
N	-3.162206	0.307838	-1.380756
N	-0.556398	-1.168415	0.672672
H	-1.045401	-0.907158	1.516494
H	0.203532	-1.790993	0.916265
Br	3.554588	0.0	0.0
