14

C	-0.545145	0.030065	-1.423806
C	0.0	0.0	0.0
Br	0.21844	1.519216	-2.412511
H	1.092577	0.0	0.0
H	-0.345822	-0.934895	0.453251
N	-0.196327	-1.249073	-2.19087
O	-0.806169	-1.444073	-3.23719
O	0.667533	-1.962088	-1.704441
C	-1.997847	0.156497	-1.448326
N	-3.169191	0.238305	-1.427611
N	-0.529449	1.16674	0.704938
H	-0.892514	0.891382	1.606699
H	0.234904	1.810742	0.868808
Br	3.573649	0.0	0.0
