14

C	-0.527492	-0.014526	-1.429927
C	0.0	0.0	0.0
Br	0.286092	1.399473	-2.484991
H	1.091223	0.0	0.0
H	-0.338472	0.934277	0.457854
N	-0.153058	-1.32944	-2.131678
O	-0.937278	-1.733326	-2.983347
O	0.89819	-1.847149	-1.791301
C	-1.978862	0.126054	-1.484729
N	-3.141851	0.299101	-1.44609
N	-0.541003	-1.185605	0.660105
H	0.231722	-1.768065	0.956195
H	-1.086679	-0.93484	1.472129
Br	3.469795	0.0	0.0
