14

C	-0.514885	0.001242	-1.438629
C	0.0	0.0	0.0
Br	0.181614	-1.500423	-2.426682
H	1.096914	0.0	0.0
H	-0.357416	0.929353	0.450109
N	-2.058128	-0.079097	-1.362507
O	-2.565892	0.900891	-0.827514
O	-2.642033	-1.06324	-1.776566
C	-0.194203	1.232952	-2.149711
N	0.054737	2.223361	-2.73135
N	-0.575133	-1.149105	0.695389
H	0.109768	-1.896385	0.684656
H	-0.717962	-0.89981	1.665239
Br	3.5393	0.0	0.0
