16

C	0.0	0.0	0.0
C	-0.666796	0.055933	-1.339701
Cl	1.780282	0.0	0.0
H	-0.313975	0.968872	-1.826249
H	-1.741036	0.179313	-1.12108
N	-0.365969	1.222859	0.865213
O	-0.98199	2.124212	0.316797
O	0.041783	1.205249	2.01791
N	-0.449606	-1.236169	0.789148
O	-1.334188	-1.078796	1.614399
O	0.088899	-2.288009	0.463157
C	-0.434827	-1.16789	-2.216341
H	0.623351	-1.42381	-2.302775
H	-0.825125	-0.956197	-3.215249
H	-0.972499	-2.032272	-1.827891
Br	-4.045477	0.0	0.0
