16

C	0.0	0.0	0.0
C	-0.588575	-0.395948	-1.332503
Cl	1.747849	0.0	0.0
H	-0.049887	-1.303855	-1.616615
H	-0.31743	0.383386	-2.048604
N	-0.437053	1.375221	0.499668
O	-1.128198	2.044722	-0.257905
O	-0.021291	1.700316	1.603674
N	-0.467733	-1.029367	1.046407
O	-1.316858	-0.677236	1.849489
O	0.010685	-2.146164	0.906778
C	-2.095481	-0.647517	-1.320141
H	-2.402434	-1.347445	-0.543425
H	-2.700669	0.243528	-1.17195
H	-2.376722	-1.091897	-2.276513
Br	-5.350651	0.0	0.0
