16

C	0.0	0.0	0.0
C	-0.591823	0.585581	-1.257865
Cl	1.747509	0.0	0.0
H	-0.423819	1.664004	-1.217679
H	0.005243	0.183892	-2.081698
N	-0.440273	0.701223	1.280383
O	-0.029887	0.209597	2.32306
O	-1.129395	1.704928	1.156875
N	-0.464469	-1.462283	0.101725
O	-1.282357	-1.754293	0.957696
O	-0.001689	-2.19211	-0.762804
C	-2.071135	0.253476	-1.442886
H	-2.435343	0.761452	-2.341472
H	-2.228613	-0.818043	-1.585333
H	-2.715027	0.56394	-0.615657
Br	-5.355645	0.0	0.0
