12
Coordinates from ORCA-job run
  C   0.34077494915192      0.22891953041543     -0.09731101689066
  C   -0.95475637224927     -0.15352690724531     -0.79743952279936
  Br  1.21303095181138      1.65568785501946     -1.07918377227635
  H   -1.62194464447917      0.70501807076187     -0.88740151655322
  H   -1.44647783572435     -0.93775789904194     -0.21425057788011
  H   -0.72949375849473     -0.53656111810001     -1.79346663389864
  N   -0.08691391581377      0.74652518529111      1.28654815392405
  O   -0.42584558340824      1.91376802500910      1.40450484530202
  O   -0.15325350044733     -0.12189418280047      2.15188717020886
  N   1.30244232182519     -0.80237627805939      0.13258959201328
  H   1.68309118501952     -1.12685163182694     -0.74622371547432
  H   0.87834620280885     -1.56995064942291      0.63874699432445
