16

C	-0.235407	0.2743	-1.467259
C	0.0	0.0	0.0
F	0.15755	1.552927	-1.799407
H	1.106918	0.0	0.0
N	0.45268	-0.710029	-2.185259
H	0.448503	-0.482935	-3.17215
H	1.410323	-0.73508	-1.817834
N	-1.705126	0.236832	-1.902284
O	-2.564748	0.059189	-1.04799
O	-1.899361	0.385734	-3.106316
C	-0.422648	-1.320157	0.402557
N	-0.702632	-2.41208	0.736963
N	-0.473995	1.00279	0.956097
O	-0.317747	0.714906	2.145563
O	-0.914403	2.075328	0.539728
H	2.449948	0.0	0.0
