16

C	-0.54065	0.045799	-1.414057
C	0.0	0.0	0.0
F	-0.0488	-1.038581	-2.094437
H	1.092744	0.0	0.0
N	-1.941257	0.043226	-1.517491
H	-2.294266	0.809637	-0.956262
H	-2.195997	0.190271	-2.487825
N	0.090703	1.232824	-2.200591
O	-0.427502	1.442247	-3.299227
O	1.053639	1.819098	-1.733799
C	-0.349887	-1.252723	0.634714
N	-0.583769	-2.285675	1.145404
N	-0.420454	1.107814	0.802044
O	-0.073022	1.08771	1.997321
O	-0.971567	2.087667	0.240658
H	2.318257	0.0	0.0
