16

C	-0.606071	-0.2372	-1.372631
C	0.0	0.0	0.0
F	-0.040261	-1.422401	-1.857141
H	1.106138	0.0	0.0
N	-2.003751	-0.267289	-1.356746
H	-2.330146	-0.985583	-0.72533
H	-2.382879	-0.37932	-2.287104
N	-0.156613	0.775891	-2.426384
O	-0.993358	1.114305	-3.260245
O	1.025241	1.075936	-2.422934
C	-0.404427	-1.078987	0.872342
N	-0.72222	-2.008419	1.520745
N	-0.368841	1.275927	0.556852
O	-0.295304	1.394517	1.790691
O	-0.546772	2.217831	-0.235279
H	2.341252	0.0	0.0
