16

C	-0.301279	0.384119	-1.446976
C	0.0	0.0	0.0
F	-1.534294	0.957514	-1.601351
H	1.107396	0.0	0.0
N	0.714079	1.18283	-1.959189
H	0.73622	1.207664	-2.967662
H	1.615798	0.935288	-1.530318
N	-0.412687	-0.92307	-2.294263
O	-1.159109	-0.890608	-3.269538
O	0.350911	-1.836198	-2.003165
C	-0.596675	-1.23109	0.45686
N	-1.064913	-2.244797	0.828511
N	-0.325864	1.087349	0.946209
O	-0.211665	2.24678	0.554035
O	-0.559063	0.755467	2.11325
H	2.449055	0.0	0.0
