16

C	0.0	0.0	0.0
C	-0.289713	-0.185041	-1.509681
Cl	1.813073	0.0	0.0
H	-0.218525	-1.248075	-1.732301
H	0.44224	0.380899	-2.08592
C	-0.414877	1.366709	0.528822
H	-0.017437	2.183645	-0.076199
H	-1.508456	1.344892	0.509046
H	-0.041517	1.468722	1.553955
N	-0.549283	-1.108562	0.713153
H	-1.580762	-0.918417	0.530765
H	-0.400026	-0.936814	1.703685
N	-1.591295	0.283867	-2.090433
O	-2.284506	-0.553137	-2.657995
O	-1.767076	1.497967	-2.134244
F	-2.78812	0.0	0.0
