16

C	0.0	0.0	0.0
C	-0.199728	0.075034	-1.545683
Cl	1.803444	0.0	0.0
H	0.355664	0.925073	-1.940559
H	0.180062	-0.849854	-1.980266
C	-0.45847	1.270199	0.691972
H	-0.144157	1.228099	1.737385
H	-0.030625	2.154531	0.214414
H	-1.550845	1.253375	0.614544
N	-0.576733	-1.1303	0.633071
H	-0.407398	-1.952865	0.061563
H	-1.608389	-0.880084	0.545569
N	-1.573746	0.239366	-2.111126
O	-1.986403	1.388479	-2.228083
O	-2.113324	-0.763911	-2.567381
F	-2.82186	0.0	0.0
