17

C	-0.385134	-0.006789	-1.469161
C	0.0	0.0	0.0
Br	0.124877	1.584508	-2.443496
H	1.096902	0.0	0.0
H	0.081884	-0.843681	-1.984124
N	-1.868158	-0.221411	-1.633773
O	-2.634244	0.702517	-1.377012
O	-2.211588	-1.36304	-1.947792
C	-0.451214	-1.314293	0.640353
H	0.000915	-1.389902	1.631741
H	-0.118494	-2.178241	0.059723
H	-1.539778	-1.370382	0.751461
C	-0.492765	1.200903	0.795072
H	-1.582933	1.221509	0.880305
H	-0.160105	2.138148	0.34776
H	-0.063259	1.145462	1.798387
Cl	3.42921	0.0	0.0
