16

C	0.0	0.0	0.0
C	-0.334651	0.002131	-1.506979
F	1.393001	0.0	0.0
H	0.341555	-0.753929	-1.929079
H	-0.330986	0.93022	0.469175
C	-0.560013	-1.190811	0.729284
H	-0.180069	-1.20894	1.754259
H	-1.653209	-1.103633	0.75059
H	-0.271411	-2.121443	0.232094
C	0.104049	1.280643	-2.078503
N	0.460658	2.297944	-2.544896
C	-1.778027	-0.333065	-1.891624
H	-1.935105	-1.409935	-1.797171
H	-1.965136	-0.050704	-2.931578
H	-2.540881	0.116509	-1.233452
H	-4.006773	0.0	0.0
