16

C	0.0	0.0	0.0
C	-0.292946	-0.050907	-1.521914
F	1.393243	0.0	0.0
H	0.33393	-0.880591	-1.879196
H	-0.332797	0.9497	0.42676
C	-0.583199	-1.155468	0.759282
H	-0.306458	-2.108914	0.297689
H	-0.213455	-1.139661	1.787209
H	-1.674831	-1.042377	0.758526
C	0.272278	1.161786	-2.132332
N	0.710782	2.133349	-2.626352
C	-1.731929	-0.278296	-1.983332
H	-2.451223	0.40585	-1.52215
H	-1.772169	-0.222376	-3.074575
H	-2.080316	-1.259403	-1.662219
H	-3.879118	0.0	0.0
