13
Coordinates from ORCA-job run
  C   0.75290330747873     -0.40607416038109      0.11811981800672
  C   -0.55768768571496      0.21822315546341     -0.38196116966946
  F   0.53832006143734     -0.80633303241736      1.41871368714747
  H   -0.41581226454700      0.53316373844655     -1.41751173030318
  H   0.96227757483909     -1.30223380516399     -0.47509993354929
  N   1.79242920874406      0.57977303008161      0.07567085506513
  H   2.22794177456663      0.65767925147054      0.98450753650116
  H   2.49496658825851      0.34877402041225     -0.61244884347986
  C   -0.97148129078892      1.33632224337622      0.45241252260678
  N   -1.28037275193787      2.25768756596153      1.10990363890904
  N   -1.61054097754556     -0.86257473002448     -0.41362612783932
  O   -2.47212723212773     -0.87043314083715      0.45467900781824
  O   -1.46181631266233     -1.68397413638805     -1.31435926121342
