13
Coordinates from ORCA-job run
  C   0.89343596103969     -0.23498854425935     -0.44465934829191
  C   -0.57936014935942      0.17885028041755     -0.56996806953610
  F   0.88128882669370     -1.62643114219985     -0.66815522386051
  H   -0.93311571849853     -0.04868704252579     -1.57611836162681
  H   1.44437275820372      0.19898288798140     -1.28222528421992
  N   1.47972857471088      0.15759163350224      0.76321884421046
  H   1.00124837766620     -0.21346556571940      1.57199746994165
  H   2.46676297653397     -0.05231656629142      0.79256642698785
  C   -0.79046320669679      1.58354846989064     -0.24981226112625
  N   -0.97177006315401      2.72266737836417     -0.03240161841441
  N   -1.42753499783640     -0.67896953977184      0.34342764181181
  O   -1.19349434722234     -0.60137641417806      1.54555371289706
  O   -2.27009899208067     -1.38440583521026     -0.19442392877293
