13
Coordinates from ORCA-job run
  C   0.86081828057953      0.32802367332701      0.11411417702658
  C   -0.47837657911306     -0.01079794702447     -0.55036665910485
  F   1.69911741105935      0.71896446554180     -0.93719751381297
  H   -0.35633286989875     -0.86315312749019     -1.22196008101854
  H   0.74370132550249      1.19066108014482      0.77077645405421
  N   1.32328576159193     -0.77869283259241      0.84466496805930
  H   2.11559681484476     -0.54965744965588      1.42782498988079
  H   1.54462926588458     -1.56874510774771      0.25266350091419
  C   -1.03509973303304      1.13036070103832     -1.26458394071868
  N   -1.47527787511665      2.05162833448360     -1.84339463368600
  N   -1.42840902964157     -0.44507534553205      0.53413776447823
  O   -1.74325294878938      0.41570521635215      1.34686318863756
  O   -1.77139982387019     -1.62022166084498      0.52645778529018
