13

C	0.0	0.0	0.0
C	-0.479622	-0.00413	-1.452003
Cl	1.802477	0.0	0.0
H	-0.099072	-0.901033	-1.944156
H	-1.570532	-0.007884	-1.440696
H	-0.110896	0.877226	-1.97442
C	-0.378482	1.246634	0.687982
N	-0.578078	2.2511	1.242394
C	-0.479594	-1.230771	0.770851
H	-0.110743	-1.202995	1.7946
H	-0.098797	-2.125291	0.273874
H	-1.570297	-1.223354	0.761387
Cl	-3.910153	0.0	0.0
