13

C	0.0	0.0	0.0
C	-0.495073	0.006575	-1.438224
Cl	1.802196	0.0	0.0
H	-1.586976	0.004966	-1.417488
H	-0.128407	0.886435	-1.968539
H	-0.124945	-0.889683	-1.943362
C	-0.355482	1.252126	0.69262
N	-0.605799	2.250272	1.244745
C	-0.495506	-1.214335	0.769682
H	-0.128235	-1.196503	1.797298
H	-1.586993	-1.198345	0.757474
H	-0.124845	-2.11915	0.279136
Cl	-3.863306	0.0	0.0
