20

C	-0.206855	-0.012373	-1.505968
C	0.0	0.0	0.0
F	-1.597123	-0.014975	-1.844808
H	1.097597	0.0	0.0
C	0.437568	1.225273	-2.096683
H	-0.070731	2.118561	-1.732509
H	0.411711	1.193659	-3.190226
H	1.469456	1.227037	-1.733328
C	0.431697	-1.257981	-2.099431
H	0.443984	-1.201496	-3.192506
H	-0.1135	-2.159734	-1.810347
H	1.455116	-1.293786	-1.71071
C	-0.55087	-1.228599	0.713541
H	-1.627877	-1.347264	0.533113
H	-0.04331	-2.145577	0.406963
H	-0.393091	-1.117828	1.791079
N	-0.486173	1.256612	0.583985
H	0.116198	1.479098	1.364354
H	-1.424455	1.127603	0.943074
F	2.747923	0.0	0.0
