20

C	-0.354841	0.064255	-1.49218
C	0.0	0.0	0.0
F	-0.163298	-1.233963	-2.03634
H	1.096782	0.0	0.0
C	-1.798156	0.424333	-1.79781
H	-2.478818	-0.319396	-1.366644
H	-1.96132	0.44683	-2.880573
H	-2.028913	1.405501	-1.381597
C	0.653873	0.967925	-2.176985
H	1.646437	0.689469	-1.798064
H	0.593179	0.856901	-3.263737
H	0.462136	2.008782	-1.908369
C	-0.551905	-1.216403	0.720231
H	-1.650882	-1.206988	0.769849
H	-0.23657	-2.1362	0.226976
H	-0.166748	-1.230736	1.745261
N	-0.396212	1.275904	0.629614
H	0.371508	1.554344	1.233807
H	-1.218979	1.143151	1.214737
F	2.766321	0.0	0.0
