20

C	-0.217058	-0.010241	-1.5097
C	0.0	0.0	0.0
F	-1.577364	-0.229665	-1.863056
H	1.103411	0.0	0.0
C	0.205867	1.329829	-2.077039
H	-0.431645	2.118893	-1.675656
H	0.136387	1.326685	-3.169327
H	1.244792	1.488654	-1.769523
C	0.631557	-1.11771	-2.117549
H	0.685798	-1.013644	-3.204367
H	1.628037	-1.024896	-1.670131
H	0.214251	-2.102374	-1.89258
C	-0.590983	-1.209145	0.69758
H	-0.278155	-1.220129	1.747725
H	-1.686395	-1.182307	0.655726
H	-0.24863	-2.143677	0.251289
N	-0.543116	1.238636	0.6138
H	0.233752	1.892243	0.65653
H	-0.763111	1.026713	1.5815
F	2.775305	0.0	0.0
