16

C	-0.418181	-0.022849	-1.454888
C	0.0	0.0	0.0
Br	-2.392983	-0.016081	-1.598376
H	1.095136	0.0	0.0
H	-0.112362	0.910756	-1.923371
C	0.161365	-1.227092	-2.162155
H	1.248226	-1.190475	-2.037823
H	-0.209592	-2.146743	-1.710699
H	-0.087205	-1.211562	-3.224927
N	-0.463817	-1.108766	0.751034
H	-1.433871	-0.990732	1.016989
H	0.09995	-1.211461	1.585341
N	-0.403997	1.349296	0.595773
O	-0.982067	1.349193	1.683433
O	-0.110108	2.355961	-0.042582
Br	3.457157	0.0	0.0
