16

C	-0.496408	0.057488	-1.448817
C	0.0	0.0	0.0
Br	-0.12621	-1.662791	-2.311299
H	1.090579	0.0	0.0
H	-1.585912	0.144342	-1.460698
C	0.18069	1.172274	-2.22498
H	1.26501	1.068628	-2.140691
H	-0.105728	2.140995	-1.806028
H	-0.113187	1.15234	-3.276002
N	-0.489387	-1.055776	0.830241
H	-1.360792	-1.439733	0.491582
H	0.212849	-1.780379	0.880217
N	-0.493372	1.303143	0.597839
O	-1.716724	1.39764	0.732525
O	0.316958	2.176954	0.88534
Br	3.54013	0.0	0.0
