16

C	-0.518349	-0.020614	-1.432812
C	0.0	0.0	0.0
Br	0.10555	1.555265	-2.408312
H	1.094	0.0	0.0
H	0.000618	-0.856629	-1.908211
C	-2.024	-0.147356	-1.606039
H	-2.527201	0.755287	-1.262436
H	-2.41235	-0.982531	-1.015996
H	-2.259374	-0.313922	-2.660628
N	-0.481192	-1.151367	0.74099
H	0.294426	-1.491859	1.298461
H	-0.745437	-1.897779	0.108647
N	-0.49526	1.248034	0.697596
O	-1.701927	1.326161	0.93396
O	0.333674	2.110453	0.972389
Br	3.524209	0.0	0.0
