11

C	-0.569178	-0.018706	-1.396595
C	0.0	0.0	0.0
Cl	-0.166916	1.583207	-2.230847
H	1.089384	0.0	0.0
H	-0.065737	-0.758221	-2.018565
H	-0.347204	-0.901914	0.511868
H	-0.360243	0.876239	0.546342
N	-1.977613	-0.272719	-1.403515
H	-2.345613	-0.207417	-2.344584
H	-2.44658	0.423978	-0.835987
Cl	3.674686	0.0	0.0
