13

C	-0.552265	0.014545	-1.417714
C	0.0	0.0	0.0
Cl	-0.002216	-1.409613	-2.356117
H	1.093176	0.0	0.0
H	-1.644045	-0.059729	-1.391941
H	-0.329339	-0.938459	0.457942
C	-0.222971	1.23617	-2.151548
N	0.03785	2.226475	-2.725732
C	-0.509872	1.194991	0.799652
H	-1.604584	1.243932	0.827954
H	-0.129673	2.130741	0.384223
H	-0.144562	1.125219	1.826182
Br	3.655607	0.0	0.0
