13

C	-0.405473	0.110468	-1.457524
C	0.0	0.0	0.0
Cl	-2.194831	0.356783	-1.673075
H	1.095238	0.0	0.0
H	0.064198	0.988083	-1.907077
H	-0.356003	-0.949439	0.40858
C	-0.040364	-1.071167	-2.234008
N	0.230685	-2.03089	-2.853983
C	-0.466832	1.179992	0.841512
H	-0.007385	1.115279	1.829048
H	-0.137666	2.121866	0.393261
H	-1.551709	1.212373	0.960138
Br	3.593971	0.0	0.0
