13

C	-0.558269	0.023334	-1.412645
C	0.0	0.0	0.0
Cl	-0.020112	-1.399772	-2.366903
H	1.093215	0.0	0.0
H	-1.650249	-0.047964	-1.384086
H	-0.329968	-0.938781	0.456946
C	-0.224969	1.250457	-2.136283
N	0.029716	2.24304	-2.706543
C	-0.507366	1.193595	0.80313
H	-1.602282	1.243071	0.834545
H	-0.138706	1.121824	1.828605
H	-0.127781	2.131064	0.389201
Br	3.651369	0.0	0.0
