13

C	-0.463475	-0.018317	-1.452241
C	0.0	0.0	0.0
Cl	-0.025039	1.48441	-2.330211
H	1.093666	0.0	0.0
H	0.045549	-0.826454	-1.981646
H	-0.3131	-0.960914	0.427994
C	-1.9104	-0.211753	-1.571299
N	-3.0677	-0.396823	-1.651339
C	-0.559162	1.150055	0.822071
H	-1.654024	1.155436	0.835922
H	-0.202594	1.063764	1.850402
H	-0.209778	2.108041	0.4352
Br	3.640896	0.0	0.0
