16
Coordinates from ORCA-job run
  C   0.77473495690784     -0.42134899791297     -0.81266064571900
  C   -0.57904571257106      0.08231271086082     -0.32276390472483
  Cl  0.54530507804498     -2.11638331592306     -1.52947165743109
  H   -1.29161149602955     -0.10602612613829     -1.13253843122535
  H   1.09765310454979      0.16336230607800     -1.67499563905484
  N   1.77704951065375     -0.36914183020280      0.18708120441646
  H   1.57672862316548     -1.00859938508990      0.94506300739607
  H   2.68804235691690     -0.59358246169675     -0.19052363445053
  C   -0.49955699488735      1.58888731884645     -0.08042214130212
  H   0.22728087764277      1.81347404209133      0.70193325089301
  H   -1.47474671555300      1.97550440260549      0.22694238949820
  H   -0.19926698856057      2.12250375077129     -0.98664882724569
  C   -1.06098347754810     -0.64997148651266      0.92584418803357
  H   -1.05803710675744     -1.73294557455508      0.78717477930756
  H   -0.44144333691214     -0.40021375060102      1.79184577888656
  H   -2.08310267906231     -0.34683160262087      1.16414028272202
