16
Coordinates from ORCA-job run
  C   0.96663973101828     -0.24695630724920     -0.53329220193329
  C   -0.49476809313341      0.05679754381667     -0.22637461686207
  Cl  1.30427574574844      0.03780191955788     -2.27413944413747
  H   -1.08803432694352     -0.53989999176321     -0.92812202443860
  H   1.60561191157993      0.47827359597967     -0.00839720288081
  N   1.29006852023308     -1.63427625072477     -0.25748715240806
  H   1.32236267535830     -1.77050475795354      0.74663447428802
  H   2.21249665259376     -1.84479857278556     -0.62051973496652
  C   -0.81042388485480      1.53725465941413     -0.41821947034829
  H   -0.22234046208133      2.14990045169469      0.27303368642562
  H   -0.59831740806078      1.87087216521354     -1.43441813859046
  H   -1.86668296372388      1.72864281617841     -0.21442423239485
  C   -0.83298994233485     -0.37886321378742      1.19987712642386
  H   -1.85227101663510     -0.07813789574611      1.45280960102192
  H   -0.16308464224728      0.09575829869536      1.92598816064498
  H   -0.77254249651682     -1.46186446054054      1.31705117015602
