16
Coordinates from ORCA-job run
  C   1.01397177870463     -0.27024748014647     -0.56864749964277
  C   -0.44104119752168      0.04345311513795     -0.20320596953076
  Cl  1.22528720710202     -0.07073585152106     -2.35110444589101
  H   -1.07234818583190     -0.63520879318973     -0.79244893077473
  H   1.66999568272009      0.47681455611299     -0.11125278738387
  N   1.50973908286448     -1.57242527844871     -0.21207062733781
  H   1.68867669805023     -1.62401173838034      0.78187878524163
  H   0.84902508708390     -2.29454333094216     -0.47293683564116
  C   -0.81935372526650      1.48493493862401     -0.53390641760442
  H   -1.85150901544780      1.68574651549298     -0.23631392736260
  H   -0.17465622624195      2.18259978733376      0.01106254450166
  H   -0.72592122393953      1.69760800343327     -1.59828742078058
  C   -0.66941010460897     -0.23069136569909      1.28360413159648
  H   -1.68885866815614      0.04127005836581      1.56673971820406
  H   0.01289951229969      0.36745586867198      1.89764612512525
  H   -0.52649670181057     -1.28201900484517      1.53824355728063
