16
Coordinates from ORCA-job run
  C   0.88907695509668     -0.34586816738527     -0.74913696757718
  C   -0.06641958686684      0.41739027231149      0.17706601070952
  Cl  -0.04441903325447     -1.41783711317889     -1.85124507193799
  H   0.60210591129593      1.05181167700272      0.77855295335947
  H   1.38717443036155      0.37559232607095     -1.40273196655015
  N   1.91562661586955     -1.14444181786842     -0.12353417006973
  H   1.50618713640901     -1.83425867036197      0.49381505036504
  H   2.52888624566830     -0.54434608665420      0.41609555631985
  C   -0.84287097890511     -0.48481423583671      1.12989901791301
  H   -1.45120880088473      0.12160447312032      1.80518258505093
  H   -1.51153020193628     -1.15012836968966      0.58007481474287
  H   -0.18294401765563     -1.09572361387643      1.75045982031914
  C   -1.00204469391373      1.33603728613512     -0.60350047920521
  H   -0.44972543445969      1.95342309987688     -1.31795656623753
  H   -1.74181150755305      0.75759437541375     -1.15985451940959
  H   -1.53508303927149      2.00496456492033      0.07681393220755
