16
Coordinates from ORCA-job run
  C   0.74483149814929     -0.54435203383671     -0.88230237904157
  C   -0.56589915297419      0.03785537134158     -0.33595151965098
  Cl  0.42772676678678     -2.21134540971119     -1.49922797751691
  H   -1.31221957504292     -0.07913419514078     -1.13014446756766
  H   1.04093895143090      0.02873900058610     -1.76447709994543
  N   1.87538435645905     -0.58995561510296      0.00308124970711
  H   2.26376206921280      0.33363667916426      0.13862624548550
  H   1.63585702978354     -0.99792138603642      0.89674933095145
  C   -0.38241440757764      1.53039213343190     -0.06400983817074
  H   -1.33276984735045      1.98523383558173      0.22546520074222
  H   0.32396354717674      1.69935428358953      0.75364288128294
  H   -0.01619675316768      2.05949237050427     -0.94883497359518
  C   -1.07230334828604     -0.68209997129652      0.90930442570434
  H   -0.39747490765944     -0.53308529601965      1.75742507325511
  H   -1.18612631012498     -1.75373985295926      0.73993204846123
  H   -2.04605991681577     -0.28206991409590      1.20172179989857
