18

C	0.0	0.0	0.0
C	-0.330662	-0.269678	-1.540948
Cl	1.803697	0.0	0.0
H	0.100506	0.626472	-2.019216
C	-0.629334	1.273372	0.508056
H	-0.309741	1.491309	1.529911
H	-0.351977	2.106301	-0.144291
H	-1.718783	1.088191	0.47447
C	-0.411469	-1.156336	0.797063
N	-0.672624	-2.120336	1.415709
N	-1.717801	-0.390847	-1.894518
H	-2.394752	-0.006371	-1.168435
H	-1.955885	-1.377879	-1.862652
C	0.379376	-1.507218	-2.09254
H	0.049962	-2.391644	-1.53389
H	0.046761	-1.620803	-3.128652
H	1.467304	-1.467463	-2.076052
F	-3.298856	0.0	0.0
