18

C	0.0	0.0	0.0
C	-0.485421	0.009471	-1.499167
Cl	1.801734	0.0	0.0
H	0.415283	0.172382	-2.100842
C	-0.490771	1.181719	0.824132
H	-0.217313	2.111046	0.327117
H	-1.580077	1.06591	0.857721
H	-0.050705	1.137692	1.823911
C	-0.370677	-1.236622	0.699774
N	-0.572377	-2.237049	1.281249
N	-1.376741	1.144106	-1.716377
H	-1.627913	1.133031	-2.700505
H	-2.221839	0.885353	-1.15846
C	-1.11447	-1.328286	-1.894475
H	-1.358186	-1.297422	-2.963001
H	-0.452217	-2.182693	-1.72057
H	-2.034101	-1.420954	-1.311819
F	-2.971572	0.0	0.0
