18

C	0.0	0.0	0.0
C	-0.321285	-0.297796	-1.541515
Cl	1.803541	0.0	0.0
H	0.080837	0.606183	-2.029934
C	-0.639569	1.279169	0.474768
H	-1.728579	1.083647	0.425094
H	-0.336785	1.516325	1.497996
H	-0.351159	2.099851	-0.187498
C	-0.412201	-1.143883	0.814832
N	-0.666478	-2.094441	1.456762
N	-1.704895	-0.471333	-1.896171
H	-2.389169	-0.082528	-1.182416
H	-1.906387	-1.465369	-1.847955
C	0.435798	-1.517099	-2.082397
H	0.044225	-1.705756	-3.084777
H	0.216676	-2.393503	-1.462202
H	1.516089	-1.399138	-2.145667
F	-3.274486	0.0	0.0
