18

C	0.0	0.0	0.0
C	-0.437522	-0.051256	-1.54094
Cl	1.801678	0.0	0.0
H	0.472799	0.229256	-2.085407
C	-0.494522	1.247136	0.711649
H	-0.149018	2.13929	0.183316
H	-0.110008	1.274399	1.734513
H	-1.588518	1.157996	0.696685
C	-0.405803	-1.181329	0.763482
N	-0.625372	-2.145432	1.398982
N	-1.491077	0.848378	-1.941282
H	-1.193992	1.805196	-1.787063
H	-2.281758	0.635479	-1.285457
C	-0.846569	-1.466535	-1.919933
H	-1.798854	-1.663735	-1.420764
H	-0.111596	-2.215833	-1.617281
H	-0.986963	-1.515426	-3.001792
F	-2.943082	0.0	0.0
