18

C	0.0	0.0	0.0
C	-0.442426	-0.013238	-1.543785
Cl	1.802392	0.0	0.0
H	0.466914	0.273012	-2.083682
C	-0.497366	1.22641	0.742695
H	-0.113837	1.230388	1.766329
H	-0.157364	2.133299	0.236921
H	-1.591603	1.128308	0.723297
C	-0.403098	-1.201201	0.732367
N	-0.615724	-2.18694	1.33567
N	-1.492434	0.898969	-1.922452
H	-2.281792	0.675255	-1.268981
H	-1.188919	1.851742	-1.759718
C	-0.859921	-1.418212	-1.95293
H	-1.012253	-1.440648	-3.03445
H	-0.122689	-2.174161	-1.675016
H	-1.806342	-1.623158	-1.449794
F	-2.937972	0.0	0.0
