16

C	-0.477157	0.0593	-1.459237
C	0.0	0.0	0.0
Br	-0.102238	-1.638052	-2.379026
H	1.096701	0.0	0.0
H	-1.567733	0.141589	-1.498831
C	0.200768	1.184251	-2.222324
H	-0.084667	2.144038	-1.780774
H	1.284519	1.074044	-2.145154
H	-0.09811	1.181688	-3.272362
C	-0.50561	-1.197424	0.80554
H	-0.211352	-1.083842	1.850675
H	-0.052579	-2.111567	0.424702
H	-1.595649	-1.285975	0.75243
C	-0.466367	1.234878	0.634421
N	-0.899421	2.201164	1.144793
Cl	3.379901	0.0	0.0
