16

C	-0.324197	-0.016762	-1.492598
C	0.0	0.0	0.0
Br	-2.274008	-0.070625	-1.832073
H	1.099272	0.0	0.0
H	-0.017736	0.937666	-1.924308
C	0.363518	-1.160253	-2.214307
H	0.235241	-1.063183	-3.294379
H	1.429727	-1.117403	-1.964032
H	-0.039103	-2.126994	-1.908058
C	-0.464336	-1.22404	0.78792
H	-0.005487	-2.124965	0.379212
H	-0.135357	-1.131696	1.824479
H	-1.55117	-1.328216	0.767454
C	-0.484128	1.228963	0.619977
N	-0.888724	2.207655	1.128707
Cl	3.35556	0.0	0.0
