18

C	0.0	0.0	0.0
C	-0.555831	-0.122653	-1.443623
F	1.388149	0.0	0.0
H	-1.298166	-0.923845	-1.386536
C	-0.388278	1.263048	0.661328
N	-0.532797	2.254454	1.273049
C	-0.45785	-1.174766	0.845428
H	-0.004257	-1.126234	1.839404
H	-1.550908	-1.088939	0.871827
H	-0.142374	-2.101037	0.352775
C	0.541034	-0.495328	-2.428733
H	1.279521	0.303797	-2.514361
H	1.051544	-1.414967	-2.12901
H	0.092689	-0.666208	-3.413869
N	-1.221923	1.124489	-1.814928
H	-2.064898	1.060628	-1.213974
H	-1.53971	1.021003	-2.775322
F	-2.828407	0.0	0.0
