18

C	0.0	0.0	0.0
C	-0.285297	-0.076108	-1.553758
F	1.4007	0.0	0.0
H	0.630475	0.372161	-1.963644
C	-0.379998	1.324262	0.532135
N	-0.54791	2.395944	0.981479
C	-0.604743	-1.085712	0.845192
H	-0.303763	-0.959531	1.889373
H	-0.277039	-2.067537	0.49883
H	-1.69913	-0.933338	0.715818
C	-1.482634	0.691824	-2.093902
H	-2.393969	0.359106	-1.570982
H	-1.511031	0.530534	-3.177042
H	-1.371141	1.764096	-1.894019
N	-0.32985	-1.454817	-2.045816
H	0.439949	-1.981806	-1.639632
H	-1.199368	-1.86954	-1.71397
F	-3.020222	0.0	0.0
