18

C	0.0	0.0	0.0
C	-0.236225	-0.110001	-1.541865
F	1.401734	0.0	0.0
H	0.481544	0.631865	-1.933753
C	-0.391994	1.343715	0.469465
N	-0.581099	2.431833	0.867221
C	-0.641837	-1.069176	0.831259
H	-0.335617	-0.972536	1.876928
H	-1.73147	-0.87723	0.710413
H	-0.369106	-2.047899	0.438862
C	-1.606339	0.217436	-2.099341
H	-1.617977	-0.058906	-3.162823
H	-1.778978	1.294303	-2.031988
H	-2.418918	-0.227672	-1.503856
N	0.166323	-1.471222	-1.924964
H	-0.059895	-1.600412	-2.903501
H	1.171313	-1.556034	-1.825052
F	-3.184126	0.0	0.0
