18

C	0.0	0.0	0.0
C	-0.467105	-0.183293	-1.478623
F	1.395729	0.0	0.0
H	0.471095	-0.385835	-2.013156
C	-0.366793	1.326543	0.54539
N	-0.517122	2.398303	1.000948
C	-0.47549	-1.067037	0.962029
H	-0.206926	-2.047883	0.573312
H	-0.002989	-0.898843	1.934996
H	-1.563041	-0.95797	1.016212
C	-1.118977	1.079626	-2.05079
H	-2.041635	1.228579	-1.484142
H	-1.360467	0.908462	-3.106302
H	-0.474628	1.962924	-1.989715
N	-1.33477	-1.356463	-1.58603
H	-1.613288	-1.425504	-2.560137
H	-2.171117	-1.050315	-1.041568
F	-2.929558	0.0	0.0
