18

C	0.0	0.0	0.0
C	-0.24497	-0.092992	-1.5535
F	1.40093	0.0	0.0
H	0.537515	0.572663	-1.943579
C	-0.387951	1.338054	0.48891
N	-0.582053	2.414526	0.914854
C	-0.64988	-1.065449	0.830194
H	-0.357719	-2.056637	0.477899
H	-1.742463	-0.874277	0.686548
H	-0.36491	-0.960382	1.88092
C	-1.579148	0.361008	-2.104846
H	-2.415501	-0.115003	-1.575281
H	-1.565099	0.18278	-3.185333
H	-1.717019	1.427573	-1.922096
N	0.072228	-1.430715	-2.058119
H	-0.690994	-2.055539	-1.814811
H	0.912901	-1.77313	-1.603793
F	-3.140608	0.0	0.0
