18

C	0.0	0.0	0.0
C	-0.431869	-0.19079	-1.506521
F	1.401112	0.0	0.0
H	0.51267	-0.491002	-1.981159
C	-0.385467	1.307671	0.562335
N	-0.53418	2.383052	1.01085
C	-0.480549	-1.099173	0.920798
H	-1.57412	-1.027292	0.909894
H	-0.074892	-0.938062	1.923732
H	-0.128694	-2.066696	0.551956
C	-0.905563	1.122086	-2.116043
H	-1.831601	1.394501	-1.607111
H	-1.111465	0.965752	-3.177654
H	-0.163548	1.916118	-2.006361
N	-1.439542	-1.197339	-1.777357
H	-1.114066	-2.091966	-1.43103
H	-2.241701	-0.893523	-1.179839
F	-2.90729	0.0	0.0
