18
Coordinates from ORCA-job run
  C   -0.64578819506910      0.38045960422370     -0.08082365715629
  C   0.81932059529771      0.47739747126803      0.31691960337054
  H   -0.92905385670276      1.41082066497716     -0.31834818616306
  H   0.96729279770911      1.19252770026988      1.12818495506591
  C   -1.45578267803008     -0.08756904971770      1.12908524781476
  H   -1.25730544300396      0.51949618207314      2.01619906660503
  H   -2.52207634127765     -0.02023761819390      0.90431384792698
  H   -1.23429576885262     -1.12904891599187      1.37630871565304
  C   -0.91714704067683     -0.48517075248406     -1.30876137467440
  H   -0.32887079985383     -0.16768970631475     -2.17063354013476
  H   -1.97254133076648     -0.39146397722024     -1.57576015379113
  H   -0.70718014884557     -1.53696647805721     -1.11479853658008
  N   1.71757008472548      0.95457978022243     -0.79977643794278
  O   1.23484201745345      1.80922915357576     -1.53423905062798
  O   2.86325702769866      0.52499771437271     -0.82929767724592
  N   1.34410194955520     -0.82664989965798      0.82205404377891
  O   1.57419165251160     -0.88516034485021      2.02827181217249
  O   1.44946547812769     -1.74055152849488      0.01110132192875
