18
Coordinates from ORCA-job run
  C   -0.60260162821805      0.30066940169534     -0.33862129052781
  C   0.91738411753689      0.24436372220541     -0.31389392389319
  H   -0.82895228587680      1.23653906034887     -0.85940487749251
  H   1.33719033421449      0.32345920605526     -1.31836747944848
  C   -1.26132693539027      0.34805768118958      1.03783185619555
  H   -0.87907504739100      1.16903329243036      1.64575155115789
  H   -2.33453533259682      0.50554728770687      0.90612290278365
  H   -1.11865339504105     -0.58360920002917      1.58521148730892
  C   -1.12630767733225     -0.86822960802189     -1.17434181358460
  H   -0.64994237576792     -0.91672102297736     -2.15700026066099
  H   -0.95815384464802     -1.82344421459523     -0.67021399895092
  H   -2.20209796609387     -0.75807752794911     -1.32460829554075
  N   1.41524969583593     -1.05245592450237      0.23519173171140
  O   1.93353067397136     -1.81826955557174     -0.57489287591341
  O   1.21910898685707     -1.26922203915347      1.42620265462901
  N   1.55043648545158      1.37024501342190      0.46917669976102
  O   2.60169679614139      1.13600101264662      1.05055175897639
  O   0.98904939834735      2.45611341510013      0.37630417348884
