18
Coordinates from ORCA-job run
  C   -0.58839601099530      0.25316771764660     -0.00860955623099
  C   0.84788656363816     -0.20219611258091      0.11461730341936
  H   -0.59528648906686      1.32708686293981      0.19814387012100
  H   0.98417293474316     -1.27768698806392      0.01167897052014
  C   -1.44145490133174     -0.47649674430291      1.02702535537203
  H   -1.11052504328522     -0.27087052319644      2.04643760530766
  H   -1.41706580434101     -1.55773817718423      0.86076055422868
  H   -2.48055988313007     -0.15059085132087      0.94640143190354
  C   -1.08968561987248     -0.00317157204467     -1.42904220713188
  H   -2.14618912648761      0.26364989551307     -1.49793383521447
  H   -0.99023430556070     -1.05805859828777     -1.70098939745657
  H   -0.55053940781795      0.59276734414754     -2.16820203163026
  N   1.47336749227374      0.17375096150803      1.43125208422925
  O   2.35633210526361     -0.58417138880915      1.82966738092295
  O   1.08381882899457      1.19646229387332      1.98407200884910
  N   1.69593790967500      0.43474988889793     -0.94639947802774
  O   2.13346901040395     -0.31385591910878     -1.81556739006150
  O   1.83295174689674      1.65220191037336     -0.88331266912031
