18
Coordinates from ORCA-job run
  C   -0.59542820746986      0.23149811363442     -0.04523300405560
  C   0.86673849729824     -0.14435452320587      0.03381118157139
  H   -0.65491151683304      1.30352933974244      0.16287302656873
  H   1.07560210197868     -1.17855593711407     -0.23573585576237
  C   -1.38412217052439     -0.54435850206306      1.00863622914992
  H   -1.08786483522596     -0.27405440369104      2.02418857116728
  H   -1.25173735227565     -1.62361398608850      0.88898982546218
  H   -2.44829249902800     -0.32271182033248      0.90590674610227
  C   -1.11500212674756     -0.04964697720247     -1.45366030302277
  H   -0.57894395195964      0.52725788964515     -2.20918670655043
  H   -2.17054681220827      0.22221516532802     -1.51976429102740
  H   -1.02853970294664     -1.11309357575618     -1.69641005127677
  N   1.38428157648440      0.04138727178030      1.42962377363900
  O   1.41769366630745      1.19154634415258      1.85502108755222
  O   1.67789927902054     -0.98151823957447      2.04179002528578
  N   1.74064808726238      0.70263336406960     -0.85218013894966
  O   2.75852739676627      0.15183801853895     -1.26853757708413
  O   1.39499857010106      1.85900245813668     -1.06813253876965
