18
Coordinates from ORCA-job run
  C   -0.60458455653331      0.27179276304784     -0.33849299390858
  C   0.91420440539432      0.18956380204462     -0.31560280090823
  H   -0.82528331701240      1.25661871780847     -0.76395241980819
  H   1.34486958451053     -0.00932493760869     -1.29742471012559
  C   -1.22938683143600      0.19335787228843      1.05291292756575
  H   -0.79368901467017      0.91834957507859      1.73905619235395
  H   -1.11319094360911     -0.80560566635359      1.48107098983073
  H   -2.29956598617860      0.39744019881330      0.97598723733477
  C   -1.17275722933992     -0.80155383145879     -1.26753982017344
  H   -0.96256586834490     -1.80464219960833     -0.89184207068647
  H   -0.75927131799889     -0.72350110213338     -2.27638523674772
  H   -2.25646864371578     -0.68590013941533     -1.33790483732001
  N   1.37772426494747     -0.92335587856787      0.57717834703576
  O   1.59145288977918     -0.65642866509143      1.75396587807639
  O   1.43603582734556     -2.03070619713222      0.05057216750971
  N   1.60336405957578      1.43777248927955      0.17537477565402
  O   2.82780659047979      1.40319028341656      0.10929745123016
  O   0.91930608680646      2.37393291559225      0.57372892308699
