18
Coordinates from ORCA-job run
  C   -0.59207667697956      0.24699398047096     -0.00475030502934
  C   0.84833837348249     -0.19466827153125      0.12041076180691
  H   -0.61019522404233      1.32210367760970      0.19508576545904
  H   0.99141678345614     -1.27113648547437      0.03639798029511
  C   -1.43885303758758     -0.48401354386423      1.03519176933177
  H   -1.10758788537385     -0.27193476650630      2.05294855176318
  H   -1.40782016147421     -1.56563712694893      0.87239514655712
  H   -2.48017150086395     -0.16528419015679      0.95422317143459
  C   -1.09323943511627     -0.02229858565257     -1.42331401116942
  H   -0.97569388421352     -1.07568479983992     -1.69366390204121
  H   -0.56732447315828      0.58101345107523     -2.16589175107304
  H   -2.15454742374685      0.22559973995233     -1.48864845817857
  N   1.48635839697377      0.21323833126429      1.42177882176685
  O   1.05050861073360      1.20504636850773      1.99573485238551
  O   2.42995437826100     -0.48742659427995      1.78336136048400
  N   1.68556950278196      0.42815405196919     -0.95823959443002
  O   1.84129513510725      1.64355999854766     -0.89795384616701
  O   2.09506852176017     -0.32662523514278     -1.83506631319546
