18
Coordinates from ORCA-job run
  C   -0.58574118618702      0.25869614489674     -0.03920140547778
  C   0.85932518979796     -0.18343401243809      0.00357019720954
  H   -0.58911986020405      1.33998031974096      0.12492310725174
  H   1.00948269565466     -1.23402337197600     -0.24143692237006
  C   -1.37082147128754     -0.43426134044962      1.07411195574179
  H   -1.28598523911515     -1.52250132941156      1.00294715541304
  H   -2.42777349970776     -0.17295326039176      0.99245289094679
  H   -1.03156997635582     -0.12998763221971      2.06624100087104
  C   -1.17152274049190     -0.05483376708926     -1.41449814502065
  H   -0.63638453279305      0.46142744052554     -2.21302450352760
  H   -2.21415184654289      0.26738301095877     -1.45436834612392
  H   -1.14748641261454     -1.13081391874340     -1.61214425635786
  N   1.43036456957706      0.01574850358389      1.37710167096325
  O   1.66301985871988     -1.00105887181780      2.02377058681145
  O   1.56330824647196      1.17621866623036      1.75224428489743
  N   1.74940062864923      0.59608185547316     -0.92762852354561
  O   2.76656011123326      0.00889695521889     -1.29183707768137
  O   1.42009546519573      1.73943460790889     -1.22322367000121
