18
Coordinates from ORCA-job run
  C   -0.58815052581907      0.25570994691731      0.00233106673387
  C   0.84522495000824     -0.21106415616640      0.11586432747177
  H   -0.59125350517727      1.32408024470524      0.23611600090051
  H   0.97300251935678     -1.28621466056027     -0.00266756392776
  C   -1.44844364269588     -0.49548182598132      1.01639985559152
  H   -2.48379444582735     -0.15543061084337      0.94625542516596
  H   -1.11447248951684     -0.32482745440552      2.04105766630256
  H   -1.43666740169795     -1.57120668996160      0.81632041774165
  C   -1.09002243285362      0.03920328015933     -1.42506768729306
  H   -2.14763289796337      0.30388992613030     -1.48437561454235
  H   -0.98651811791938     -1.00647747356929     -1.72901843589252
  H   -0.55430976089843      0.65841982905337     -2.14729008434360
  N   1.48635368710292      0.14545114110439      1.43042136534342
  O   2.41887251774544     -0.58017410442779      1.77104650125447
  O   1.06366026566026      1.12438517132038      2.03556547343229
  N   1.69365256233928      0.43374181578452     -0.94109191568158
  O   1.86813058208136      1.64393626131060     -0.84076178530637
  O   2.09236813607488     -0.29794064056990     -1.84210501295079
