11
Coordinates from ORCA-job run
  C   -0.07121311886888      0.33414102500098     -0.06014293445777
  C   0.99933462411354     -0.43989686345380      0.27959013525079
  H   1.97177289708171      0.00216912368329      0.45674480775894
  N   0.03851936651410      1.66947406363217     -0.40900188694384
  H   -0.67414282335016      2.25326627229325      0.00398155356302
  H   0.96460538823698      2.05258102385063     -0.30278988234306
  N   -1.37414179519877     -0.12137068036909     -0.09341837782348
  H   -1.47363306560042     -1.11401730129603      0.06213066490248
  H   -1.89785485134504      0.20576279039149     -0.89186248870009
  C   0.84656983162521     -1.84094151326433      0.42165999067006
  N   0.66918354679174     -3.00016794046855      0.53310841812295
