11
Coordinates from ORCA-job run
  C   -0.32229755182629      0.12699018127487     -0.01335463333068
  C   0.32164301433645     -0.98574548459472      0.44248205133450
  H   -0.22153334464986     -1.77661127583834      0.94441071641390
  N   0.32188726932837      1.26074402579394     -0.46706668946610
  H   1.32587321129068      1.17386007699951     -0.52957567081224
  H   -0.09091868660644      1.65626474329688     -1.29890829803914
  N   -1.70139776215117      0.23640362562446     -0.06784411670184
  H   -2.19692714541368     -0.53858563309312      0.34389407217032
  H   -2.04695013283104      1.13116205421541      0.24720628368783
  C   1.72269096257008     -1.11349272679303      0.27759084278052
  N   2.88893016595291     -1.17198958688586      0.12216544196292
