11
Coordinates from ORCA-job run
  C   -0.06143872713787      0.34812682073608      0.04476647655503
  C   0.99070462158175     -0.45443159642192      0.38548829606368
  H   1.92806341502367     -0.02484665876160      0.71510003190292
  N   -1.35176080595010     -0.11863601256000     -0.12680836513035
  H   -1.81992966134364      0.22037678564701     -0.95423606022951
  H   -1.44621070352318     -1.11754678327456     -0.01307906070349
  N   0.06622925775710      1.71448167652311     -0.04674855759649
  H   -0.75677624243094      2.24541188998181     -0.27110131681425
  H   0.93340294261436      2.07533509484556     -0.40189289914242
  C   0.84374948277933     -1.86155757084373      0.35430947791429
  N   0.67296642062950     -3.02671364587176      0.31420197718057
