11
Coordinates from ORCA-job run
  C   -0.29609899870734      0.16889677212188      0.10345409084158
  C   0.36004991470332     -0.92675669943223      0.58942005166934
  H   -0.10649227097933     -1.56772317188104      1.32655918267474
  N   -1.61541182491257      0.41756120207286      0.40090470183556
  H   -2.02537980619604      1.25969114879187      0.03745368031816
  H   -2.22946931297740     -0.37260288179405      0.48327019389924
  N   0.32316932984687      1.16642204638022     -0.62699593196900
  H   -0.17349711869854      1.45594044714472     -1.45661993253389
  H   1.30309033792859      0.99862533693536     -0.80388104131164
  C   1.68088749919310     -1.20458786203927      0.16438688986392
  N   2.77915225079934     -1.39446633830032     -0.21795188528803
