11
Coordinates from ORCA-job run
  C   -0.07319016810194      0.34170009453408      0.06889586014189
  C   0.91339251690299     -0.49781290013695      0.50366664446239
  H   1.77340485335726     -0.11057642533638      1.03498599181667
  N   -1.30736441916316     -0.09735161885202     -0.37399676775843
  H   -1.62731446060136      0.32908670309663     -1.23105964126518
  H   -1.40733888766661     -1.10214436569151     -0.38329534274535
  N   0.05103163319766      1.70920691389487      0.14231180663461
  H   -0.72712687381886      2.26594217231725     -0.16406616157401
  H   0.96241945666916      2.10135286868365     -0.01197105413949
  C   0.79227911100896     -1.89326577005228      0.30242160812427
  N   0.64680723821588     -3.04713767245734      0.11310705630265
