11
Coordinates from ORCA-job run
  C   -0.32075865512776      0.12520845766091     -0.04125762931265
  C   0.30163625398511     -0.90620714096311      0.59839723463523
  H   -0.26684968135602     -1.62949407243511      1.16968798695537
  N   -1.65190285433955      0.44910399188350      0.15795023167527
  H   -2.14607652073437      0.66333512189031     -0.69598457122152
  H   -2.15468615410018     -0.19565552244779      0.74702246969770
  N   0.29988035931552      0.95581778892396     -0.95339386811392
  H   1.29390959357963      0.80410084658686     -1.04594083822448
  H   0.06071228565168      1.93011946937030     -0.84232985021372
  C   1.70720325885715     -1.05531879700777      0.50693398839395
  N   2.87693211426879     -1.14101014346205      0.39691484572876
