11
Coordinates from ORCA-job run
  C   -0.07760603865031      0.32894514902106     -0.07774080591577
  C   0.96848343197370     -0.38709241662843      0.42594815552474
  H   1.90200374727493      0.09799962075633      0.68209774836578
  N   -0.11100933395645      1.71313861020349     -0.09364694653343
  H   -0.45628818222780      2.09754300935351     -0.96100717335635
  H   0.74230660292132      2.15310916102157      0.21299841770719
  N   -1.21101750342974     -0.23929386586256     -0.62434811902239
  H   -1.25759013226411     -1.24429151835149     -0.53710128913267
  H   -2.06743611312385      0.21921415923045     -0.34996145904773
  C   0.85349232286823     -1.78795733505831      0.59981106012862
  N   0.71366119861408     -2.95131457368562      0.72195041128202
