11
Coordinates from ORCA-job run
  C   -0.30139240435862      0.14757136221148     -0.01428427668686
  C   0.35106826452794     -0.75774131618871      0.76653320010090
  H   -0.16913743957597     -1.24417044431063      1.58370783029878
  N   -1.67148664093118      0.37230638174296      0.07484421749628
  H   -1.91025744749590      1.35197495749201      0.00349055478015
  H   -2.10552080845432     -0.06975213352314      0.87324728969968
  N   0.31960767183922      0.93708843603893     -0.96271994464864
  H   -0.26410798259502      1.10838125614863     -1.77291243333629
  H   1.26482402972717      0.65918467294552     -1.20237422574614
  C   1.68845612734516     -1.11805838264277      0.47253881295138
  N   2.79694662997151     -1.38678478991427      0.17892897509075
