11
Coordinates from ORCA-job run
  C   -0.31078333784783      0.15638230254692      0.00727872385555
  C   0.27732863510162     -0.99163917443396      0.45038984938556
  H   -0.28577039659990     -1.72148693586282      1.01855585223006
  N   -1.67739786601037      0.37389972778625      0.04951498405019
  H   -1.92849031782618      1.30160183005730      0.35865372475574
  H   -2.19965848314116     -0.34764968172031      0.52098359060718
  N   0.38291462589732      1.22286288884053     -0.53013862433659
  H   -0.05912826808229      1.62391179693426     -1.34418715887721
  H   1.36955864250536      1.05414881087447     -0.66251839751306
  C   1.64739188082178     -1.23894728655389      0.18862846285864
  N   2.78303488518166     -1.43208427846876     -0.05716100701605
