11
Coordinates from ORCA-job run
  C   -0.32588433627748      0.10855697323092     -0.04731840317781
  C   0.33448662840800     -0.90283821275760      0.58656559574954
  H   -0.20795360986667     -1.66837067416772      1.12685216768029
  N   -1.67758054803785      0.35564381044556      0.12247270911274
  H   -2.15921901812503     -0.33006401156011      0.68232888148019
  H   -2.16022599085659      0.56116269858485     -0.74021688924307
  N   0.27284803084314      0.99190636621131     -0.92334000696997
  H   1.27571783678368      0.89652278484549     -0.99127146364343
  H   -0.02381456179244      1.94889475296271     -0.80099046455101
  C   1.74819472994643     -0.97167256278005      0.53180809562548
  N   2.92343083897481     -0.98874192501535      0.45310977793705
