11
Coordinates from ORCA-job run
  C   -0.34574860119787      0.05887787135257     -0.06216108228066
  C   0.31152958307756     -0.85217459887858      0.71552637430795
  H   -0.22791051305451     -1.45395756823642      1.43579589305706
  N   -1.67130257967120      0.36499216898896      0.13892572955232
  H   -2.00477252437810      0.38068373728270      1.08585878349175
  H   -2.09819650829698      1.02211291207642     -0.48981574000159
  N   0.21850419742997      0.66280157697058     -1.17089703447368
  H   1.17898700211339      0.39969412006522     -1.33823741274385
  H   0.07803094760524      1.66082269315778     -1.22810392071249
  C   1.70193237417762     -1.05356387464107      0.54545630590519
  N   2.85894662219488     -1.18828903813816      0.36765210389800
