11
Coordinates from ORCA-job run
  C   -0.31339795531271      0.14867248342373     -0.00189559537635
  C   0.28730479490222     -0.96679927069202      0.50411931894493
  H   -0.27655603641927     -1.68974076570469      1.08008816533123
  N   -1.59210268072846      0.54665482059763      0.34914463412193
  H   -2.08409332255649     -0.10666561422300      0.93820470373208
  H   -2.14671372327168      0.85804768381037     -0.43490101882015
  N   0.28008277670149      0.99903811757944     -0.91354447389576
  H   1.24757596068094      0.78886427045646     -1.11165927930039
  H   0.12421148986483      1.97660354767072     -0.71723792243152
  C   1.66403425199351     -1.20125633936301      0.26746942376804
  N   2.80965444414563     -1.35441893355564      0.04021204392596
