11
Coordinates from ORCA-job run
  C   -0.06988982923386      0.33661669779863     -0.04676348998919
  C   0.96031438223939     -0.44452922802724      0.38879768988887
  H   1.89986888434736     -0.00458175187721      0.69862689396079
  N   -1.20950399353719     -0.15512371393570     -0.65169320343276
  H   -2.05946015810923      0.28834949918933     -0.33647126525593
  H   -1.27437731861754     -1.16264151521737     -0.66276262690314
  N   -0.07899508621361      1.71581661570312      0.07337358111438
  H   0.78079514360701      2.10854027930036      0.42322152208875
  H   -0.41626875397278      2.18993751015636     -0.75167543794155
  C   0.81633783557314     -1.85313105236509      0.42730806099560
  N   0.65017889391730     -3.01925334072520      0.43703827547419
