11
Coordinates from ORCA-job run
  C   -0.31821875248582      0.13812773741235     -0.00457921512257
  C   0.32006850507084     -0.94975557750646      0.51472625852413
  H   -0.21945847982556     -1.68526690170291      1.09832478274245
  N   0.24674956134078      0.99942249301478     -0.92409452669558
  H   1.22052718387774      0.82002883763703     -1.12108633536510
  H   0.05600223974360      1.97290139547325     -0.73744991249003
  N   -1.61134541034801      0.49428593320807      0.33890467963665
  H   -2.08064614540006     -0.16860618278363      0.93571028618604
  H   -2.17478664058881      0.77455752084571     -0.45041360328775
  C   1.70505207223164     -1.13856372352269      0.28557420628799
  N   2.85605586638366     -1.25713153207550      0.06438337958378
