11
Coordinates from ORCA-job run
  C   -0.07645959527034      0.33309134667959     -0.06044082915399
  C   0.99073906741412     -0.41868092656216      0.33516691455093
  H   1.94847972047024      0.04145661425035      0.54408104473328
  N   -0.08597005512351      1.71701419588016     -0.01979731444071
  H   -0.48910312653871      2.14111308244034     -0.84238306104034
  H   0.79552981376768      2.13150030970628      0.23901833375674
  N   -1.25735899783501     -0.19532540312813     -0.54292374871600
  H   -2.08224088861744      0.26357370376201     -0.18532536488007
  H   -1.31502925343114     -1.20208308686314     -0.49463042860247
  C   0.86179823603034     -1.82301425358520      0.46762165683785
  N   0.70961507913377     -2.98764558258011      0.55861279695476
