11
Coordinates from ORCA-job run
  C   -0.30477948467046      0.15466965711216      0.10042539259157
  C   0.36217626932914     -0.94947220046406      0.55125058181646
  H   -0.11620041525098     -1.64366143805306      1.23012454079014
  N   -1.64223215109119      0.35002207638868      0.35531964144353
  H   -2.06123573067362      1.19913809124175      0.01925449797452
  H   -2.23462331366672     -0.46081228919648      0.36039898141666
  N   0.31534106238614      1.20898614695502     -0.54388279793212
  H   -0.15500271001355      1.53757479853894     -1.37413144003681
  H   1.30637837545743      1.07863843799080     -0.68736689096453
  C   1.70627895443409     -1.16801005000626      0.16683489134964
  N   2.82389914375971     -1.30807323050747     -0.17922739844906
