11
Coordinates from ORCA-job run
  C   -0.08215111329823      0.32772846816272     -0.07636241503189
  C   1.03370492726551     -0.41302344098237      0.18190453441031
  H   2.01922750148820      0.03419151078308      0.15463510939793
  N   -1.33923511073687     -0.20990204853972     -0.27056964673822
  H   -2.07343914103524      0.30488440396100      0.19338596678371
  H   -1.39600980269169     -1.20489874253279     -0.10918018474028
  N   -0.06950561871493      1.70921021636534     -0.17107160355228
  H   -0.62024494077969      2.06530871228161     -0.93853043640879
  H   0.84941692842973      2.12074793496131     -0.12715540040578
  C   0.91496475860996     -1.79546206783779      0.46778234184397
  N   0.76327161146324     -2.94178494662241      0.69316173444132
