11
Coordinates from ORCA-job run
  C   -0.31247449212043      0.14978290433562     -0.00509585961436
  C   0.26461184470115     -0.99960054621883      0.44910768842857
  H   -0.32535857019038     -1.76052788528224      0.94444349861876
  N   -1.60718760917707      0.52504962342541      0.31114114157009
  H   -2.12481148715218      0.88790491128347     -0.47604996677624
  H   -2.12546773319453     -0.16521087145284      0.83141918274813
  N   0.32212782222756      1.06104141653435     -0.82547372209173
  H   0.15542581396930      2.02268626559140     -0.56820828032585
  H   1.29762431547528      0.86281834989659     -0.99435256239216
  C   1.65092882142677     -1.22111000511786      0.25967223650211
  N   2.80558127403453     -1.36283416299507      0.07439664333268
