11
Coordinates from ORCA-job run
  C   -0.07687160948008      0.32495648107291     -0.09054085091743
  C   0.96944385854588     -0.38873247717419      0.41599299474304
  H   1.91577557814008      0.09044226066510      0.63588897064231
  N   -1.36278042462333     -0.16216808355201     -0.20576201278394
  H   -1.80997423598489      0.09838683926603     -1.07197166700198
  H   -1.45518748649604     -1.14439754301262      0.00909941938939
  N   0.04339521945397      1.62775102562121     -0.55018863623472
  H   -0.69121528934650      2.23686209344843     -0.21658509420883
  H   0.96214526403065      2.02460074385385     -0.42332672859739
  C   0.83251125294046     -1.77797871777311      0.65667843466683
  N   0.67175787281980     -2.93072262241559      0.83871517030273
