11
Coordinates from ORCA-job run
  C   -0.31415932557389      0.13938945081175     -0.04380292967040
  C   0.26781716158538     -0.93489796433788      0.56280476707011
  H   -0.32918229394741     -1.65576488655826      1.10805070308028
  N   -1.68622951160468      0.27924706172466     -0.18754933493162
  H   -2.22147442610154     -0.45199206153377      0.25533165422722
  H   -2.01963732152880      1.20236153376953      0.05436451492852
  N   0.38788391304339      1.19946200364126     -0.57849282060698
  H   0.01952772711813      1.51726104095423     -1.46191823909245
  H   1.38890257272781      1.06985534520502     -0.59197611607213
  C   1.66922134269202     -1.12457013112018      0.48597350070671
  N   2.83833016158958     -1.23935139255637      0.39721430036075
