11
Coordinates from ORCA-job run
  C   -0.04938594532005      0.32604799929842     -0.10733291312122
  C   0.92635276198299     -0.42365570273143      0.48107081950682
  H   1.89219420004372      0.00644498872323      0.71495019559072
  N   -1.21788911723738     -0.19514975967264     -0.62666128481610
  H   -2.03744690557038      0.35236331971902     -0.40878737414683
  H   -1.34764979173857     -1.18145586700090     -0.45360444701107
  N   0.03180822070583      1.70128916887372     -0.24751187547420
  H   -0.26790500193925      2.03028882236727     -1.15389271066600
  H   0.91401912681958      2.09707227552370      0.03686505015630
  C   0.69495051282171     -1.79025717752380      0.77364080876557
  N   0.46095193943181     -2.92398806757661      0.99126373121602
