11
Coordinates from ORCA-job run
  C   0.01105791894237      0.31305777156475     -0.16895739054379
  C   0.90142023238916     -0.33106301296177      0.64318718287055
  H   1.76756875572773      0.18735878295511      1.03415109967983
  N   -0.95613542070613     -0.34107638697247     -0.91021377110814
  H   -1.87765964255440      0.06771069012236     -0.86035197257301
  H   -0.97071317610805     -1.34173860896098     -0.77532045346921
  N   0.07860947732705      1.66717594697849     -0.39368251010149
  H   0.37232046028223      2.25428111615495      0.36580444330996
  H   -0.57467556780865      2.06982217412710     -1.04179384102613
  C   0.71976851272575     -1.70193038264870      0.94365696059510
  N   0.52943844978295     -2.84359809035885      1.16452025236634
