11
Coordinates from ORCA-job run
  C   -0.06662884657947      0.34890488408297     -0.02709758438321
  C   0.90579550741570     -0.35832952645721      0.62202245982381
  H   1.77350913291394      0.14417343626154      1.03004009196374
  N   0.08238329928523      1.68263773265323     -0.32746883415206
  H   -0.68604479667621      2.14817066460059     -0.77711447497329
  H   1.00026875588511      2.00039214578773     -0.58226200222166
  N   -1.30971272938542     -0.17168472516719     -0.33687333945668
  H   -1.62408548288125      0.01062882632766     -1.27852352407559
  H   -1.42789033126124     -1.13886868360534     -0.07192427606426
  C   0.75961105230194     -1.75346440722115      0.80803355617159
  N   0.59379443898167     -2.91256034726284      0.94016792736760
