11
Coordinates from ORCA-job run
  C   -0.32808159752541      0.10402034589865     -0.04160186137195
  C   0.36675638581650     -0.83970722670774      0.65651849290412
  H   -0.14463816151699     -1.54602054916519      1.29806623863087
  N   -1.66981649920053      0.37085443750924      0.17268675468434
  H   -2.11952889539239     -0.25395315627108      0.82325968897587
  H   -2.19755560993877      0.48983702181181     -0.67966384458343
  N   0.22206620590098      0.89281704560670     -1.03229065396324
  H   1.22008170850569      0.78912711076030     -1.14333626449974
  H   -0.07152861220811      1.85755211798500     -0.99286628265766
  C   1.77620141343436     -0.91799786658484      0.53694623128814
  N   2.94604366212469     -0.94752928084287      0.40128150059269
