11
Coordinates from ORCA-job run
  C   -0.32232594070870      0.12730021323305     -0.01006339230274
  C   0.35179332747712     -0.91120321509813      0.56240327217529
  H   -0.15449611059965     -1.61106222934640      1.21504692046357
  N   0.28842958151702      1.17207669658063     -0.67445762854707
  H   -0.18323376334587      1.44377218907106     -1.52437135971670
  H   1.28524360333333      1.06619502784152     -0.79353980699052
  N   -1.70192669789041      0.24274881050327      0.01671647486433
  H   -2.02368680911234      1.17826513086984      0.21765880406898
  H   -2.16695568090193     -0.45557037783647      0.57524950749947
  C   1.73752594445803     -1.07867271958555      0.32040610915265
  N   2.88963254577340     -1.17384952623281      0.09395109933274
