11
Coordinates from ORCA-job run
  C   -0.32920680246663      0.10472025644263     -0.03069456125667
  C   0.38869570676458     -0.82759921527605      0.65926757629870
  H   -0.09427789220959     -1.49078588734442      1.36594180926745
  N   0.23755919134014      1.11637831637174     -0.77992825607460
  H   -0.22163052917526      1.27202722542673     -1.66514768293646
  H   1.24245535719770      1.06223053032233     -0.86239858054832
  N   -1.71320059663896      0.13422364714775     -0.05068469796051
  H   -2.15291225230671     -0.53489109272081      0.56140247236069
  H   -2.09761876201494      1.06263965610637      0.04749218209775
  C   1.78892703516953     -0.92835168767725      0.47039594168416
  N   2.95120954434013     -0.97059174879902      0.28335379706780
