11
Coordinates from ORCA-job run
  C   -0.04942951108221      0.32912620439293     -0.09707320290917
  C   0.90102908646437     -0.42119508864822      0.53087089485157
  H   1.81421723731554      0.03064892248966      0.89748644329163
  N   0.16045887019212      1.63689055729393     -0.50010179875814
  H   1.04432105445716      2.02508967850991     -0.21062350823838
  H   -0.61723419757285      2.24927946056676     -0.30127391879535
  N   -1.31758616036784     -0.12577461380351     -0.39850197813640
  H   -1.46720920127711     -1.10516998811613     -0.20368245830898
  H   -1.63899470987750      0.14608562509826     -1.31583231615500
  C   0.69504873883445     -1.80876777835169      0.72753184459960
  N   0.47637879291388     -2.95721297943191      0.87219999855863
