11
Coordinates from ORCA-job run
  C   -0.06897868347323      0.33826146875530     -0.03295937015581
  C   0.98193614348295     -0.46463751218046      0.30140922044001
  H   1.93966490844477     -0.04163397489822      0.57749099870388
  N   -1.36517985369546     -0.11111959657263     -0.18804647810799
  H   -1.47020997933635     -1.11342368173705     -0.12782972608084
  H   -1.84036625064738      0.28731818413366     -0.98443878411867
  N   0.05627895174302      1.69930058503867     -0.25311861557641
  H   -0.68304557851156      2.24521005087981      0.16472804443165
  H   0.97235349139184      2.07066289347808     -0.05682808428857
  C   0.82766820329586     -1.87272620227233      0.30339829142325
  N   0.64987864730554     -3.03721221462482      0.29519450332950
