11
Coordinates from ORCA-job run
  C   -0.07583543411787      0.33065559623196     -0.07204487326753
  C   0.94230076425236     -0.39171705947192      0.47766101397991
  H   1.84688895003825      0.09454827917929      0.82105141254170
  N   -0.12861749887585      1.71372417362705     -0.03882761999501
  H   -0.41769632572378      2.12713836882489     -0.91337956327846
  H   0.69367685298887      2.15245398929125      0.34492684405725
  N   -1.15913722174901     -0.22990778806274     -0.71902691609805
  H   -2.03950355502106      0.20648239324001     -0.48812222375694
  H   -1.19639508607518     -1.23790896508788     -0.67446163555463
  C   0.83328173968439     -1.79906898952296      0.59536651475826
  N   0.70103681459889     -2.96739999824896      0.66785704661350
