11
Coordinates from ORCA-job run
  C   -0.31893871380106      0.13539957816666     -0.01595273461117
  C   0.33975688803863     -0.86294414189579      0.63982009995256
  H   -0.17972546782559     -1.50580102867072      1.33943619910486
  N   0.21540008094186      0.85238944794478     -1.06793355885694
  H   1.18484237323572      0.64818883843960     -1.26265445958007
  H   0.02364905337192      1.84233487912344     -1.02282289151000
  N   -1.60405088771949      0.53618981656760      0.30767601200288
  H   -2.05251901810027     -0.03149045986246      1.00933898613413
  H   -2.19151980817871      0.69506430638382     -0.49788456296415
  C   1.71893700952105     -1.08125584226905      0.40207865707829
  N   2.86416849051593     -1.22907539392788      0.16889825324962
