11
Coordinates from ORCA-job run
  C   -0.05784034591509      0.34875513291517      0.04665524900885
  C   0.93732454906946     -0.48705804457808      0.46898073672637
  H   1.84898648360909     -0.08727784405917      0.89452543005468
  N   -1.33660152323256     -0.08093070985746     -0.25697856888450
  H   -1.71501121663763      0.28415416773616     -1.11848845036391
  H   -1.46660204628209     -1.07849225252559     -0.17111973784471
  N   0.11105191115557      1.71283313784108     -0.00298971421002
  H   1.01704979297174      2.05746815928318     -0.26495188647686
  H   -0.67329797448195      2.26870311830679     -0.29589358684935
  C   0.76296453669617     -1.88914631242706      0.39131447631797
  N   0.57297583304729     -3.04900855263502      0.30794605252145
