11
Coordinates from ORCA-job run
  C   0.00616474317286      0.32945016970204     -0.13649545210160
  C   0.93814910312080     -0.40812362333903      0.53775584265130
  H   1.83956105678005      0.05613355872893      0.91705897623339
  N   -1.02440337032416     -0.23064588789976     -0.86857701754562
  H   -1.93101236770103      0.18595616724665     -0.71641499466322
  H   -1.05316321775827     -1.23938396794876     -0.83322180477396
  N   0.09139630526311      1.69963371317090     -0.22890554979151
  H   0.44533388303583      2.19290530458019      0.57109299577650
  H   -0.62224265083323      2.17364184328891     -0.75392568841577
  C   0.75332845441638     -1.80148136904578      0.70111520247335
  N   0.55688806082767     -2.95808590848429      0.81151749015713
