11
Coordinates from ORCA-job run
  C   -0.34787895455535     -0.00071683325381     -0.07612629329546
  C   0.40169729243530     -0.69810928095126      0.82874159185243
  H   -0.07447146654067     -1.27167041514118      1.61378123368257
  N   -1.71040596658280      0.13220988457915      0.05757748689417
  H   -2.20111920662751      0.63960981335209     -0.65754025398133
  H   -2.07561228995172      0.22314996507723      0.98859977537406
  N   0.16712481928162      0.52912773090652     -1.24453623557541
  H   1.16076064352995      0.38958502198561     -1.35734217841871
  H   -0.11395419521313      1.47818069560982     -1.44209949929161
  C   1.81178393146357     -0.71692717292808      0.71278055730441
  N   2.98207539276073     -0.70343940923608      0.57616381545490
