11
Coordinates from ORCA-job run
  C   -0.33364262286128      0.11657176422663      0.04618008573087
  C   0.32416662585146     -0.99643344706272      0.48858286470218
  H   -0.21930818236927     -1.81539172159931      0.94224710440995
  N   0.30503276293064      1.29554568928847     -0.29150945210827
  H   0.00110158956633      1.71019013017999     -1.16010283407099
  H   1.31109945896262      1.25530470949900     -0.21463865486551
  N   -1.70671951271590      0.18165651044910      0.00522200401690
  H   -2.12383169859911      1.04266022713033     -0.30190670514571
  H   -2.20327747847202     -0.65833216435151     -0.23197707938532
  C   1.73528470269242     -1.06208273194501      0.40432856254990
  N   2.91009435501411     -1.07068896581499      0.31357410416600
