18

C	-0.345238	-0.044933	-1.461967
C	0.0	0.0	0.0
Cl	-2.36453	-0.465166	-1.530665
H	1.095567	0.0	0.0
N	-0.147036	1.170448	-2.070053
H	-0.471385	1.22247	-3.022618
H	-0.446204	1.929006	-1.471298
C	0.309061	-1.200349	-2.165564
H	0.156334	-1.152396	-3.247245
H	-0.058409	-2.144041	-1.77316
H	1.37022	-1.091596	-1.911463
N	-0.377879	-1.236799	0.658078
H	-1.356403	-1.231077	0.924061
H	0.205834	-1.34269	1.477557
N	-0.477747	1.253825	0.585221
H	0.158449	1.509537	1.331544
H	-1.406441	1.121046	0.974003
F	2.661214	0.0	0.0
