18

C	-0.089585	-0.000915	-1.525173
C	0.0	0.0	0.0
Cl	-1.806028	0.22947	-2.115757
H	1.104143	0.0	0.0
N	0.724791	1.088711	-2.036491
H	1.641813	0.899732	-1.602934
H	0.385713	1.91908	-1.554475
C	0.46222	-1.296899	-2.086139
H	-0.179305	-2.149051	-1.853671
H	0.560961	-1.206606	-3.168929
H	1.452575	-1.41509	-1.631549
N	-0.627641	-1.168588	0.64014
H	-0.377552	-1.102564	1.623995
H	-0.139808	-1.996065	0.309412
N	-0.506975	1.23851	0.546713
H	-1.493378	1.12119	0.756459
H	-0.007849	1.449996	1.401854
F	2.747089	0.0	0.0
