18

C	-0.461627	0.088016	-1.458809
C	0.0	0.0	0.0
Cl	0.009689	-1.455945	-2.268532
H	1.098738	0.0	0.0
N	-1.902123	0.229057	-1.63348
H	-2.309061	-0.605044	-1.21611
H	-2.1495	0.995432	-1.008692
C	0.313226	1.198584	-2.146053
H	-0.067389	2.173509	-1.823107
H	0.199112	1.134176	-3.228863
H	1.360769	1.091145	-1.850287
N	-0.601724	-1.132895	0.679778
H	0.114202	-1.596997	1.222507
H	-1.333014	-0.810635	1.302528
N	-0.454584	1.261549	0.66591
H	0.178927	1.986968	0.336684
H	-0.180398	1.138067	1.637658
F	2.718443	0.0	0.0
