18

C	-0.394607	0.023201	-1.485817
C	0.0	0.0	0.0
Cl	-0.066839	-1.618074	-2.211962
H	1.098884	0.0	0.0
N	-1.815334	0.264606	-1.613842
H	-1.978275	1.080893	-1.027556
H	-2.040542	0.497348	-2.575483
C	0.537858	0.993184	-2.199414
H	1.561395	0.768925	-1.876744
H	0.434657	0.926739	-3.287291
H	0.278985	2.007235	-1.878844
N	-0.583369	-1.087147	0.76313
H	0.098404	-1.833048	0.797986
H	-1.401964	-1.436694	0.276921
N	-0.455837	1.30436	0.55893
H	0.394049	1.827888	0.743834
H	-0.850419	1.071763	1.46337
F	2.727117	0.0	0.0
