18

C	-0.055453	0.050617	-1.527699
C	0.0	0.0	0.0
Cl	-1.774063	0.396824	-2.144177
H	1.100045	0.0	0.0
N	0.80189	1.152652	-1.908648
H	1.679421	0.964922	-1.390756
H	1.002935	1.083961	-2.900691
C	0.383527	-1.273328	-2.125057
H	-0.283729	-2.087951	-1.852019
H	0.455459	-1.192544	-3.214862
H	1.375628	-1.452312	-1.699137
N	-0.59257	-1.212975	0.524311
H	-0.241254	-1.310088	1.46982
H	-1.59385	-1.057424	0.608123
N	-0.463442	1.213578	0.667149
H	-1.268109	1.580195	0.164983
H	0.270164	1.905532	0.572577
F	2.730914	0.0	0.0
