18

C	-0.437731	0.02734	-1.460416
C	0.0	0.0	0.0
Cl	0.115946	-1.626195	-2.213636
H	1.101472	0.0	0.0
N	-1.843786	0.155424	-1.58579
H	-2.276491	-0.554116	-1.003928
H	-2.140178	0.03762	-2.546618
C	0.371909	1.06823	-2.199765
H	1.416261	0.918492	-1.908518
H	0.249237	0.982552	-3.283367
H	0.039084	2.048991	-1.858645
N	-0.643268	-1.137299	0.696311
H	-0.341685	-1.064573	1.664371
H	-0.203041	-1.981997	0.34187
N	-0.399525	1.261997	0.60226
H	0.252445	1.463243	1.350849
H	-1.341695	1.191307	0.972575
F	2.725285	0.0	0.0
