17

C	0.0	0.0	0.0
C	-0.495231	0.156387	-1.4423
Cl	1.797987	0.0	0.0
H	-1.59242	0.14008	-1.347412
N	-0.469429	1.154609	0.72608
H	-1.4925	1.11916	0.674798
H	-0.215069	1.051959	1.703279
C	-0.434468	-1.341594	0.572558
H	-0.034632	-2.167334	-0.013741
H	-1.526245	-1.36753	0.559801
H	-0.080349	-1.420635	1.60444
N	-0.084569	-0.956405	-2.287393
H	0.873126	-0.819225	-2.588117
H	-0.673528	-0.980606	-3.110006
C	-0.099184	1.464694	-1.9991
N	0.206751	2.442763	-2.574782
Cl	-3.672102	0.0	0.0
