17

C	0.0	0.0	0.0
C	-0.345403	-0.026659	-1.52603
Cl	1.85376	0.0	0.0
H	0.513728	-0.577766	-1.947017
N	-0.338228	1.204577	0.627752
H	0.189383	1.96859	0.233382
H	-0.222089	1.172683	1.629832
C	-0.283803	-1.281703	0.773996
H	-1.325484	-1.521586	0.949709
H	0.182006	-2.104652	0.226279
H	0.247491	-1.235348	1.726868
N	-0.234974	1.350426	-2.028619
H	-0.037317	1.308012	-3.026582
H	-1.153423	1.78124	-1.911276
C	-1.475302	-0.729445	-2.200092
N	-2.319711	-1.095646	-2.949452
Cl	-3.266203	0.0	0.0
