17

C	0.0	0.0	0.0
C	-0.298813	-0.382156	-1.509408
Cl	1.792831	0.0	0.0
H	0.359427	0.267797	-2.101298
N	-0.513969	1.287973	0.357436
H	-0.3555	1.954093	-0.390486
H	-1.522017	1.187028	0.489722
C	-0.518331	-1.031901	0.978941
H	-1.607381	-1.090319	0.879066
H	-0.273158	-0.711853	1.993217
H	-0.080551	-2.012429	0.789422
N	-1.637807	-0.212328	-2.027175
H	-2.352663	-0.585268	-1.401682
H	-1.844753	0.777395	-2.080461
C	0.135562	-1.764663	-1.767247
N	0.451705	-2.878938	-1.956119
Cl	-4.030843	0.0	0.0
