12

C	0.0	0.0	0.0
C	-0.481509	-0.45222	-1.377401
Cl	1.784084	0.0	0.0
H	0.358457	-0.759178	-2.014223
H	-0.343515	1.007744	0.193932
H	-1.245404	-1.212393	-1.298502
C	-0.468945	-0.904473	1.048558
N	-0.552978	-1.712894	1.899219
N	-1.116139	0.663866	-2.134707
O	-1.850069	0.333057	-3.059995
O	-0.78078	1.817358	-1.885721
F	-2.353885	0.0	0.0
