12

C	0.0	0.0	0.0
C	-0.480763	0.070835	-1.446146
Cl	1.78223	0.0	0.0
H	-1.598097	0.067948	-1.322057
H	-0.386644	0.854652	0.541408
H	-0.068074	-0.720908	-2.063103
C	-0.456392	-1.240299	0.625067
N	-0.673507	-2.202103	1.267024
N	-0.03424	1.331338	-2.080892
O	-0.039678	2.361258	-1.407035
O	0.275838	1.281872	-3.272021
F	-2.577421	0.0	0.0
