12

C	0.0	0.0	0.0
C	-0.385558	-0.150517	-1.483857
Cl	1.771642	0.0	0.0
H	-0.561045	-1.202539	-1.761558
H	-0.3582	0.943975	0.392492
H	0.432503	0.271415	-2.103787
C	-0.455277	-1.113277	0.825344
N	-0.570747	-2.064664	1.5202
N	-1.543957	0.657039	-1.980027
O	-2.300331	0.116035	-2.786776
O	-1.514943	1.858696	-1.731971
F	-2.31334	0.0	0.0
