12

C	0.0	0.0	0.0
C	-0.461888	-0.070904	-1.447879
Cl	1.769905	0.0	0.0
H	-1.567503	-0.174895	-1.318888
H	-0.381887	0.936841	0.394478
H	-0.146336	0.827511	-1.976204
C	-0.479792	-1.08247	0.859594
N	-0.623684	-1.949715	1.638787
N	0.15947	-1.201338	-2.171517
O	-0.041796	-2.335468	-1.73917
O	0.835411	-0.946426	-3.173743
F	-2.516146	0.0	0.0
