13

C	0.0	0.0	0.0
C	-0.453225	-0.251012	-1.477778
Cl	1.777434	0.0	0.0
H	0.464701	-0.329837	-2.066676
H	-0.351937	-0.831398	0.606919
C	-0.425253	1.274253	0.574266
N	-0.600276	2.328082	1.062858
C	-1.148795	0.910735	-2.07691
N	-1.516052	1.81481	-2.732173
N	-1.119048	-1.536552	-1.565674
H	-1.283755	-1.745203	-2.544902
H	-2.030709	-1.40502	-1.115931
Cl	-3.254282	0.0	0.0
