13

C	0.0	0.0	0.0
C	-0.559627	0.099029	-1.429838
Cl	1.773091	0.0	0.0
H	-1.621584	-0.175923	-1.31825
H	-0.344372	-0.930639	0.453727
C	-0.440221	1.130343	0.817318
N	-0.658801	2.062789	1.496482
C	0.099108	-0.872419	-2.30125
N	0.593662	-1.64466	-3.035176
N	-0.376327	1.459053	-1.940877
H	-0.397254	1.446936	-2.953092
H	-1.184191	1.991929	-1.630368
Cl	-3.405144	0.0	0.0
