13

C	0.0	0.0	0.0
C	-0.452675	-0.632061	-1.355413
Cl	1.785946	0.0	0.0
H	0.463191	-0.839557	-1.915236
H	-0.350536	-0.635107	0.810584
C	-0.418527	1.384279	0.216442
N	-0.578191	2.530359	0.424079
C	-1.179264	0.316185	-2.230994
N	-1.557061	1.000908	-3.108682
N	-1.086866	-1.910094	-1.095306
H	-1.263894	-2.370607	-1.981739
H	-1.994806	-1.681751	-0.678891
Cl	-3.222433	0.0	0.0
