13

C	0.0	0.0	0.0
C	-0.457146	0.040297	-1.495894
Cl	1.777911	0.0	0.0
H	0.459608	0.081193	-2.09017
H	-0.354261	-0.932525	0.435046
C	-0.424776	1.138241	0.811847
N	-0.600105	2.080107	1.491708
C	-1.162564	1.291422	-1.853446
N	-1.55475	2.299899	-2.312487
N	-1.115677	-1.208992	-1.829857
H	-2.028101	-1.171245	-1.364304
H	-1.280827	-1.227562	-2.830925
Cl	-3.256286	0.0	0.0
