13

C	0.0	0.0	0.0
C	-0.489893	-0.182301	-1.471691
Cl	1.778136	0.0	0.0
H	0.390736	-0.486318	-2.046334
H	-0.325174	-0.885907	0.546788
C	-0.460342	1.214632	0.661885
N	-0.67813	2.247437	1.177633
C	-0.90086	1.110231	-2.068239
N	-1.16233	2.099747	-2.646675
N	-1.440351	-1.269746	-1.537837
H	-2.309866	-0.97782	-1.06422
H	-1.668431	-1.442403	-2.512157
Cl	-3.801973	0.0	0.0
