13

C	0.0	0.0	0.0
C	-0.454236	-0.150067	-1.487928
Cl	1.785691	0.0	0.0
H	0.462048	-0.173168	-2.084573
H	-0.346931	-0.87152	0.550985
C	-0.419539	1.234109	0.661831
N	-0.581149	2.256489	1.217059
C	-1.170762	1.039686	-2.001038
N	-1.555479	1.978	-2.595707
N	-1.10124	-1.436781	-1.661338
H	-2.014666	-1.346602	-1.205279
H	-1.265513	-1.585136	-2.651604
Cl	-3.237427	0.0	0.0
