13

C	0.0	0.0	0.0
C	-0.538427	0.129816	-1.446034
Cl	1.780754	0.0	0.0
H	-1.61847	-0.061268	-1.331535
H	-0.35203	-0.932627	0.443205
C	-0.424961	1.139832	0.813824
N	-0.605119	2.108675	1.452609
C	0.047496	-0.92325	-2.282018
N	0.504773	-1.766772	-2.959287
N	-0.365768	1.424822	-2.066262
H	-1.044415	2.06021	-1.66213
H	0.567596	1.786029	-1.901606
Cl	-3.359854	0.0	0.0
