15

C	0.0	0.0	0.0
C	-0.268584	-0.121304	-1.523526
Br	1.968031	0.0	0.0
H	0.47271	-0.787246	-1.962169
H	-0.190463	0.868488	-1.970016
C	-0.596309	1.248444	0.612803
H	-0.256859	2.130817	0.064394
H	-0.308865	1.339162	1.662225
H	-1.688548	1.147102	0.533424
C	-0.366671	-1.199937	0.752242
N	-0.594966	-2.143886	1.41447
N	-1.556857	-0.717375	-2.006471
O	-1.790839	-1.859725	-1.638826
O	-2.167217	-0.072354	-2.851057
Br	-4.01253	0.0	0.0
