15

C	0.0	0.0	0.0
C	-0.551798	-0.138314	-1.422001
Br	1.952962	0.0	0.0
H	-1.641416	0.012816	-1.353885
H	-0.312955	-1.113489	-1.840666
C	-0.494485	1.225482	0.759892
H	-0.153594	2.133216	0.266066
H	-1.587936	1.188134	0.764118
H	-0.114701	1.196519	1.782467
C	-0.370427	-1.227141	0.713436
N	-0.584145	-2.230295	1.287227
N	0.021584	0.860004	-2.360129
O	-0.157705	2.051479	-2.116131
O	0.633828	0.425539	-3.337053
Br	-3.810598	0.0	0.0
