14
Coordinates from ORCA-job run
  C   -0.65471826881762     -0.53613197319149      0.50315528019598
  C   0.26619313116235      0.24861160172641     -0.43825597607598
  Cl  -0.41307854101576     -2.32581423740838      0.14433741470861
  H   -0.04058459881373      0.01938170516380     -1.46670681253649
  H   -0.31951819909821     -0.42232011100702      1.53501082231980
  N   -1.99561580840899     -0.11023031440206      0.38510341893644
  H   -2.36439530608311     -0.27774093299756     -0.54270232891967
  H   -2.59659610729872     -0.55322314759239      1.06689462702928
  C   1.75179729976129     -0.08299498236292     -0.26866872658505
  H   1.94645951274034     -1.12178156500143     -0.53025073846075
  H   2.06141800058039      0.08508511575023      0.76534829579409
  H   2.35368165333235      0.55958657231162     -0.91275774689627
  C   0.05432529046092      1.68171602696360     -0.21086086847240
  N   -0.04836805850150      2.83685624204757     -0.02864666103760
