14
Coordinates from ORCA-job run
  C   -0.66336036552277     -0.83974114175680      0.04526074039173
  C   0.41623041550428      0.00208693832394     -0.64146538492567
  Cl  -1.84067235737372     -1.40162494033562     -1.24951484616390
  H   0.75216644101179     -0.54344053527997     -1.52799627592012
  H   -0.21139506989073     -1.76287672027414      0.41005254278737
  N   -1.26259853766838     -0.14325390738340      1.11927293593188
  H   -1.76730381513330      0.67521716363320      0.79813891823403
  H   -1.89245510042951     -0.73422933577442      1.64512071482457
  C   1.59933396370519      0.25323346576809      0.29850661107148
  H   1.27079566614481      0.79190361721048      1.18605385733320
  H   2.37165118544397      0.83347692826888     -0.20893806298582
  H   2.03301766436584     -0.70045326449879      0.60812315351175
  C   -0.16653352175093      1.26920311394690     -1.08913651007533
  N   -0.63787656840655      2.30049861815165     -1.39347839401517
