14
Coordinates from ORCA-job run
  C   -0.75425084585572     -0.78273348302822     -0.08602626271175
  C   0.40810734234792      0.02299836318148     -0.66941754474164
  Cl  -1.95247550528025     -1.10854094606731     -1.36496901481811
  H   0.81668523591697     -0.55172093407402     -1.50796655733570
  H   -0.36479103295034     -1.76874286691168      0.20122876936926
  N   -1.39572042373196     -0.04890526298806      0.98218388352761
  H   -2.31137113774531     -0.43622706075860      1.17291672083338
  H   -0.84338680276435     -0.12727786181189      1.82844829409255
  C   1.50327962121101      0.24599844143192      0.37902626260810
  H   1.14909679621695      0.90430636720382      1.17362757605462
  H   1.81645523165072     -0.70849125109445      0.81100683718426
  H   2.37578576836205      0.71447345771861     -0.07848150612205
  C   -0.06072842644418      1.30528624714040     -1.19867093092202
  N   -0.38568582093350      2.34157679005800     -1.64290652701851
