14
Coordinates from ORCA-job run
  C   -0.67190212541692     -0.52417127025423      0.48332981119446
  C   0.29062079645894      0.24116596045185     -0.43220665198012
  Cl  -0.39403331233694     -2.32143997454990      0.19247834947342
  H   0.03587940221643     -0.01547194468784     -1.46841629516779
  H   -0.39263555307193     -0.37582975640654      1.52736744719387
  N   -2.00876770532231     -0.11829912082314      0.28280893343205
  H   -2.63989068530081     -0.54559176704427      0.94699285383813
  H   -2.32758374638729     -0.31800119958696     -0.65696022320798
  C   1.76766014110655     -0.07700494797936     -0.18184064618737
  H   2.39756177531537      0.55704609255723     -0.80734763935991
  H   1.98184941256021     -1.11918793940255     -0.41245768546259
  H   2.02386966154607      0.11289341465266      0.86299670176360
  C   0.05743783732295      1.67791511324210     -0.25264385697707
  N   -0.11906589869032      2.82597733983096     -0.08310109855269
