14
Coordinates from ORCA-job run
  C   -0.66526602693088     -0.53419382381486      0.49151893858962
  C   0.27542130373702      0.24626492106265     -0.43346981276135
  Cl  -0.42434648294246     -2.32540443257211      0.13476071116911
  H   -0.01173627610943      0.01500876370425     -1.46711823574861
  H   -0.34740526201524     -0.42388107694629      1.52922878865317
  N   -2.00186873188746     -0.10300751830571      0.35108193006734
  H   -2.61708487889282     -0.54392296156906      1.02135891099579
  H   -2.35552247705207     -0.26414820636642     -0.58363665220731
  C   1.75644764941952     -0.08849650348066     -0.23396928627212
  H   1.95330201701924     -1.12838492351944     -0.48930719960788
  H   2.37257852920847      0.55115385950157     -0.86737001642872
  H   2.04594167856522      0.08088832546198      0.80561068999927
  C   0.06204553558140      1.68086451101285     -0.21580037446265
  N   -0.04150657770052      2.83725906583125     -0.04188839198567
