14
Coordinates from ORCA-job run
  C   -0.97510589246697     -0.43950134775914     -0.14005423842482
  C   0.41270521381362      0.03814601349483     -0.58558839400911
  Cl  -1.95506836286404      1.00361693265229      0.41817082014711
  H   0.89923582511006     -0.85523304854737     -0.99471773409081
  H   -1.52099599971136     -0.81179827152738     -1.00722496753398
  N   -0.86537833609539     -1.47466305567164      0.82534408405527
  H   -1.76221582386705     -1.91444361826969      0.98630875069486
  H   -0.52401628749642     -1.12101772342409      1.71003315354299
  C   1.27577579178934      0.59547527172667      0.54810168555346
  H   1.47011067249273     -0.17942006906915      1.29179199224905
  H   2.23822760953600      0.92577910301264      0.15512842097082
  H   0.78902360719954      1.44560467065244      1.02639816201117
  C   0.29405285784894      1.00706089297673     -1.67669034929887
  N   0.22464912471100      1.78039424975287     -2.55700138586715
