14
Coordinates from ORCA-job run
  C   -0.64947231828536     -0.62948912726742      0.40176809981323
  C   0.31423248426828      0.17288503967483     -0.48224779299648
  Cl  -0.33863780992874     -2.37486742076131      0.16411348520940
  H   0.13362852054339     -0.15005949374339     -1.51305362841937
  H   -0.41081573266729     -0.44018117517005      1.45674086408316
  N   -2.01384833315595     -0.36309879711957      0.01663119279153
  H   -2.24073782626183      0.60647667296050      0.21131988574199
  H   -2.64553021109082     -0.94900470485588      0.54910936280053
  C   1.78680203289888     -0.01181318396026     -0.11041333111845
  H   2.41801342304641      0.60836752193220     -0.74839770459798
  H   1.96059484865242      0.27846710890795      0.92817930083810
  H   2.08053699449324     -1.05308335713903     -0.23891247453058
  C   -0.05379769285109      1.58781862032174     -0.37958341899297
  N   -0.34196837966154      2.71958229621969     -0.25525384062211
