14
Coordinates from ORCA-job run
  C   -0.73610056576703     -0.89274406026899     -0.05220224991026
  C   0.38221130225280     -0.01752764792621     -0.65791990739586
  Cl  -1.83168425676616     -1.37900907854730     -1.38867861791324
  H   0.78638326822420     -0.53797254363086     -1.53210668039982
  H   -0.27786780906640     -1.81442199635785      0.31418278304728
  N   -1.50404990012774     -0.31614028345152      1.00544968304633
  H   -0.98717403029479     -0.28780934474429      1.87311581657049
  H   -1.85189040612261      0.60437936992378      0.76637358470229
  C   1.50118868559509      0.22865228091323      0.35792924657054
  H   1.91160736355784     -0.72442122219432      0.70107395824694
  H   2.30910995274310      0.80594736997346     -0.09396549843682
  H   1.13158985852865      0.78597131280074      1.22025232190016
  C   -0.18504338326676      1.25392473480065     -1.10883850311328
  N   -0.64828007949019      2.29117110870947     -1.40566593691474
