14
Coordinates from ORCA-job run
  C   -1.05041426373254     -0.43008618292249     -0.08761701553481
  C   0.33083355196721      0.09333465872617     -0.54854680873698
  Cl  -1.99980216700948      0.93020819628007      0.57989303725619
  H   0.84642019718753     -0.78192437102684     -0.96663644920215
  H   -1.59662437845655     -0.77655252682095     -0.96768842227576
  N   -1.02959935908926     -1.49715265172807      0.87263132961238
  H   -0.53097226529860     -1.23835756789641      1.71349730366384
  H   -0.62212268256440     -2.33332361529613      0.47289554422988
  C   1.19255024986690      0.68279531251693      0.56866575423616
  H   2.17061579382571      0.96451078741280      0.17634903505041
  H   1.34960214478557     -0.05284727012921      1.35962069786322
  H   0.72310205061821      1.56826911968852      0.99580716292947
  C   0.17069452849444      1.05181801296931     -1.64366655658848
  N   0.04471659940527      1.81930809822629     -2.52320461250336
