14
Coordinates from ORCA-job run
  C   -0.76178861849788     -0.78119180051793     -0.07159916851092
  C   0.38289264404083      0.02900702591738     -0.68341329021059
  Cl  -2.00314398906730     -1.08760793257549     -1.31362390942459
  H   0.76111830208146     -0.53838342511776     -1.54096381797712
  H   -0.36577033352333     -1.77194685111524      0.18898986614367
  N   -1.36618359426656     -0.05961559826508      1.02537477246538
  H   -2.26291996058241     -0.46707885027962      1.25990717692867
  H   -0.77196922175707     -0.12595780568024      1.84387598277907
  C   1.51414101103030      0.23803083049614      0.32940549225940
  H   1.83225161085422     -0.72090210147703      0.74835643336013
  H   2.37528003079941      0.69952975539647     -0.15620963080329
  H   1.19332008899143      0.89757107900880      1.13735467328461
  C   -0.09897481663400      1.31900917884520     -1.18098095162121
  N   -0.42925315346910      2.36953649536440     -1.58647362867320
