14
Coordinates from ORCA-job run
  C   -0.68085617764149     -0.69685681677814      0.39807185507847
  C   0.27765885824371      0.20520361832369     -0.41178169447979
  Cl  -0.48817263358184     -2.37310561076412     -0.21158076865202
  H   0.01065574813419      0.09685766835886     -1.47014038118417
  H   -0.35768567159130     -0.70929480871057      1.44202814175450
  N   -2.06911674127306     -0.34678328815956      0.35686034854302
  H   -2.23891777152573      0.50018526085308      0.88499752965180
  H   -2.39089769205472     -0.22153970282274     -0.59521952745439
  C   1.75964042250855     -0.12342885567717     -0.21579162648905
  H   2.38323597227496      0.58161050131647     -0.76765440407258
  H   1.97317669882731     -1.13043707303614     -0.57157404345690
  H   2.02591435720130     -0.05993821751084      0.84190536436884
  C   0.00937093459653      1.59109110723743     -0.01774155387664
  N   -0.21500630411842      2.68743621736975      0.33862076026890
