14
Coordinates from ORCA-job run
  C   -1.00577976538028     -0.38307318621766     -0.07286727313877
  C   0.36957834879977      0.02576092588484     -0.61466000714694
  Cl  -1.85981438076774      1.10227281637665      0.57564193095384
  H   0.77372899946830     -0.88485728586333     -1.07251934891766
  H   -1.63468325080719     -0.70997681470518     -0.90120392122376
  N   -0.88279201204489     -1.43850556887744      0.86843690079797
  H   -1.78798893745854     -1.83274956684759      1.08926664666443
  H   -0.45905513649523     -1.11891460942471      1.73014091870089
  C   1.34447206502064      0.51350856773025      0.45884511576481
  H   2.29173752448684      0.79872155415162     -0.00063595583172
  H   0.94255494563041      1.37948504410103      0.98509149693426
  H   1.55026525239274     -0.28488003071667      1.17397297552040
  C   0.22497026316589      1.01980822257268     -1.67977977781258
  N   0.13380608398927      1.81239993183552     -2.54072970126518
