14
Coordinates from ORCA-job run
  C   0.57193109040567     -0.39870675861466     -0.26886930381451
  C   -0.82145239685554     -0.07681504500610     -0.75691135140276
  Br  1.39722433348273     -1.59142143506555     -1.52331649177179
  H   -1.38628794604660     -1.00566228418977     -0.84151029783421
  H   -0.78244536999766      0.43131139825607     -1.71809249198119
  N   1.43779529466494      0.84906036795026     -0.13490777445130
  O   2.63203291793846      0.67885317641394      0.04319349921221
  O   0.83692579719075      1.91622253743568     -0.21205133144557
  N   0.52384687674175     -1.10510152782846      1.09988197898401
  O   1.22498519352097     -0.66376301763790      1.99124460692443
  O   -0.23092625261577     -2.06250889685109      1.13247307452241
  N   -1.59797215107412      0.80630998935699      0.17232413471556
  O   -1.32200893610239      0.75114765677522      1.36518797245428
  O   -2.48264845125321      1.47107383900537     -0.34764622411158
