14
Coordinates from ORCA-job run
  C   0.60790826416341     -0.39728477120063     -0.17517275853888
  C   -0.78503449498887     -0.27800995653436     -0.74851178983298
  Br  1.62443093726640     -1.58583478340981     -1.28516236534626
  H   -0.71328157699739      0.10489115604602     -1.76694445208138
  H   -1.28591381169502     -1.24375904740665     -0.74179437990409
  N   1.31704582746557      0.97077428461029     -0.16801998356113
  O   1.28659970496813      1.54582804363863     -1.24301522359620
  O   1.83197274292385      1.33756950904801      0.87176575849561
  N   0.60003882028176     -0.94160676161329      1.24884301194712
  O   -0.50070724672127     -0.98165399713262      1.78974719509302
  O   1.67346278912571     -1.27592043099991      1.72079427403642
  N   -1.66648657497921      0.67573818146762     -0.00011344700827
  O   -1.12242095829630      1.60278327265919      0.58863841991409
  O   -2.86761442251677      0.46648530082750     -0.09105425961706
