14
Coordinates from ORCA-job run
  C   0.60292488547022     -0.41247096617933     -0.15681107315685
  C   -0.71757979909740     -0.15673738336597     -0.84536188265450
  Br  1.58609070979899     -1.70052011572401     -1.18265367148898
  H   -0.55783547684576      0.26398910099075     -1.83585009981255
  H   -1.26373901058152     -1.09779810723129     -0.91664655788109
  N   1.44024061404557      0.85497370469674     -0.02776838701056
  O   0.85055848041060      1.90172726748664     -0.27758179925379
  O   2.60230171238325      0.71947202159902      0.31573710666355
  N   0.38271335436565     -0.99441759464339      1.25292615768319
  O   -0.36645750199871     -1.95641395606501      1.27606725775535
  O   0.96215146634717     -0.46434590329261      2.18250567496977
  N   -1.60984050631006      0.79418357946491     -0.10623193539594
  O   -1.48849729554951      0.84994190484431      1.11205213966982
  O   -2.42303163243849      1.39641644741923     -0.79238293008742
