14
Coordinates from ORCA-job run
  C   0.51185887864644     -0.25843159670700     -0.10770255182861
  C   -0.99973920848883     -0.21672424207714     -0.14642092941615
  Br  1.28144866709560     -0.48366202870668     -1.83068226830040
  H   -1.38737254544090     -0.03672935417702      0.85719598138657
  H   -1.40008561386584     -1.14063920200642     -0.55283617915861
  N   1.07401951413623      0.96802038690998      0.63593337429842
  O   1.94627547944680      1.63399196560217      0.11800806904550
  O   0.56585883578960      1.10719274333055      1.74126186200913
  N   0.96256931124268     -1.42956276758998      0.77617443476995
  O   2.12825660197338     -1.39899063837128      1.13610708237061
  O   0.12409965359268     -2.28600343878183      1.02247290387176
  N   -1.47644164773221      0.90183881343799     -1.01356485520834
  O   -2.42946900452961      0.65963260769906     -1.74483353551257
  O   -0.90027892186603      1.97906675143760     -0.89211338832725
