14
Coordinates from ORCA-job run
  C   0.38053807021567     -0.42668089214505     -0.11472654483672
  C   -1.02179864366744      0.08481627493537      0.13058243504922
  Br  0.55217303378571     -1.31673026675954     -1.78519497197421
  H   -1.05296911391809      0.62827940620443      1.07592763916308
  H   -1.73468240263739     -0.73425019835886      0.13482541344101
  N   1.41327629321499      0.70248639437130      0.06289208297309
  O   1.28820012135273      1.27406969342748      1.13843863033919
  O   2.23923647685692      0.89960632248938     -0.80404166024316
  N   0.75934935915241     -1.41460766588116      0.99664941580232
  O   1.94970862654594     -1.66483150024637      1.09569252128796
  O   -0.16017104530368     -1.86974107654067      1.66344368947208
  N   -1.43317839385335      1.03695550531097     -0.94342006492238
  O   -0.60102438350730      1.87001587897056     -1.29094927967288
  O   -2.58065799823712      0.93061212422217     -1.36011930587861
