14
Coordinates from ORCA-job run
  C   0.51714315195480     -0.06541788719997     -0.26117543500564
  C   -0.80625926734310      0.64243419207769     -0.07215987572938
  Br  0.77071276529795     -0.67753938848033     -2.04250510175497
  H   -0.92254299446421      0.92809546282294      0.97421586177610
  H   -0.87251640106506      1.51313796023140     -0.71758635293916
  N   1.65980357204537      0.89997608854512      0.08157379036275
  O   2.74838907221541      0.38153135350803      0.27005865113777
  O   1.38060578794429      2.09080533435360      0.11607393758919
  N   0.69106151129159     -1.18711876043363      0.78031687760913
  O   0.51676449009148     -0.78358181037334      1.92308737154703
  O   1.00433347072397     -2.30071419337160      0.41371598463029
  N   -1.94380228383537     -0.26205769980030     -0.41494973818732
  O   -1.87581123361709     -1.41585940035319     -0.00100787208696
  O   -2.86788164124004      0.23530874847359     -1.04765809894882
