14
Coordinates from ORCA-job run
  C   0.47462078414026     -0.25014660951599     -0.22854710653535
  C   -0.67013107163637      0.73770335797141     -0.27318846274940
  Br  0.47704299421311     -1.43423819531713     -1.71506849514111
  H   -0.61317575965813      1.35298430926946     -1.16603739571355
  H   -0.65453961546275      1.35744307915974      0.62436042184320
  N   1.80382994570991      0.51688667078490     -0.22470448665469
  O   1.76328534213529      1.68751360152229     -0.57829072676615
  O   2.78246672156535     -0.12711970582383      0.11696862402017
  N   0.50301803213189     -0.99342374738771      1.12015937794978
  O   0.49331382465646     -0.22115288199488      2.07024577420058
  O   0.56713395514519     -2.20509296200329      1.13474416840455
  N   -1.98255837563556      0.02567829740549     -0.29763142451429
  O   -2.83698613851758      0.47765810872976     -1.05070043239980
  O   -2.10832063878707     -0.92669332280021      0.46669016405608
