14
Coordinates from ORCA-job run
  C   0.40286129936069     -0.39829234581973     -0.13862052175517
  C   -1.01202144549500      0.00898916699270      0.20851255044973
  Br  0.51492247780635     -1.30255604903934     -1.80649012420930
  H   -1.65719789581864     -0.86160766465630      0.27791224382941
  H   -1.01344527649603      0.56619185343930      1.14629820947985
  N   1.35550979400237      0.80902366832849     -0.05485683912515
  O   2.09599717576999      1.05297039219090     -0.98471601132819
  O   1.26889562642350      1.38845534241066      1.02028179094269
  N   0.94070662422047     -1.33493310094714      0.95148935182941
  O   2.15104423250526     -1.49043519812709      0.96214194483214
  O   0.11269707605211     -1.84876305811445      1.69137421768571
  N   -1.57680089731755      0.90756419773203     -0.84206772567535
  O   -0.83931859057506      1.79234945718140     -1.26662914882726
  O   -2.74285020043847      0.71004333842858     -1.16262993812852
