14
Coordinates from ORCA-job run
  C   0.44826542428935     -0.33479473276276     -0.16420658821163
  C   -1.02686393243273     -0.09395291458335      0.06831137531376
  Br  0.83241793033873     -0.84448822285970     -1.95440434356875
  H   -1.18590714147674      0.24329860286648      1.09349065064331
  H   -1.60040566676210     -0.99364558252993     -0.13319986523143
  N   1.27983556262857      0.87664115556851      0.29775734694992
  O   2.10252419541607      1.35905237542497     -0.45265234020047
  O   1.01833447707188      1.20076198632613      1.44922644950958
  N   0.93001298268861     -1.45559022138350      0.76711227758775
  O   2.13932274138877     -1.53974551906406      0.90793631409552
  O   0.06629315477656     -2.16603146059854      1.26349819886931
  N   -1.53705378357427      0.97942926424070     -0.83598303698900
  O   -0.83157099033968      1.97607997900929     -0.96297470150476
  O   -2.63620495401302      0.79098529034578     -1.34391173726310
