14
Coordinates from ORCA-job run
  C   0.49075155647061     -0.21232405046568     -0.23253816303620
  C   -0.69456628863926      0.72739385831627     -0.23716469942225
  Br  0.58224610285368     -1.28124601906796     -1.80135970766633
  H   -0.72844907906492      1.27902667137573      0.70335713959864
  H   -0.64209295940649      1.40931074634331     -1.08051363191674
  N   1.78471596347501      0.60727218448243     -0.13488174513678
  O   2.78146835886771     -0.01884834074017      0.18729794010724
  O   1.70191759010397      1.79797454924850     -0.40415294244476
  N   0.51802058441162     -1.05213820504348      1.05837604039329
  O   0.63547789544592     -2.25777904544684      0.98568341925194
  O   0.45061326857858     -0.35377423947047      2.06190260062429
  N   -1.97386790962046     -0.03461520212002     -0.35084682296375
  O   -2.07763292946574     -1.04544152364579      0.33806520228960
  O   -2.82760215401024      0.43618861623415     -1.09322462967821
