14
Coordinates from ORCA-job run
  C   0.57787499950674     -0.39128923870409     -0.26816009753148
  C   -0.81550151892732     -0.07988366433976     -0.76306863357141
  Br  1.42295230500710     -1.56845943101487     -1.52368157692869
  H   -0.77521942292101      0.43551607642168     -1.72034501613987
  H   -1.37061920723632     -1.01354928734369     -0.85809623089659
  N   1.43052914436313      0.86401656828346     -0.11964822734521
  O   2.62607386041857      0.70482946523335      0.05957567064678
  O   0.81823211640599      1.92541864849962     -0.18606006811865
  N   0.52827642637342     -1.10608142642292      1.09601780301647
  O   -0.21716044724978     -2.07105570387658      1.11859639077210
  O   1.21987836651280     -0.66327187480784      1.99414751846909
  N   -1.60785231365953      0.78871966449405      0.16679302367891
  O   -2.49321478632096      1.45053714692688     -0.35576885906633
  O   -1.34324952227283      0.72455305665070      1.36169830301488
