14
Coordinates from ORCA-job run
  C   0.57245546090093     -0.38947412676086     -0.28121897259400
  C   -0.83244420269364     -0.08192171760930     -0.74500446013354
  Br  1.39508245901771     -1.55971467342878     -1.55800274899764
  H   -1.38685040352233     -1.01755127170209     -0.82444476647673
  H   -0.81641445072675      0.43137791826970     -1.70405831894868
  N   1.42374805855534      0.86879742293776     -0.14864340420422
  O   0.80790978145314      1.92846305849496     -0.20979128603378
  O   2.62237979738309      0.71312468530573      0.01223021141181
  N   0.55453916932677     -1.10894163197095      1.08151916602445
  O   1.26240916186011     -0.66615185131779      1.96685746095444
  O   -0.18657171245567     -2.07694648529112      1.11634026615242
  N   -1.60361697504358      0.78688761386627      0.20209797920954
  O   -2.49725668261066      1.45329524402727     -0.30008357119364
  O   -1.31436946144444      0.71875581517919      1.39120244482956
