14
Coordinates from ORCA-job run
  C   0.53411638668935     -0.47550614861192     -0.21609873791392
  C   -0.87812177943160     -0.18698488737119     -0.66962694729538
  Br  1.28730758905292     -1.80506229969505     -1.37498501242206
  H   -1.49488971018807     -1.07984332955827     -0.59254950266737
  H   -0.84973896773632      0.16660327814208     -1.70070443061185
  N   1.40951947341074      0.78893018193011     -0.30964310185877
  O   1.35583410470045      1.34474890435394     -1.39386954563623
  O   2.05895590544925      1.10346574334448      0.67030203377880
  N   0.58407599677125     -0.98989781472200      1.21867887523238
  O   1.64421108365920     -1.45191795577370      1.60529818169824
  O   -0.46008621770583     -0.87840175716082      1.85351129730354
  N   -1.56007456051527      0.88496258169953      0.12566208630124
  O   -2.78139232971616      0.83120979018426      0.14560958453717
  O   -0.85171697443992      1.74369371323855      0.63841521955422
