14
Coordinates from ORCA-job run
  C   0.59810093073320     -0.41478172375308     -0.16905698972171
  C   -0.73642419612184     -0.15616222862947     -0.82910852440856
  Br  1.55492629468102     -1.70819163014459     -1.21237290036459
  H   -0.59655794701336      0.26112416871169     -1.82403495082712
  H   -1.28705162439726     -1.09561432492105     -0.88530976062685
  N   1.44200703223976      0.85037637527856     -0.06121271002773
  O   0.85092075888964      1.89847650441538     -0.30188990293870
  O   2.61046286191557      0.71186195266792      0.25883248439023
  N   0.40633356499134     -0.99238209242873      1.24685276548556
  O   -0.34635379294994     -1.95111943066576      1.28827596937425
  O   1.00828526165785     -0.46314406754132      2.16246760941338
  N   -1.60869968197507      0.79990334300572     -0.07300802911775
  O   -1.45979032247259      0.85877573279925      1.14210372729599
  O   -2.43515914017833      1.40287742120549     -0.74253878792639
