14
Coordinates from ORCA-job run
  C   0.31546565592273     -0.22780573251825      0.43439476216219
  C   -0.87476238184372     -0.23193326557597     -0.49912223018900
  Br  -0.19215294616229     -0.23594860294175      2.26591333378543
  H   -1.48316714685603     -1.11776001478218     -0.34343680818085
  H   -0.53071717099207     -0.17736690434956     -1.53284500546271
  N   1.17064016422162     -1.47436772132801      0.16832136813578
  O   2.30127446340382     -1.44460578076230      0.62671049867088
  O   0.63911217842440     -2.38122320469512     -0.45798177236133
  N   1.27580447736347      0.92647348774196      0.09146666205379
  O   1.58982875461046      0.92529237609848     -1.09215833302975
  O   1.65182150001421      1.67382144124592      0.97047934064333
  N   -1.74157621640558      0.95976885208364     -0.25714388798949
  O   -1.17056289437924      2.03494143623429     -0.09826615917632
  O   -2.95200843732179      0.76971363354887     -0.27733176906195
