14
Coordinates from ORCA-job run
  C   0.53884572603775     -0.46758568894164     -0.22164865971109
  C   -0.87655844773411     -0.18814275697326     -0.67118289636541
  Br  1.30469946168365     -1.77595305345789     -1.39589823705737
  H   -0.85248742701399      0.17703356623205     -1.69829760373565
  H   -1.48405512807499     -1.08810802701011     -0.60329001455491
  N   1.40122122617607      0.80707184491968     -0.30141996062713
  O   2.04797835256710      1.11717280043524      0.68161750560240
  O   1.34156817895533      1.37377988531268     -1.37963838071238
  N   0.59516071443328     -0.99678548326246      1.20705694286032
  O   1.65998408810892     -1.45282712925930      1.58786995501076
  O   -0.44925827714166     -0.90163645762573      1.84418867424956
  N   -1.56899029991166      0.86766605521677      0.13637140815484
  O   -0.86951534579549      1.72917217396358      0.65659032573581
  O   -2.78959282229019      0.80014227045039      0.15768094115025
