14
Coordinates from ORCA-job run
  C   0.45839379338323     -0.32064111599112     -0.16607685480266
  C   -1.02916082622081     -0.09776974085928     -0.00552674900638
  Br  0.95581670777274     -0.66859330166956     -1.96690558609888
  H   -1.58597081189906     -0.97332543616961     -0.32566851414478
  H   -1.25378061913486      0.14314902018742      1.03433623248203
  N   1.25572983163947      0.84263498820306      0.45391878752901
  O   0.92321651974293      1.06091715055859      1.61202162499754
  O   2.12026145695665      1.39027702385416     -0.19824619378106
  N   0.88484653629134     -1.52043204241489      0.69039700816064
  O   2.08476647414581     -1.62816997636438      0.88514284027044
  O   -0.00765570032572     -2.26000313527915      1.08267911097246
  N   -1.48429354946707      1.05619901035826     -0.83717430106846
  O   -0.77432180329570      2.05773074336842     -0.82842588912452
  O   -2.54884800958896      0.91902681221808     -1.42847151638536
