14
Coordinates from ORCA-job run
  C   0.48778797209714     -0.23652373147192     -0.21621997785269
  C   -0.70284353484231      0.69183718261422     -0.31006030039740
  Br  0.55843284027924     -1.48279582979388     -1.64915010539334
  H   -0.67034306794170      1.26714009024587     -1.23043884031930
  H   -0.72177973779744      1.35281262839570      0.55744312010279
  N   1.77843003261297      0.59337232240194     -0.23740894473021
  O   1.68130961797873      1.74991211940224     -0.62520359425244
  O   2.78659265821019      0.00808608864566      0.12369517685220
  N   0.54225394664742     -0.91823160790296      1.16423107343955
  O   0.66247254423885     -2.12388397542090      1.23202178416659
  O   0.49073938001705     -0.10619647820330      2.07930154508003
  N   -1.97966727663045     -0.08284172275623     -0.30622680435278
  O   -2.06399125482235     -1.00524066472242      0.49954756048217
  O   -2.85039412004734      0.29255357856597     -1.08253169282515
