14
Coordinates from ORCA-job run
  C   0.50306322600066     -0.25272446557083     -0.15179294716508
  C   -0.66471918278259      0.67061612227362     -0.41972654415043
  Br  0.69342679141520     -1.59573518248564     -1.48307181157887
  H   -0.75875824879237      1.38859737108228      0.39616551983780
  H   -0.54032604133587      1.18289971878374     -1.36901500301895
  N   1.79860633866943      0.56980763619525     -0.11203065597424
  O   2.76042624005516      0.01283599137184      0.39182033226956
  O   1.75222514946823      1.69080514352290     -0.60017602984422
  N   0.42387502749428     -0.83660735163938      1.27115562786720
  O   0.52884794178483     -2.03468856621859      1.43315382017442
  O   0.29277591928956      0.03678661045086      2.11927315539782
  N   -1.94341823391422     -0.09777693446884     -0.48461002971407
  O   -2.11061959961842     -0.96494782666906      0.36814668847127
  O   -2.73540532773387      0.23013173337184     -1.36029212257221
