14
Coordinates from ORCA-job run
  C   0.46845492941347     -0.33337203945345     -0.09663204354780
  C   -1.02323132399937     -0.13345711561480      0.05463491721795
  Br  0.93706300732559     -1.10089086374732     -1.77102227351813
  H   -1.54764819594178     -1.08168892839246     -0.01534081640716
  H   -1.23278566764880      0.35334857280020      1.00811227296709
  N   1.22782540292238      0.97606293457478      0.18769496430212
  O   2.05356503750803      1.37380285285661     -0.60771432263672
  O   0.91164666897142      1.46575053033965      1.26453155561737
  N   0.96832685830144     -1.26654069422509      1.01508759516552
  O   0.12060345737902     -1.92871357967245      1.59817990038381
  O   2.17491405333404     -1.26854242431547      1.19780089800913
  N   -1.55049217098828      0.75555817764448     -1.02307867990766
  O   -0.88496336790228      1.75138609545712     -1.29253269005203
  O   -2.62427868867488      0.43629648174821     -1.51972127759350
