14
Coordinates from ORCA-job run
  C   0.57442693037785     -0.38746509556212     -0.28062276529030
  C   -0.83163245607614     -0.08614789119044     -0.74472768345349
  Br  1.39920780984809     -1.55981977749188     -1.55440817314915
  H   -0.81590533752083      0.42929170671137     -1.70269161393625
  H   -1.38209685805172     -1.02375683687289     -0.82748037349668
  N   1.42143919543809      0.87399468411645     -0.15285024595655
  O   0.80027058603399      1.93097152449545     -0.20607689980126
  O   2.62181632510113      0.72341910749287     -0.00063932601536
  N   0.56072273919434     -1.10093556500536      1.08459901274514
  O   -0.17676351442297     -2.07146241030368      1.12469498710313
  O   1.26804223028695     -0.65135015303041      1.96703875354822
  N   -1.60945705241958      0.77662820547270      0.20233899773630
  O   -2.51363379649986      1.42877678700627     -0.29982037772953
  O   -1.31543680128932      0.71785571416166      1.39064570769579
