14
Coordinates from ORCA-job run
  C   0.57400816473551     -0.39196975054226     -0.27468750095101
  C   -0.82809922428959     -0.08713022040981     -0.74871058667695
  Br  1.40001858372361     -1.57723135508716     -1.53565942293384
  H   -0.80489564180272      0.42160204178258     -1.71009987819707
  H   -1.38257305333533     -1.02263724685680     -0.82760798623285
  N   1.42610334402937      0.86547942013028     -0.15103665623710
  O   2.62406149865149      0.70954597694091      0.01558499770800
  O   0.81233434172664      1.92572878226541     -0.22293367857915
  N   0.54792349298813     -1.09749378214367      1.09558218252064
  O   -0.19670222059794     -2.06245782304350      1.13694086156064
  O   1.25350112142338     -0.64769245240816      1.97908217371518
  N   -1.60562633523804      0.78712275470127      0.18826481218627
  O   -1.31554095286804      0.73745664586843      1.37802590021033
  O   -2.50451311914647      1.43967700880249     -0.32274521809312
