17

C	0.0	0.0	0.0
C	-0.314284	0.383215	-1.456528
F	1.404424	0.0	0.0
H	0.449856	-0.15036	-2.044244
C	-0.455098	1.005872	0.966668
N	-0.533531	1.804853	1.82554
C	-0.354251	-1.416597	0.424507
H	0.094185	-1.578819	1.409673
H	0.089121	-2.116225	-0.286213
H	-1.437555	-1.487051	0.446962
N	-0.272483	1.813764	-1.599969
H	0.643264	2.132076	-1.302628
H	-0.421123	2.06865	-2.566975
N	-1.578868	-0.156952	-2.076219
O	-1.628859	-1.377125	-2.183512
O	-2.312105	0.632702	-2.656725
F	-2.460124	0.0	0.0
