17

C	0.0	0.0	0.0
C	-0.266137	-0.020568	-1.591514
F	1.384384	0.0	0.0
H	0.630626	0.45967	-2.003557
C	-0.462358	1.259238	0.591657
N	-0.592159	2.334194	1.049013
C	-0.348666	-1.256761	0.786442
H	-1.416334	-1.449686	0.74788
H	-0.01925	-1.092161	1.815347
H	0.242761	-2.076259	0.381443
N	-1.439424	0.526239	-2.173866
H	-1.42769	0.279557	-3.145326
H	-2.277095	0.212661	-1.626259
N	-0.014394	-1.501325	-1.985068
O	-0.990982	-2.24593	-2.075132
O	1.15844	-1.848275	-2.178111
F	-2.556179	0.0	0.0
