17

C	0.0	0.0	0.0
C	-0.319759	0.125653	-1.500863
F	1.39497	0.0	0.0
H	0.448604	-0.495201	-1.988718
C	-0.460055	1.157172	0.776814
N	-0.535843	2.094274	1.48339
C	-0.358094	-1.320945	0.66421
H	-1.441685	-1.386257	0.694524
H	0.088634	-2.134315	0.089582
H	0.08526	-1.307709	1.664936
N	-0.293489	1.508668	-1.889165
H	0.600429	1.901253	-1.618775
H	-0.414855	1.593632	-2.889148
N	-1.57795	-0.526401	-2.018548
O	-2.315104	0.140288	-2.732663
O	-1.617755	-1.747101	-1.907226
F	-2.461119	0.0	0.0
