17

C	0.0	0.0	0.0
C	-0.380687	0.381117	-1.466118
F	1.386452	0.0	0.0
H	0.515506	0.850592	-1.886134
C	-0.404795	1.104982	0.893427
N	-0.57459	1.953263	1.687186
C	-0.570838	-1.304139	0.499809
H	-1.663831	-1.191763	0.420253
H	-0.189515	-2.130205	-0.101368
H	-0.271695	-1.452525	1.539943
N	-1.530891	1.146775	-1.583349
H	-1.776905	1.285675	-2.553778
H	-2.326327	0.712306	-0.988695
N	-0.389349	-0.967345	-2.272192
O	-1.451502	-1.357393	-2.745081
O	0.695174	-1.539815	-2.403061
F	-3.05962	0.0	0.0
