17

C	0.0	0.0	0.0
C	-0.566942	0.021195	-1.413922
F	1.392517	0.0	0.0
H	-1.671934	0.079973	-1.205873
C	-0.391605	1.20406	0.766137
N	-0.518699	2.133173	1.471706
C	-0.478678	-1.239283	0.731617
H	-1.574158	-1.17337	0.710074
H	-0.083661	-1.220826	1.751379
H	-0.108847	-2.118324	0.202388
N	-0.158903	-1.131927	-2.145919
H	0.799538	-1.023608	-2.447637
H	-0.743708	-1.235338	-2.961612
N	-0.106167	1.305378	-2.092493
O	0.832147	1.231794	-2.895516
O	-0.695013	2.345848	-1.803922
F	-2.816109	0.0	0.0
