17

C	0.0	0.0	0.0
C	-0.386085	0.121835	-1.507841
F	1.386338	0.0	0.0
H	0.511098	0.50402	-2.0072
C	-0.401284	1.246475	0.686096
N	-0.576368	2.219422	1.320217
C	-0.577887	-1.190792	0.721783
H	-1.670712	-1.084281	0.619884
H	-0.282518	-1.154397	1.772761
H	-0.205566	-2.114066	0.275546
N	-1.529516	0.868155	-1.750714
H	-1.774981	0.850245	-2.730487
H	-2.327346	0.544467	-1.093067
N	-0.409284	-1.343955	-2.073305
O	-1.46964	-1.791423	-2.500102
O	0.668643	-1.944683	-2.086975
F	-3.063978	0.0	0.0
