13

C	-0.452751	0.118071	-1.445225
C	0.0	0.0	0.0
Cl	-0.215811	-1.385267	-2.382703
H	1.09507	0.0	0.0
H	0.161645	0.883954	-1.922728
H	-1.510508	0.374779	-1.529641
C	-0.553631	-1.166947	0.662684
N	-1.024827	-2.090344	1.218552
C	-0.377233	1.278253	0.752593
H	-1.457056	1.461266	0.768918
H	0.130438	2.123728	0.281616
H	-0.011744	1.21613	1.780209
H	2.757123	0.0	0.0
