13

C	-0.488426	-0.051542	-1.443593
C	0.0	0.0	0.0
Cl	-0.127952	1.455713	-2.345916
H	1.095703	0.0	0.0
H	0.028842	-0.856076	-1.967776
H	-1.569886	-0.195693	-1.508192
C	-0.45792	-1.230136	0.633442
N	-0.848833	-2.217365	1.140299
C	-0.471883	1.216605	0.791404
H	-0.019324	2.1133	0.367543
H	-1.561624	1.326036	0.788045
H	-0.12667	1.129096	1.82376
H	2.785815	0.0	0.0
