17

C	0.0	0.0	0.0
C	-0.457734	-0.11044	-1.449217
Cl	1.870965	0.0	0.0
H	-1.539746	-0.281812	-1.387297
H	0.019064	-0.993498	-1.888191
N	-0.473555	1.190627	0.587703
H	-0.32024	1.223757	1.585549
H	-0.114001	2.023032	0.14343
C	-0.452273	-1.193494	0.813541
H	-0.076544	-1.123556	1.83849
H	-0.081158	-2.120777	0.374632
H	-1.547139	-1.184614	0.818232
C	-0.190891	1.121021	-2.304681
H	-0.808417	1.957274	-1.971091
H	0.862051	1.412319	-2.282679
H	-0.463911	0.918878	-3.343177
Cl	-4.056767	0.0	0.0
