17

C	0.0	0.0	0.0
C	-0.280878	0.311132	-1.489982
Cl	1.807413	0.0	0.0
H	0.112721	1.319795	-1.650246
H	0.353025	-0.364375	-2.070967
N	-0.494792	1.073399	0.82564
H	-1.494889	1.145962	0.633644
H	-0.409691	0.808761	1.802027
C	-0.486532	-1.377747	0.413633
H	-0.139036	-1.613856	1.423724
H	-1.580906	-1.363204	0.409389
H	-0.125867	-2.151583	-0.267906
C	-1.7058	0.216938	-2.010821
H	-1.694176	0.424403	-3.085582
H	-2.143119	-0.768998	-1.861722
H	-2.394127	0.911721	-1.536744
Cl	-4.321491	0.0	0.0
