14
Coordinates from ORCA-job run
  C   0.64008058811725     -0.13854284917992      0.75321745654135
  C   -0.30993183047084     -0.33315616611221     -0.40116691844588
  Br  1.21980457157497     -1.84571196401809      1.41781690420454
  H   0.10984658971795     -0.89562324436241     -1.23009545056730
  H   0.18728478301724      0.42706174852277      1.56329382738865
  N   1.84350214018478      0.63697905436735      0.28363596197431
  O   2.44464277444021      1.26261785293157      1.14383207541482
  O   2.12135017975309      0.55529861328148     -0.90882811597676
  N   -0.78068325003924      0.99465246093572     -0.93793519088388
  O   -0.55582482194618      1.98855118976860     -0.25593962803272
  O   -1.37694192197402      0.93974957635943     -2.00575680873534
  N   -1.54843997085596     -1.03412986417739      0.07702021372649
  O   -2.12448569220488     -0.50322773416618      1.02203776063957
  O   -1.87020413931435     -2.05351867415072     -0.52013208724785
