14
Coordinates from ORCA-job run
  C   0.72631950150853      0.33086252115234      0.61694299692049
  C   -0.40110403640502      0.14273597546131     -0.38141584687044
  Br  0.38663262869770     -0.44476315826500      2.32343037359335
  H   -0.04045006187683      0.30090301168238     -1.39758290632615
  H   0.90380648290742      1.39727540929872      0.75443940520137
  N   2.01345435194855     -0.19967381269062     -0.02787443960911
  O   2.67578806000231     -1.04135525234371      0.54882826267135
  O   2.26398318255087      0.34070105014839     -1.09967684435568
  N   -1.53478237855326      1.10183885394944     -0.17663033292247
  O   -1.54488513475351      1.78250515958758      0.84288258140691
  O   -2.35553618742598      1.11148420855663     -1.08633222637793
  N   -0.92834921225203     -1.26675301623869     -0.32314477334461
  O   -2.06345790187658     -1.45666046470012      0.08259430037444
  O   -0.10141929447215     -2.09910048559866     -0.67546055036153
