14
Coordinates from ORCA-job run
  C   0.56507918269139      0.14588695476857      0.94433045915079
  C   -0.74595544851752     -0.00627893164757      0.19251943142737
  Br  0.74261894329248     -1.12664879798115      2.37460405755589
  H   -1.57829228570360     -0.06775650852181      0.89319894160558
  H   0.60462990001635      1.14023983644426      1.38619263842501
  N   1.78203513433349      0.04873176538258      0.05931961455472
  O   2.67299052760015      0.85200759856670      0.29446397025340
  O   1.78053402253459     -0.84180149388367     -0.78050593468184
  N   -0.85361782461798     -1.23020062364640     -0.69728969110928
  O   -0.96475099453213     -2.28410896625953     -0.09065407813879
  O   -0.84660160772456     -1.05113232099931     -1.90449820231984
  N   -0.99042613283854      1.18991013877147     -0.67662348861405
  O   -2.16478649536042      1.41770478128173     -0.93936702982465
  O   -0.00445692117369      1.81444656772413     -1.05669068828434
