14

C	0.0	0.0	0.0
C	-0.446209	0.92557	-1.203793
Cl	1.782224	0.0	0.0
H	0.452534	1.489678	-1.458492
H	-0.327105	0.501853	0.911838
C	-0.480959	-1.375453	0.011794
N	-0.756091	-2.515916	0.076925
N	-1.517351	1.818741	-1.057246
H	-2.37683	1.367761	-0.716968
H	-1.253514	2.597205	-0.471767
N	-0.635167	0.041709	-2.434373
O	-1.574485	0.25205	-3.183288
O	0.245683	-0.800644	-2.598408
Br	-3.979184	0.0	0.0
