13
Coordinates from ORCA-job run
  C   0.59960017488511      0.13853537975277     -0.27060742716120
  C   -0.92033080896774      0.05877996948429     -0.14825382789097
  F   1.02370951614695     -0.79815243768199     -1.21255254982202
  H   -1.35452747879703      0.03363669165437     -1.15060047301776
  H   -1.29417927108165      0.90702175082493      0.41893920652445
  C   1.25402963129373     -0.19879745648176      1.00884519279005
  N   1.76726749828761     -0.44961233340424      2.03395557456224
  N   0.94905668706873      1.46484957268431     -0.63469354424390
  H   1.95444553780498      1.57855420626535     -0.67135308085488
  H   0.55395033280432      1.70114485774772     -1.53751959228055
  N   -1.38629138949741     -1.17504969585485      0.55307318323593
  O   -2.27818555022699     -1.02372339833423      1.38314760145998
  O   -0.86654487972060     -2.23718710665667      0.22761973669863
