13
Coordinates from ORCA-job run
  C   0.65524520657506      0.10431490472264     -0.15277056579492
  C   -0.51570320467036     -0.70908771035651      0.39857680141031
  F   0.63710556109406     -0.10033929525551     -1.54855728319807
  H   -0.66513578625451     -0.48865563591863      1.45558161771778
  H   -0.35030536147131     -1.77048201773843      0.23355365392381
  C   1.91080114791862     -0.50291611759720      0.33444428441499
  N   2.89625861835629     -1.00050893703501      0.73306116074399
  N   0.61424452208524      1.45856199262325      0.21870904711112
  H   1.39259822651413      1.97434372484280     -0.17068246393228
  H   -0.27125312729541      1.87857898663244     -0.03215782858268
  N   -1.78071538001822     -0.36782514897809     -0.31824139047743
  O   -2.10726514464536      0.81801336401825     -0.34278292933476
  O   -2.41387527818823     -1.29499810996001     -0.80773410400185
