17
Coordinates from ORCA-job run
  C   0.72121132168460     -0.45801930695782     -0.32571547271263
  C   -0.66520792000016      0.18663914359108     -0.37220414941776
  F   0.82682142383562     -1.27102003855241     -1.44905067371695
  H   -0.69785972024921      0.83055168122399     -1.25291560728168
  C   0.91309079790418     -1.29647899032845      0.86999663522865
  N   1.15223570651551     -1.90069303173296      1.84799515714034
  C   1.82554972905352      0.58273671596689     -0.40096369567788
  H   2.78490047031341      0.06991778547121     -0.48039321129105
  H   1.68101579597375      1.20044029451455     -1.28953414632806
  H   1.84122468465293      1.21391354600878      0.48793756975053
  C   -1.05961569579944      0.92109304114554      0.89483442204110
  H   -1.04266153754391      0.24542820890931      1.75082025347789
  H   -0.38283795971460      1.75591750229345      1.08219896791470
  H   -2.06812889623696      1.32448721795449      0.78630690166764
  N   -1.68570904019597     -0.87827704201568     -0.65265231335298
  O   -2.36251374100391     -0.74577721054401     -1.66827257911138
  O   -1.77951541918937     -1.78385951694797      0.17061194166953
