17
Coordinates from ORCA-job run
  C   0.82091635260328      0.20163851967520      0.02860971769969
  C   -0.65335250083157     -0.10256070231520     -0.29549325409814
  F   0.88565548715438      1.33039670184576      0.83130110383136
  H   -0.67925066655594     -0.88279501630418     -1.05861734743176
  C   1.48206434470574      0.52348088873889     -1.25027933452622
  N   2.00083051997448      0.75398775488158     -2.27825424439065
  C   1.54501558236290     -0.92710714626879      0.73780852030291
  H   1.47218251422738     -1.85619063429032      0.17079283723391
  H   2.59451245788521     -0.65841571871194      0.86108443150719
  H   1.10340988481972     -1.07342057339640      1.72443917001702
  C   -1.44179797329151      1.12446629060336     -0.70383357671330
  H   -1.01089892299485      1.55451286889928     -1.61012658176430
  H   -1.42386087445690      1.86735658555502      0.09049143232654
  H   -2.47756888049982      0.85078565769611     -0.91194323855363
  N   -1.26662827361181     -0.74029905194672      0.91596733200322
  O   -1.58784309016734      0.00006431537261      1.84155583080179
  O   -1.36438596132334     -1.96690074003428      0.90549720175437
