17
Coordinates from ORCA-job run
  C   0.79483661577404     -0.26914286981133     -0.46536826839459
  C   -0.72865344402680     -0.02594975805198     -0.47242280940222
  F   1.26117296335099      0.38739818694352     -1.60412973767443
  H   -1.09998907213599     -0.39500676269912     -1.42971841671754
  C   1.06728082031419     -1.70666572999067     -0.64534506315541
  N   1.29765004441536     -2.85129184830463     -0.77196408052091
  C   1.54768226198530      0.27089534692495      0.73192347489664
  H   1.40755188375288      1.34993708294865      0.79622965516788
  H   1.19969375596224     -0.19362847844160      1.65363519298146
  H   2.61057609430328      0.06395043924071      0.60023235687913
  C   -1.11430528488761      1.42055812660929     -0.24366709246397
  H   -0.87983479435908      1.73506529307291      0.77183408324462
  H   -2.18664128905143      1.54557742475868     -0.40495077353211
  H   -0.58291676947794      2.05289060568463     -0.95577609657696
  N   -1.37335047222466     -0.90714920903099      0.55674593621359
  O   -1.96022911021743     -1.90599326032955      0.14681735666885
  O   -1.25952420347734     -0.57144458952348      1.73492428238595
