17
Coordinates from ORCA-job run
  C   0.81590599205492     -0.25702587435651     -0.43499918773647
  C   -0.70830713567516     -0.02825532287313     -0.50236368504846
  F   1.32220215376330      0.41494660887499     -1.54752253931255
  H   -1.03686697241012     -0.39293481726673     -1.47678295693799
  C   1.10962440913800     -1.69008087570035     -0.61637037706109
  N   1.35644351542372     -2.83129628853632     -0.74243978204513
  C   1.51387596378171      0.27845469782527      0.79711253048400
  H   1.13507154763198     -0.20012873165959      1.69924998310547
  H   2.58349622624166      0.08517486497818      0.70512043142499
  H   1.35887243597281      1.35508209244173      0.86762293144746
  C   -1.11812357354945      1.41185654340575     -0.27675937798127
  H   -0.92650295043092      1.71994341659058      0.74966714182896
  H   -0.56684522606110      2.05650415160138     -0.96234773625423
  H   -2.18493903521821      1.52626151678043     -0.47816002137763
  N   -1.38539579798410     -0.92499313395287      0.49247657915026
  O   -1.94534134692840     -1.92561864835566      0.05053115231443
  O   -1.32417020575062     -0.59789019979715      1.67696491399925
