14

C	0.0	0.0	0.0
C	-0.487891	-0.035505	-1.442361
F	1.409229	0.0	0.0
H	-0.296879	0.909959	-1.942875
H	-1.561521	-0.275516	-1.425245
C	-0.355565	1.300045	0.611115
N	-0.489536	2.358011	1.101651
N	-0.499035	-1.055194	0.766048
H	-0.371468	-1.951121	0.322348
H	-0.189626	-1.029424	1.724751
N	0.26886	-1.061883	-2.208246
O	0.287772	-2.211521	-1.767698
O	0.822646	-0.703797	-3.245922
Br	-3.769631	0.0	0.0
