14

C	0.0	0.0	0.0
C	-0.138785	-0.217486	-1.528616
F	1.412512	0.0	0.0
H	0.564358	0.465631	-1.999787
H	0.160957	-1.248763	-1.715565
C	-0.357953	1.364945	0.429785
N	-0.500717	2.471135	0.797097
N	-0.553074	-1.010708	0.80344
H	-1.222285	-0.61893	1.455612
H	-1.100473	-1.645149	0.234112
N	-1.420181	0.002511	-2.248251
O	-1.730275	1.170764	-2.454433
O	-1.988865	-0.99524	-2.682316
Br	-3.702305	0.0	0.0
