14

C	0.0	0.0	0.0
C	-0.507677	-0.636332	-1.27568
F	1.41951	0.0	0.0
H	-1.59631	-0.489222	-1.327011
H	-0.279792	-1.699534	-1.252182
C	-0.328491	1.444974	0.125752
N	-0.506569	2.583496	0.35194
N	-0.468836	-0.792763	1.088049
H	-0.252651	-0.316452	1.95693
H	-1.492632	-0.826671	1.009002
N	0.096139	-0.092668	-2.516804
O	0.116417	-0.85588	-3.481731
O	0.497501	1.067975	-2.523539
Br	-3.653705	0.0	0.0
