14

C	0.0	0.0	0.0
C	-0.443449	0.021312	-1.471666
F	1.381542	0.0	0.0
H	-1.5283	-0.137792	-1.49567
H	-0.168738	0.955754	-1.957263
C	-0.391571	1.306245	0.589363
N	-0.527687	2.384071	1.033829
N	-0.473225	-1.054407	0.826425
H	-1.478288	-0.904447	0.952149
H	-0.356303	-1.925137	0.320997
N	0.225857	-1.049569	-2.254313
O	0.701141	-0.737819	-3.345156
O	0.249267	-2.187486	-1.782637
Br	-3.620961	0.0	0.0
