14

C	0.0	0.0	0.0
C	-0.51155	-0.118495	-1.42296
F	1.393995	0.0	0.0
H	-0.323901	-1.122559	-1.800183
H	-1.59572	0.078265	-1.396238
C	-0.397063	1.249539	0.681016
N	-0.560924	2.22101	1.318315
N	-0.495923	-1.116231	0.714485
H	0.061609	-1.940084	0.543186
H	-0.657285	-0.948708	1.693916
N	0.160065	0.817583	-2.356383
O	0.338859	1.97219	-1.976072
O	0.47497	0.382141	-3.464459
Br	-3.759329	0.0	0.0
