17

C	0.0	0.0	0.0
C	-0.560484	-0.018193	-1.423107
Cl	1.83878	0.0	0.0
H	-1.659347	0.020673	-1.202921
N	-0.358767	1.294753	0.532421
H	0.108191	1.424816	1.421288
H	-0.053769	2.010393	-0.117043
N	-0.541857	-1.091818	0.720265
H	-0.303009	-0.973429	1.700431
H	-1.575282	-0.872329	0.604093
N	-0.256661	-1.35274	-2.075711
O	0.75888	-1.421975	-2.778857
O	-1.041315	-2.278475	-1.90294
N	-0.070192	1.073107	-2.204005
H	-0.684355	1.225084	-2.993446
H	0.85586	0.847499	-2.547775
F	-2.874959	0.0	0.0
