17

C	0.0	0.0	0.0
C	-0.449754	0.290026	-1.437124
Cl	1.974813	0.0	0.0
H	-1.556091	0.222643	-1.273196
N	-0.344914	1.122012	0.757017
H	0.066966	1.97142	0.414053
H	-0.185007	0.941049	1.735106
N	-0.532779	-1.138099	0.627654
H	-1.569201	-0.875408	0.554516
H	-0.371061	-1.944953	0.042824
N	-0.043226	-0.817023	-2.400316
O	0.484028	-0.484555	-3.462406
O	-0.302148	-1.982474	-2.103828
N	-0.021399	1.567532	-1.895703
H	-0.572009	1.846829	-2.695632
H	0.949609	1.517586	-2.179706
F	-2.815219	0.0	0.0
