17

C	0.0	0.0	0.0
C	-0.237457	0.010181	-1.539335
Cl	1.893367	0.0	0.0
H	0.262598	-0.878758	-1.927359
N	-0.455156	1.16875	0.627908
H	-0.527354	1.078283	1.629184
H	0.009685	2.007867	0.321482
N	-0.588843	-1.193278	0.503721
H	-0.357161	-1.283962	1.488392
H	-1.609365	-0.970239	0.425035
N	0.575482	1.140701	-2.215441
O	0.524311	2.282303	-1.760872
O	1.14672	0.843545	-3.264171
N	-1.570286	0.16729	-1.952169
H	-1.844468	-0.60818	-2.536278
H	-2.265746	0.249666	-1.13534
F	-3.113636	0.0	0.0
