17

C	0.0	0.0	0.0
C	-0.483357	-0.083275	-1.476667
Cl	1.797149	0.0	0.0
H	-1.575241	-0.110954	-1.373327
N	-0.495688	1.280037	0.460709
H	-1.521783	1.090368	0.441058
H	-0.209018	1.39575	1.428563
N	-0.465977	-1.176396	0.685981
H	-1.493776	-1.062972	0.598312
H	-0.220783	-1.085231	1.668021
N	-0.072177	-1.379494	-2.098036
O	-0.862103	-2.318802	-2.04574
O	1.032083	-1.42381	-2.643919
N	-0.048375	0.977916	-2.34483
H	-0.390876	1.830787	-1.917058
H	0.965001	1.016217	-2.314848
F	-2.82019	0.0	0.0
