17

C	0.0	0.0	0.0
C	-0.304878	0.281322	-1.541916
Cl	1.795525	0.0	0.0
H	0.534781	-0.13813	-2.091811
N	-0.503616	1.060139	0.824529
H	-0.294062	0.832004	1.792338
H	-1.527298	0.968793	0.691259
N	-0.489332	-1.338222	0.24616
H	-0.195577	-1.611929	1.180032
H	-1.511775	-1.177402	0.265927
N	-0.186907	1.770235	-1.77276
O	0.921543	2.208203	-2.089068
O	-1.197671	2.449781	-1.645268
N	-1.52323	-0.162873	-2.129812
H	-2.285164	-0.015809	-1.437781
H	-1.426782	-1.162798	-2.258701
F	-2.925632	0.0	0.0
