17

C	0.0	0.0	0.0
C	-0.306902	-0.185438	-1.552591
Cl	1.82643	0.0	0.0
H	0.583949	-0.566734	-2.050905
N	-0.520712	1.255096	0.440773
H	-1.542857	1.12069	0.321011
H	-0.338995	1.303253	1.438797
N	-0.469974	-1.080532	0.81085
H	-1.493006	-0.957659	0.761742
H	-0.247096	-1.963929	0.362824
N	-0.409995	1.221915	-2.182645
O	-1.526518	1.66357	-2.439201
O	0.649025	1.793848	-2.435059
N	-1.419576	-1.011018	-1.803729
H	-2.22464	-0.660132	-1.239895
H	-1.631888	-1.017225	-2.79236
F	-2.919867	0.0	0.0
