17

C	0.0	0.0	0.0
C	-0.282249	0.188697	-1.562732
Cl	1.790166	0.0	0.0
H	0.506513	-0.358547	-2.078083
N	-0.513832	1.093863	0.759581
H	-1.530757	1.046451	0.58063
H	-0.383915	0.837811	1.733814
N	-0.502556	-1.258512	0.482149
H	-1.525421	-1.117991	0.427446
H	-0.228742	-2.013448	-0.140081
N	-0.016257	1.628622	-1.949068
O	-0.905144	2.444018	-1.734896
O	1.059379	1.883417	-2.499284
N	-1.548165	-0.166607	-2.114852
H	-2.288249	-0.005221	-1.394684
H	-1.531791	-1.160481	-2.303943
F	-2.959848	0.0	0.0
