15

C	0.0	0.0	0.0
C	-0.230645	0.055577	-1.54155
F	1.355124	0.0	0.0
H	0.524687	0.789043	-1.850846
H	-0.437684	-0.833183	0.525816
N	-0.405143	1.245332	0.717139
O	-0.276431	2.308147	0.107738
O	-0.666285	1.142889	1.907925
C	-1.521968	0.423607	-2.268372
H	-1.263891	0.53918	-3.330119
H	-2.280129	-0.332601	-2.106831
H	-1.913021	1.356125	-1.87506
C	0.250857	-1.247511	-2.035435
N	0.611327	-2.290901	-2.437626
F	-2.363031	0.0	0.0
