15

C	0.0	0.0	0.0
C	-0.420016	0.221997	-1.469502
F	1.354436	0.0	0.0
H	0.527999	0.172301	-2.027981
H	-0.377265	-0.926403	0.40983
N	-0.370463	1.046766	1.00739
O	-0.573488	0.650452	2.149914
O	-0.265691	2.228305	0.683605
C	-1.124888	1.52276	-1.871574
H	-0.470029	2.381214	-1.721577
H	-1.385919	1.456121	-2.932486
H	-2.020436	1.59043	-1.261261
C	-1.202884	-0.930008	-1.928396
N	-1.656589	-1.864607	-2.477745
F	-2.346951	0.0	0.0
