15

C	0.0	0.0	0.0
C	-0.254411	0.060807	-1.539928
F	1.355045	0.0	0.0
H	0.567956	0.701741	-1.881768
H	-0.426688	-0.839674	0.524867
N	-0.406252	1.237254	0.722005
O	-0.524809	1.142124	1.93842
O	-0.4087	2.292839	0.090764
C	-1.520543	0.568171	-2.230623
H	-2.353133	-0.082603	-2.002074
H	-1.297539	0.629104	-3.304704
H	-1.764783	1.553247	-1.845067
C	0.072861	-1.283446	-2.031797
N	0.318851	-2.357474	-2.438403
F	-2.347336	0.0	0.0
