15

C	0.0	0.0	0.0
C	-0.500109	0.166329	-1.427923
F	1.355414	0.0	0.0
H	-1.557796	0.460305	-1.286388
H	-0.407255	-0.890798	0.46523
N	-0.369029	1.133805	0.887387
O	-0.628566	0.866873	2.056638
O	-0.253636	2.259194	0.404295
C	-0.506014	-1.198551	-2.11342
H	0.497302	-1.639884	-2.153247
H	-0.896785	-1.09378	-3.128556
H	-1.192055	-1.833216	-1.550429
C	0.313265	1.094907	-2.207178
N	0.928258	1.78026	-2.934498
F	-2.583371	0.0	0.0
