15

C	0.0	0.0	0.0
C	-0.321151	-0.027414	-1.526848
F	1.355083	0.0	0.0
H	0.629651	0.269134	-1.983852
H	-0.408743	-0.819245	0.571922
N	-0.37664	1.256017	0.716084
O	-0.585324	1.154361	1.920259
O	-0.26599	2.316501	0.099897
C	-1.418005	0.8089	-2.194358
H	-1.284158	1.854398	-1.93688
H	-2.36704	0.470484	-1.798353
H	-1.322963	0.687574	-3.28115
C	-0.488977	-1.441709	-1.876285
N	-0.559183	-2.567271	-2.203734
F	-2.360159	0.0	0.0
