16

C	0.0	0.0	0.0
C	-0.523307	0.119597	-1.443821
Br	1.958598	0.0	0.0
H	-1.616562	0.010851	-1.327586
C	-0.342768	1.217666	0.7635
N	-0.560354	2.187795	1.392037
N	-0.484022	-1.222817	0.565551
H	-0.222663	-1.280237	1.544186
H	-1.510331	-1.176047	0.511096
C	-0.028171	-0.995425	-2.248168
N	0.337625	-1.845889	-2.971482
C	-0.233686	1.45781	-2.118631
H	-0.657442	1.451719	-3.124781
H	0.839724	1.64639	-2.192031
H	-0.708288	2.263249	-1.55507
Br	-3.65469	0.0	0.0
