16

C	0.0	0.0	0.0
C	-0.367124	-0.123851	-1.550784
Br	1.951903	0.0	0.0
H	0.56367	0.048631	-2.101351
C	-0.354801	1.339012	0.491812
N	-0.520712	2.439193	0.871852
N	-0.498285	-0.979429	0.908005
H	-1.517654	-0.830052	0.942409
H	-0.319144	-1.906922	0.540685
C	-1.250256	0.924337	-2.075437
N	-1.781294	1.773727	-2.692354
C	-0.864303	-1.52022	-1.911978
H	-1.019953	-1.574701	-2.992357
H	-0.110379	-2.268139	-1.645804
H	-1.809146	-1.723079	-1.408069
Br	-3.526374	0.0	0.0
