16

C	0.0	0.0	0.0
C	-0.497428	-0.412046	-1.410708
Br	1.966595	0.0	0.0
H	-1.595035	-0.4279	-1.277826
C	-0.364801	1.40334	0.252791
N	-0.590586	2.535556	0.470175
N	-0.476615	-0.813649	1.076183
H	-0.275793	-1.787254	0.866859
H	-1.497259	-0.691669	1.093926
C	-0.056186	-1.773858	-1.695131
N	0.290106	-2.870232	-1.939882
C	-0.136847	0.544393	-2.543123
H	-0.582884	0.190241	-3.47462
H	-0.544652	1.533198	-2.326354
H	0.943942	0.619999	-2.676315
Br	-3.644171	0.0	0.0
