16

C	0.0	0.0	0.0
C	-0.353628	-0.219722	-1.541042
Br	2.011095	0.0	0.0
H	0.589193	-0.176576	-2.088601
C	-0.324393	1.364171	0.435072
N	-0.457215	2.481249	0.776926
N	-0.47589	-0.936705	0.956847
H	-1.489301	-0.773971	1.032461
H	-0.32617	-1.878309	0.61352
C	-1.145431	0.865894	-2.127701
N	-1.616735	1.748555	-2.744328
C	-0.968044	-1.592062	-1.807211
H	-1.915012	-1.687446	-1.278859
H	-0.268188	-2.381287	-1.512881
H	-1.155229	-1.693869	-2.879596
Br	-3.536524	0.0	0.0
