19
Coordinates from ORCA-job run
  C   -0.67796632274961      0.14147359108784      0.06133550400951
  C   0.81868493195313     -0.16409975694841     -0.12540788976959
  F   -0.82717937783709      1.53099815243486      0.14583965857327
  H   0.92076539246284     -1.21204292362587     -0.41384083291660
  C   -1.24108393026983     -0.44576888531090      1.34115033745786
  H   -1.07341305359328     -1.52339708974412      1.38967459865389
  H   -2.31383276935755     -0.24976450805091      1.38407394809822
  H   -0.77567147059191      0.02033532222302      2.21066564567487
  C   -1.45856047517613     -0.31790380622266     -1.15771360344104
  H   -2.50316449883738     -0.02387676353576     -1.04014544954807
  H   -1.41311184806117     -1.40397759942541     -1.26397353826532
  H   -1.07975938392993      0.14526755335402     -2.06949965864145
  N   1.50040822309246     -0.08981356231004      1.20854361577387
  O   1.71725478390745     -1.15583215764368      1.78504319376145
  O   1.75561193968561      1.02650216608492      1.65345117072520
  C   1.52823975058413      0.76120018752312     -1.09559058003481
  H   1.10167880375150      0.66198229927890     -2.09426629986740
  H   1.43248070720228      1.79349111784832     -0.76739633622983
  H   2.58761859776448      0.50322666298274     -1.15294348401404
