19
Coordinates from ORCA-job run
  C   -0.62580920403132     -0.46385168249045     -0.13668955134053
  C   0.90112461323658     -0.28069544001051     -0.03030863568089
  F   -0.76154364619628     -1.48786215234958     -1.09353343523989
  H   1.31720374127564     -1.26530230250274      0.18909223191894
  C   -1.36647681051966      0.74372074176545     -0.66836670212217
  H   -2.43437611589417      0.51972757959329     -0.70676541899232
  H   -1.03477008398911      0.98441442968821     -1.67872846722781
  H   -1.20793589091534      1.61259667382947     -0.02905887446014
  C   -1.21800164200156     -0.98336560417330      1.15792730152101
  H   -1.22552816536570     -0.21045190415453      1.92878801599578
  H   -2.24696292710916     -1.29740913478790      0.97324619553850
  H   -0.65177908152108     -1.83943324455084      1.52937978162344
  N   1.20935830976113      0.53606409311543      1.18616726207460
  O   1.58739150712493     -0.06860468051800      2.18893223851496
  O   1.03820912829690      1.75290407003102      1.11412535082680
  C   1.55550125407690      0.33016878596144     -1.25191686152930
  H   1.25402385439442      1.36804860201024     -1.38374299718074
  H   2.64269025147218      0.29482473758294     -1.15551834606259
  H   1.26768090790470     -0.24649356803964     -2.13202908817766
