19
Coordinates from ORCA-job run
  C   -0.65068959720217     -0.19720576792966      0.44358578050360
  C   0.87797799449791     -0.13601747885727      0.32979938181170
  F   -0.91852170201571     -0.24724757050345      1.82081044769180
  H   1.27338206694200     -0.97286955402574      0.90907652432795
  C   -1.16151731363418     -1.49806837292648     -0.15003549975119
  H   -2.20583817744616     -1.62511605080450      0.14120864774353
  H   -1.10726425421464     -1.49191813753224     -1.23962464440829
  H   -0.59445414435800     -2.34979678789869      0.23274815987840
  C   -1.39197361881240      1.00463889074690     -0.10550955433908
  H   -1.20504227088512      1.13868745121177     -1.17204191630550
  H   -1.10196324903948      1.91592611641638      0.41507958820652
  H   -2.46233941678542      0.84542056817977      0.04033038410799
  N   1.38116116768414      1.07368360449334      1.06163835570191
  O   1.31721318178968      2.15411423728040      0.47480695769057
  O   1.81640479130789      0.90311733044180      2.19739922375396
  C   1.42272342768611     -0.12825402172771     -1.08552041244107
  H   2.51064734717461     -0.03916992447192     -1.06503393839301
  H   1.17283894749825     -1.06153568232710     -1.59144899206892
  H   1.02725481981269      0.71061115023442     -1.65626849371088
