19
Coordinates from ORCA-job run
  C   -0.64065082325452     -0.23134243753590      0.44275704665752
  C   0.88467529791334     -0.14403859444889      0.30686901536726
  F   -0.88339781277343     -0.36956311806661      1.81844512715035
  H   1.30076665566569     -1.00758728199092      0.82971118760944
  C   -1.14746992853877     -1.49903441976415     -0.22177804961726
  H   -2.18293133788349     -1.65916836089646      0.08446044273681
  H   -0.56094108096892     -2.36556482625811      0.09234198392814
  H   -1.11917799709863     -1.42238607560373     -1.30966026817198
  C   -1.40450892939130      0.99312997176886     -0.01850030390581
  H   -2.47086758327621      0.81180162063873      0.13086553441660
  H   -1.23355404010394      1.19786787917208     -1.07640491483310
  H   -1.11830820103826      1.87278313804091      0.55589705481953
  N   1.38704702096186      1.02827794276552      1.09743393545252
  O   1.84339174584165      0.79924616659472      2.21457526673208
  O   1.30243170908754      2.13917764710355      0.57346779453912
  C   1.40476449834325     -0.05012630115770     -1.11480386705948
  H   0.99030827544112      0.81336929146614     -1.63282514423965
  H   2.49181063354415      0.05111737968964     -1.10646777172119
  H   1.15761189752887     -0.95795962151768     -1.66638406986089
