13

C	0.0	0.0	0.0
C	-0.501268	0.25322	-1.432959
Cl	1.792416	0.0	0.0
H	-0.196246	-0.598165	-2.048749
H	-1.605369	0.249125	-1.264557
C	-0.381822	1.137999	0.859047
N	-0.55064	2.053735	1.571727
N	-0.533728	-1.199532	0.572331
H	-0.31236	-1.963898	-0.060428
H	-1.567913	-0.982569	0.497879
C	-0.026581	1.484332	-2.041697
N	0.35423	2.468505	-2.556095
F	-2.745005	0.0	0.0
