13

C	0.0	0.0	0.0
C	-0.520237	0.007714	-1.442044
Cl	1.787504	0.0	0.0
H	-0.191003	0.912373	-1.959206
H	-1.623993	0.019084	-1.277504
C	-0.363114	1.303404	0.6136
N	-0.575312	2.349072	1.105705
N	-0.5455	-1.133233	0.672631
H	-1.579218	-0.931362	0.563794
H	-0.297533	-1.08558	1.655455
C	-0.088406	-1.165584	-2.186459
N	0.232822	-2.085074	-2.842794
F	-2.772701	0.0	0.0
