13

C	0.0	0.0	0.0
C	-0.48453	-0.065842	-1.452794
Cl	1.785444	0.0	0.0
H	-1.587614	-0.096698	-1.326295
H	-0.092914	-0.990924	-1.880071
C	-0.386398	1.305069	0.585222
N	-0.611813	2.363707	1.04307
N	-0.507854	-1.153624	0.678176
H	-0.205864	-1.123017	1.646284
H	-1.543544	-0.969546	0.611135
C	-0.056139	1.070049	-2.253716
N	0.28683	1.972286	-2.922801
F	-2.711221	0.0	0.0
