13

C	0.0	0.0	0.0
C	-0.509875	-0.331509	-1.415606
Cl	1.833189	0.0	0.0
H	-0.041607	0.292313	-2.180983
H	-1.60149	-0.127487	-1.274605
C	-0.359342	1.402886	0.285538
N	-0.52806	2.545337	0.497379
N	-0.523509	-0.828651	1.035705
H	-1.556912	-0.662555	0.884539
H	-0.310387	-1.79417	0.800112
C	-0.346255	-1.74462	-1.714545
N	-0.284212	-2.899487	-1.928629
F	-2.742441	0.0	0.0
