13

C	0.0	0.0	0.0
C	-0.298004	0.014016	-1.524675
Cl	1.796452	0.0	0.0
H	0.129875	0.928517	-1.948792
H	0.280959	-0.814633	-1.948971
C	-0.42262	1.262818	0.625886
N	-0.576431	2.318122	1.116591
N	-0.484392	-1.112091	0.751838
H	-1.521554	-0.935526	0.652975
H	-0.234892	-1.958509	0.247852
C	-1.666179	-0.128309	-2.045962
N	-2.461772	-0.287026	-2.900786
F	-2.590296	0.0	0.0
