13

C	0.0	0.0	0.0
C	-0.510286	-0.121139	-1.451255
Cl	1.793256	0.0	0.0
H	-0.154629	0.70475	-2.072395
H	-1.613847	-0.069685	-1.272341
C	-0.388592	1.339503	0.485061
N	-0.604084	2.433021	0.853418
N	-0.521905	-0.984734	0.897845
H	-1.553826	-0.807984	0.776376
H	-0.2973	-1.900434	0.517772
C	-0.12535	-1.391892	-2.042828
N	0.174383	-2.425254	-2.515684
F	-2.74785	0.0	0.0
