13

C	0.0	0.0	0.0
C	-0.521191	-0.208849	-1.425996
Cl	1.786711	0.0	0.0
H	-0.186831	0.603781	-2.075645
H	-1.624591	-0.167881	-1.263199
C	-0.363302	1.379289	0.417664
N	-0.565996	2.473064	0.796601
N	-0.544261	-1.019741	0.835959
H	-0.295528	-0.82539	1.800819
H	-1.57852	-0.838062	0.700838
C	-0.095757	-1.483637	-1.983942
N	0.236945	-2.481335	-2.506773
F	-2.772722	0.0	0.0
