13

C	0.0	0.0	0.0
C	-0.289709	0.217241	-1.498265
Cl	1.846009	0.0	0.0
H	0.157112	-0.649003	-1.995392
H	0.275154	1.09662	-1.821507
C	-0.3665	1.176212	0.812643
N	-0.535154	2.107951	1.509401
N	-0.50097	-1.250095	0.450619
H	-1.543004	-1.031586	0.347443
H	-0.292226	-1.337721	1.44117
C	-1.656897	0.368218	-2.013205
N	-2.479665	0.530761	-2.840932
F	-2.603437	0.0	0.0
