13

C	0.0	0.0	0.0
C	-0.516985	-0.146087	-1.434942
Cl	1.792831	0.0	0.0
H	-0.181637	0.694343	-2.047445
H	-1.621446	-0.112671	-1.27601
C	-0.360037	1.360113	0.479466
N	-0.555885	2.433943	0.915289
N	-0.545272	-1.054675	0.788479
H	-0.303631	-0.901964	1.762526
H	-1.579671	-0.866156	0.657204
C	-0.092814	-1.396399	-2.0475
N	0.222615	-2.382204	-2.603108
F	-2.773161	0.0	0.0
