11
Coordinates from ORCA-job run
  C   1.22400933638482      0.07890798682323      0.02168950836407
  C   -0.14234501366083     -0.52360358038981     -0.23913268984646
  Cl  2.53398390805518     -1.02149419446804     -0.49990036231219
  H   -0.21840245549609     -1.47740297977492      0.29018035397572
  H   1.37387886584023      0.26999498655044      1.08491745051858
  H   1.35470475989506      1.01172051696432     -0.52804529676311
  H   -0.23738557663592     -0.74334900072192     -1.30607725509535
  C   -1.25551034539920      0.42044227307351      0.20822675448551
  H   -1.20822668528282      1.37179061489320     -0.32781499786180
  H   -2.23659811821556     -0.01926110560384      0.01771008445103
  H   -1.18910867548487      0.63325448265382      1.27824645008399
