16

C	-0.098046	-0.264311	-1.495008
C	0.0	0.0	0.0
Br	-0.645625	1.801464	-2.57491
H	1.091774	0.0	0.0
H	-0.348261	-0.936722	0.458394
N	1.108144	-0.644437	-1.936607
H	1.961398	-0.36353	-1.341744
H	1.199036	-0.889601	-2.910327
N	-1.276857	-0.936468	-1.996381
H	-1.390906	-0.749823	-2.984026
H	-1.115093	-1.932516	-1.857715
C	-0.705739	1.184818	0.615872
H	-0.644125	1.113471	1.707887
H	-1.759146	1.219541	0.326417
H	-0.234431	2.117065	0.306085
F	2.804562	0.0	0.0
