16

C	-0.163695	0.08143	-1.520916
C	0.0	0.0	0.0
Br	-0.118132	-1.786302	-2.294246
H	1.093629	0.0	0.0
H	-0.310741	0.994931	0.361841
N	-1.428831	0.62832	-1.949779
H	-1.580741	1.486915	-1.429667
H	-1.349485	0.854746	-2.935559
N	0.977947	0.748227	-2.11612
H	0.855896	1.738619	-1.906416
H	1.810145	0.451496	-1.558989
C	-0.707367	-1.095825	0.767577
H	-1.765052	-1.169832	0.502613
H	-0.239066	-2.060594	0.57624
H	-0.634767	-0.903119	1.840674
F	2.760793	0.0	0.0
