16

C	0.033878	-0.009863	-1.517148
C	0.0	0.0	0.0
Br	-1.824597	-0.073889	-2.343191
H	1.100262	0.0	0.0
H	-0.391817	-0.953502	0.361572
N	0.678296	1.168422	-2.082093
H	0.175041	2.00498	-1.804943
H	1.582132	1.165464	-1.594259
N	0.756715	-1.186683	-1.911279
H	1.016167	-1.059057	-2.884317
H	1.621094	-1.124953	-1.351982
C	-0.635167	1.193871	0.674342
H	-0.539511	1.10491	1.76077
H	-0.136664	2.124875	0.38957
H	-1.70079	1.284743	0.43236
F	2.735259	0.0	0.0
