16

C	-0.161164	-0.0881	-1.527609
C	0.0	0.0	0.0
Br	-0.292982	-2.062223	-1.991804
H	1.091633	0.0	0.0
H	-0.452457	-0.84164	0.523574
N	-1.380944	0.486307	-2.048328
H	-1.435506	1.444217	-1.717549
H	-1.301615	0.505699	-3.060702
N	1.025548	0.38607	-2.203892
H	0.934114	1.394195	-2.288044
H	1.839928	0.202278	-1.575562
C	-0.47103	1.338083	0.561357
H	-1.557046	1.479256	0.513013
H	-0.168072	1.413132	1.609935
H	0.020324	2.167748	0.040414
F	2.764474	0.0	0.0
