16

C	0.040795	0.059028	-1.515872
C	0.0	0.0	0.0
Br	-1.811218	0.103901	-2.355177
H	1.098949	0.0	0.0
H	-0.401744	-0.964479	0.31818
N	0.738393	1.233418	-2.020607
H	0.265978	2.076818	-1.711786
H	1.637432	1.173936	-1.521959
N	0.7218	-1.127518	-1.960053
H	0.989278	-0.962559	-2.926654
H	1.587757	-1.112778	-1.401797
C	-0.620273	1.170537	0.72767
H	-1.690749	1.270599	0.513698
H	-0.498331	1.045683	1.808131
H	-0.126057	2.109248	0.463353
F	2.733363	0.0	0.0
