14
Coordinates from ORCA-job run
  C   0.88755235323063      0.11004634064323     -0.10410638235653
  C   -0.39720392557405     -0.73461955000811     -0.14179635186056
  Cl  1.20357796668995      0.74552708454164     -1.76050258116911
  H   -0.47107170411346     -1.23061276744483      0.83335667056634
  H   -0.26837316192000     -1.51941962170353     -0.89220558812629
  C   2.01228612901048     -0.76612549475659      0.25470203667628
  N   2.86524982515638     -1.50513749704710      0.57921902818606
  N   0.89708076934599      1.24136873919333      0.79573227650007
  H   0.76595801592133      0.92409741594572      1.75034365433763
  H   0.15519690018145      1.88593274712691      0.55128603738282
  C   -1.66302548865389      0.06651317286920     -0.41510023842614
  H   -1.60127572357775      0.60090778322310     -1.36396861238275
  H   -2.52067218414903     -0.60686248674711     -0.46567378349624
  H   -1.86527977154803      0.78738413416415      0.37971383416843
