19

C	-0.032354	0.00643	-0.021644
C	-0.301784	0.066955	-1.530162
F	1.376922	-0.025856	0.102231
H	0.13751	-0.826208	-1.982708
C	-0.535302	1.196084	0.766456
H	-0.136255	2.12788	0.369257
H	-1.626905	1.225627	0.75996
H	-0.206703	1.076707	1.802198
C	-0.570573	-1.298296	0.527512
H	-0.17594	-2.144154	-0.042633
H	-1.662462	-1.301071	0.499698
H	-0.249884	-1.401836	1.567149
N	0.59591	1.16521	-2.13067
O	0.283639	2.336998	-1.950316
O	1.578127	0.786054	-2.771059
N	-1.647944	0.285764	-1.894951
H	-2.310834	0.387395	-1.127489
H	-1.996228	-0.427559	-2.515371
Br	-4.208289	-0.10318	0.387484
