19

C	0.007183	-0.017908	0.023605
C	-0.523504	0.030217	-1.411239
F	1.422662	0.028779	-0.059855
H	-1.618415	-0.039413	-1.37372
C	-0.463663	1.21782	0.759482
H	-1.556593	1.235986	0.756007
H	-0.093511	2.112135	0.261367
H	-0.095175	1.18649	1.788605
C	-0.375771	-1.281264	0.7625
H	-0.036193	-1.200326	1.798134
H	-1.462326	-1.391807	0.742756
H	0.08127	-2.162702	0.313332
N	-0.050259	-1.232725	-2.140762
O	-0.697521	-2.264225	-1.976524
O	0.958937	-1.145038	-2.843899
N	-0.098869	1.207862	-2.086469
H	0.887279	1.139749	-2.302
H	-0.623702	1.326018	-2.94227
Br	-3.977728	0.271363	-0.53488
