13

C	-0.538407	0.011094	-1.42116
C	0.0	0.0	0.0
Cl	0.228299	-1.281498	-2.356897
H	1.091292	0.0	0.0
H	-0.302615	-0.954303	0.444682
C	-1.990788	-0.149004	-1.478561
N	-3.154518	-0.313733	-1.465106
N	-0.215885	1.340318	-2.137421
O	-0.785659	1.506605	-3.209889
O	0.577341	2.088221	-1.58957
C	-0.570358	1.08422	0.788676
N	-1.06793	1.932122	1.43056
Cl	3.252239	0.0	0.0
