13

C	-0.478872	-0.004831	-1.4505
C	0.0	0.0	0.0
Cl	0.073634	-1.429148	-2.308594
H	1.094556	0.0	0.0
H	-0.340309	0.928312	0.465703
C	-1.932381	0.108743	-1.567463
N	-3.101775	0.191491	-1.652836
N	0.094192	1.284051	-2.109983
O	0.829153	1.181857	-3.071991
O	-0.292701	2.31157	-1.56763
C	-0.542021	-1.138725	0.723003
N	-1.004585	-2.044548	1.309291
Cl	3.225133	0.0	0.0
