13

C	-0.454039	-0.014847	-1.447633
C	0.0	0.0	0.0
Cl	-2.22144	-0.262398	-1.590368
H	1.094668	0.0	0.0
H	-0.337448	-0.924978	0.471647
C	-0.100456	1.194118	-2.178773
N	0.134742	2.198176	-2.742824
N	0.194806	-1.232779	-2.136939
O	0.119758	-2.28243	-1.519174
O	0.681404	-1.053235	-3.242414
C	-0.539786	1.153231	0.700921
N	-0.991404	2.073994	1.272842
Cl	3.206597	0.0	0.0
