14
Coordinates from ORCA-job run
  C   -0.68275820513645     -0.21229064107039     -0.45094443936848
  C   0.78673776035131      0.10743767465596     -0.14297985577139
  Br  -0.75840167453334     -1.30552033385545     -2.06336111186692
  H   1.32236921269462     -0.84305139655414     -0.04723708924623
  H   -1.20061249807326      0.71657199006410     -0.70693819891294
  C   -1.39019710100584     -0.93074972445387      0.68452950239753
  H   -2.41348130819357     -1.17486591751488      0.39850170853542
  H   -1.42114117866734     -0.29936770915733      1.57586442131883
  H   -0.87470745771656     -1.86213579169030      0.93023479942865
  C   0.85581796405020      0.79795897190589      1.16436883056261
  N   0.92662702415163      1.39883528488906      2.17192554769902
  N   1.40550800301875      0.86718106803947     -1.21548720341119
  H   1.03759820322616      1.81151372026228     -1.23144679401232
  H   2.40564125583367      0.92848280447960     -1.06903011735259
