14
Coordinates from ORCA-job run
  C   -0.67880603881586     -0.05639251768932     -0.31444027178824
  C   0.84195189177580      0.14162612178886     -0.13528920717522
  Br  -0.99120723932473     -0.72576906414172     -2.12767319038371
  H   1.31816664336692     -0.83984771529901     -0.24612934094168
  H   -1.16924436221640      0.92051488596118     -0.28405961916481
  C   -1.29019233303116     -1.01296963710187      0.69209507568436
  H   -0.80384132352446     -1.98970528713785      0.63941737972007
  H   -2.35410096264163     -1.15037785794048      0.49691671584769
  H   -1.17313402206070     -0.61570950639624      1.70328155643867
  C   1.07487164922189      0.59535691706518      1.24583170773230
  N   1.21373934974156      0.97566660861210      2.34777012379801
  N   1.50907111486181      1.06107584476751     -1.03903247294594
  H   1.07888401368343      1.97746659705760     -0.98979402880668
  H   1.42384161896354      0.72106461045407     -1.98889442801482
