14
Coordinates from ORCA-job run
  C   -0.71334820427805     -0.10389812243649     -0.37214390998232
  C   0.76061988864319      0.22198094525279     -0.10274098479913
  Br  -0.83151239298686     -0.93823014401333     -2.14311662241387
  H   1.32147948981533     -0.72637724483704     -0.12847933619448
  H   -1.25601065111378      0.83875205226187     -0.46414115542320
  C   -1.33311834901986     -1.02680050391982      0.65886581244973
  H   -1.33754813411322     -0.54138719855994      1.63790048362310
  H   -0.77367491489218     -1.96204400267616      0.73150450639342
  H   -2.36211505781221     -1.26431218149910      0.38811551993691
  C   0.87593338580654      0.76025492345340      1.26079058378817
  N   0.97070184770461      1.18198456438472      2.35225119191676
  N   1.24376336526972      1.23332724254254     -1.03629746979420
  H   2.19866469898177      1.48448294489949     -0.80822788305796
  H   1.23716502799499      0.84426672514706     -1.97228073644295
