14
Coordinates from ORCA-job run
  C   -0.30037324225097     -0.72376770832292     -0.27377099762957
  C   0.79258632960546      0.36615603165806     -0.23487397863733
  Br  -0.08941304907312     -1.92503043900689      1.25312683443962
  H   0.61662269656382      0.99315652683387     -1.11970175459611
  H   -0.13919426012756     -1.35322853025579     -1.15237175802698
  C   -1.70050407818289     -0.13951961521730     -0.28063667094932
  H   -1.81770219706466      0.53001387550537     -1.13909806260213
  H   -2.44761167716393     -0.92983513510047     -0.35778852224401
  H   -1.89906434675262      0.41974355263522      0.63499602845981
  C   2.11640515130948     -0.24906288270807     -0.41219704056997
  N   3.16516560912016     -0.75556752483551     -0.55648142044755
  N   0.82341342606832      1.24737550666357      0.91588680623390
  H   -0.01402473442774      1.81336962001939      0.95281439235878
  H   0.89369437237629      0.70719672213147      1.77009614421085
