14
Coordinates from ORCA-job run
  C   -0.44073337571033     -0.53534311125036     -0.59611659606503
  C   0.92311503695347      0.15844320531994     -0.40153825855520
  Br  -0.13782082819920     -2.42893503873964     -0.97443272827862
  H   1.56225469771884     -0.11488865840847     -1.24737514789750
  H   -0.88241746379346     -0.13299462065862     -1.51202924802162
  C   -1.39033669322699     -0.38609884317532      0.57650698564979
  H   -0.97263085046011     -0.84301856428999      1.47541270742432
  H   -1.58519508139788      0.67199004081516      0.77350328240293
  H   -2.34493449191273     -0.86578107029101      0.35804785135417
  C   1.57134356123237     -0.33602242684268      0.82117878647853
  N   2.05032411507180     -0.71382452604653      1.82376771304245
  N   0.86556571696760      1.61216142439772     -0.34582304809630
  H   0.46053702380406      1.98246469212129     -1.19685086356086
  H   0.32192863295253      1.93084749704852      0.44574856412297
