14
Coordinates from ORCA-job run
  C   -0.68204788518900     -0.06886225771084     -0.30479190075814
  C   0.83309723389518      0.17880725499584     -0.14394795917891
  Br  -1.00447400218005     -0.66408242946570     -2.14208811227389
  H   1.34386129831594     -0.77675384941849     -0.31229956925372
  H   -1.20856091618831      0.88571776088719     -0.21887384692689
  C   -1.23742799551646     -1.09417511648900      0.66603238776502
  H   -2.29859668472950     -1.26440916690398      0.48169938264864
  H   -0.71434404898925     -2.04739917570365      0.56016595780920
  H   -1.11771307750264     -0.73915682032378      1.69261823935596
  C   1.07747481133636      0.57347657852004      1.25327681366409
  N   1.22496516055468      0.91844675160092      2.36571864305250
  N   1.44661853597508      1.16690598427263     -1.01264587475014
  H   1.35482201760674      0.87101974031373     -1.97657153460365
  H   0.98332555261122      2.06246474542510     -0.90929262655007
