14
Coordinates from ORCA-job run
  C   -0.68461795351114     -0.23191648549254     -0.43880659782435
  C   0.77520850983784      0.15327314263489     -0.16255278530508
  Br  -0.75210836482423     -1.27837417275734     -2.08212992399696
  H   1.36072480312653     -0.77112414768540     -0.11479383903163
  H   -1.25604719593394      0.67628572530320     -0.65112167005284
  C   -1.32132117446558     -1.01949201466775      0.69270713970148
  H   -0.75123637936741     -1.92897288700461      0.89618005791143
  H   -1.35981363663480     -0.41661352701796      1.60327735713601
  H   -2.33819254301938     -1.30909790357494      0.42700360082824
  C   0.85082443992551      0.80181814367533      1.16630089045382
  N   0.92528628083525      1.35866437314935      2.19869246846640
  N   1.32103476647152      0.97916291719478     -1.22539686646219
  H   2.32175669976977      1.08293822210006     -1.11165304858804
  H   0.90850174779007      1.90444861414289     -1.19670678323629
