14
Coordinates from ORCA-job run
  C   -0.51381399126812     -0.54669668127559     -0.58820834486075
  C   0.83203468041212      0.16101093328200     -0.36539965180078
  Br  -0.16867679853044     -2.41746671478114     -1.03054654167418
  H   1.50577600051688     -0.11326747263955     -1.18917490086539
  H   -0.96152948111751     -0.12149232506378     -1.49052336648247
  C   -1.45883557247558     -0.43922841042054      0.59018190484635
  H   -1.59004879847890      0.61504494023067      0.84050131960539
  H   -1.05601079089809     -0.96367216460827      1.45849944862509
  H   -2.42793673093638     -0.87497815835855      0.34379557030074
  C   1.46055771655974     -0.30307085187069      0.87648983767176
  N   1.97659306508565     -0.64743632934508      1.87277162814238
  N   0.57927159884300      1.60082445194043     -0.26698198874543
  H   1.37337159124187      2.07216963937021      0.14933467357475
  H   0.45024751104578      1.97825914353992     -1.19873958833746
