14
Coordinates from ORCA-job run
  C   -0.31770276514353     -0.73468762854529      0.21779240736525
  C   0.80157852744379      0.13403058752635     -0.39498230967689
  Br  -0.13528613181003     -0.76923623083899      2.16328675048212
  H   0.64257311701964      0.09956123140899     -1.48153163036647
  H   -0.17230564344940     -1.77080048245805     -0.09759259654800
  C   -1.70304808881527     -0.24655459786564     -0.16185790137217
  H   -2.46940009857639     -0.90680167009655      0.24493630893963
  H   -1.80417247593004     -0.23243276113271     -1.25207132454009
  H   -1.88723823231041      0.75716037610589      0.22437346184210
  C   2.11009490955376     -0.48837231518965     -0.14443564706300
  N   3.14342061042083     -1.01197668360043      0.04351262643355
  N   0.85290987679205      1.53200493164114     -0.01358570222360
  H   0.90683644533788      1.61919141173337      0.99433691246736
  H   0.03073994946714      2.02091383131160     -0.34218135573977
