14
Coordinates from ORCA-job run
  C   -0.31116292993142     -0.80389000633069      0.16419816385403
  C   0.61859404224717      0.23614612573672     -0.47053360580504
  Br  0.21926054583179     -1.10734840803766      2.02505362373143
  H   0.27225430989427      0.35313496437753     -1.50547418772127
  H   -0.14874908072191     -1.76548637950580     -0.32723859901039
  C   -1.76778718693811     -0.38881949713837      0.09622226008270
  H   -2.40548580029647     -1.15279112768939      0.54219042155152
  H   -2.05878175026282     -0.26392828606120     -0.95184327617364
  H   -1.91919775047104      0.55726081939804      0.61293594203631
  C   2.00442699082346     -0.27358323296369     -0.53881888698712
  N   3.12097482124401     -0.63411792714026     -0.59836672449243
  N   0.48898309427449      1.52914892639055      0.18007412503572
  H   0.88698503346057      1.48251445637529      1.11122183465353
  H   0.99868566084601      2.23175957258889     -0.34162109075535
