14
Coordinates from ORCA-job run
  C   -0.71409471162412     -0.12889815341530     -0.36376696752113
  C   0.74875747003915      0.25580825031499     -0.11117624825562
  Br  -0.82327242043677     -0.94083688794471     -2.14588873343856
  H   1.34933229151014     -0.66684140336087     -0.16349108730411
  H   -1.29772220062350      0.79097144200929     -0.43316271781315
  C   -1.27821339078945     -1.09255431836879      0.66183367858853
  H   -1.29210030263424     -0.62029663070281      1.64738781338892
  H   -0.67579801465376     -2.00220095693967      0.71516084315963
  H   -2.29884887297032     -1.37330639053970      0.40031778154177
  C   0.86376302868413      0.77363286752867      1.26000678131990
  N   0.96064898589903      1.17809571242136      2.35779074603028
  N   1.17253523378099      1.30319616246801     -1.03387498734892
  H   2.11877154241019      1.59258643884177     -0.81580477068493
  H   1.16824136140856      0.93064386768775     -1.97633213166261
