14
Coordinates from ORCA-job run
  C   -0.53555643584183     -0.58648198702688     -0.59778766963118
  C   0.81549615297105      0.12822948704979     -0.47951865111661
  Br  -0.21448965091652     -2.49625061502125     -0.85177935985623
  H   1.40954831423278     -0.13222684280751     -1.36003109311652
  H   -0.99487786197667     -0.23653078477064     -1.52321978949665
  C   -1.45195948802248     -0.36001712458905      0.58771148449851
  H   -1.67563303546388      0.70634496643190      0.68108055217209
  H   -0.99457888969349     -0.71784564997213      1.51256558913105
  H   -2.39592740769811     -0.88719649780187      0.44584431962211
  C   1.55470110925316     -0.32843357244559      0.71453870875149
  N   2.13230216499978     -0.60893283957032      1.69842209456240
  N   0.58857808067498      1.57085013627467     -0.50059128856405
  H   0.31630385508443      1.89768324386366      0.41882454966560
  H   1.44609309239682      2.04980808038520     -0.74805944662200
