14
Coordinates from ORCA-job run
  C   -0.67898147129687     -0.07809439592140     -0.30977363382897
  C   0.83488590796295      0.17464689200455     -0.14141863431767
  Br  -0.98050045181764     -0.74587862638146     -2.12578165703967
  H   1.34593174341968     -0.78755941656269     -0.26537213620346
  H   -1.20493266673489      0.87977924147570     -0.26898575736279
  C   -1.24693947825153     -1.06368300336882      0.69417448739755
  H   -2.30589397324084     -1.24096230922235      0.50387013531949
  H   -0.72324917378499     -2.02045512503685      0.63258310041422
  H   -1.13935186828105     -0.66837581906970      1.70726379566541
  C   1.06416378092997      0.62209117804858      1.24222921177283
  N   1.20323729076262      0.98521342709289      2.34994879070346
  N   1.45928556195944      1.12614299243465     -1.04239368422853
  H   0.99527646462620      2.02525198431930     -0.98197452169580
  H   1.37906833374692      0.79088298018761     -1.99436949659608
