14
Coordinates from ORCA-job run
  C   -0.33123138768740     -0.79786567897124      0.15195455209542
  C   0.66856181682422      0.22150908107550     -0.40498795481736
  Br  -0.01399292076816     -1.04671395064411      2.06847218045393
  H   0.44195885337894      0.30781659025866     -1.47548061093856
  H   -0.12029133990108     -1.77376359226058     -0.29043788833864
  C   -1.76924557392447     -0.38322260584080     -0.09093941863670
  H   -2.45606938268140     -1.13325665756328      0.30272998159097
  H   -1.94026193980824     -0.28872315003459     -1.16822196002034
  H   -1.97431231774123      0.57757175328329      0.37789516675237
  C   2.05107319359292     -0.29270240524367     -0.30265740420716
  N   3.16483593141224     -0.65815070584510     -0.22352990994002
  N   0.47330833260083      1.53310675085702      0.18856745531322
  H   1.04101430834763      2.21971892980042     -0.29294978369292
  H   0.76365242635521      1.51367564112847      1.15958559438578
