14
Coordinates from ORCA-job run
  C   -0.29488239977630     -0.76449560259995      0.12950582958168
  C   0.80275109702111      0.20356749813110     -0.36173154842408
  Br  -0.14768899067337     -1.00183044614319      2.06384174549895
  H   0.66579857658241      0.27991286184331     -1.44920372270191
  H   -0.10498058878568     -1.75490304175380     -0.29141776332485
  C   -1.69010095560027     -0.28717234089639     -0.22675187129899
  H   -2.43860643316547     -1.01475095791664      0.08805511230557
  H   -1.91977238943627      0.66091959978269      0.26208834671381
  H   -1.77107499496897     -0.15725852816158     -1.31098188586071
  C   2.12842122349840     -0.39650476340796     -0.14923229549565
  N   3.17740778617130     -0.89663992677938      0.01433343080517
  N   0.79618325263712      1.55326189564450      0.16759544882986
  H   0.83769590928868      1.53330491767558      1.17968712724660
  H   -0.04215109279276      2.04258883458168     -0.11678795387547
