14

C	-0.391409	-0.021388	-1.444533
C	0.0	0.0	0.0
F	-1.794675	0.042331	-1.643658
H	1.094107	0.0	0.0
H	-0.358698	0.950374	0.415998
C	0.176814	1.136575	-2.16349
N	0.627832	2.062693	-2.726549
C	0.049555	-1.264998	-2.113888
N	0.401626	-2.257021	-2.63442
C	-0.530584	-1.199082	0.769507
H	-0.077576	-2.122464	0.394139
H	-1.621783	-1.300117	0.732053
H	-0.227109	-1.103393	1.814903
F	2.590163	0.0	0.0
