14

C	-0.376738	0.03885	-1.463083
C	0.0	0.0	0.0
F	0.082246	1.210956	-2.054891
H	1.094153	0.0	0.0
H	-0.34688	-0.95882	0.403381
C	0.212388	-1.100603	-2.196816
N	0.646957	-1.995793	-2.818936
C	-1.84522	0.013512	-1.684968
N	-3.014813	-0.004342	-1.797416
C	-0.563955	1.180562	0.772522
H	-0.195747	2.113104	0.340932
H	-0.191425	1.133461	1.79828
H	-1.660073	1.214695	0.804044
F	2.607057	0.0	0.0
