14

C	-0.379785	0.010227	-1.462902
C	0.0	0.0	0.0
F	0.075763	1.170922	-2.077817
H	1.094257	0.0	0.0
H	-0.348126	-0.950692	0.422323
C	0.209934	-1.14249	-2.175428
N	0.647885	-2.048157	-2.780487
C	-1.848501	-0.022198	-1.680284
N	-3.018313	-0.041111	-1.7895
C	-0.563456	1.195237	0.749534
H	-1.659584	1.227911	0.784201
H	-0.187014	1.170652	1.774813
H	-0.198546	2.119547	0.297675
F	2.607523	0.0	0.0
