14

C	-0.372414	-0.036306	-1.463299
C	0.0	0.0	0.0
F	0.039872	1.130234	-2.09265
H	1.093852	0.0	0.0
H	-0.409362	0.932518	0.404297
C	0.263948	-1.178129	-2.154773
N	0.735225	-2.078459	-2.740981
C	-1.836846	-0.136358	-1.68626
N	-3.00406	-0.209232	-1.799176
C	-0.497704	-1.224582	0.753709
H	-1.585126	-1.364436	0.722988
H	-0.01589	-2.124792	0.362701
H	-0.192095	-1.137469	1.799002
F	2.60532	0.0	0.0
