13

C	0.0	0.0	0.0
C	-0.533555	-0.14251	-1.471808
Cl	1.785586	0.0	0.0
H	0.346542	-0.205146	-2.126527
H	-0.331276	-0.826664	0.623008
H	-0.334913	0.929325	0.454738
N	-1.345643	0.992049	-1.880229
H	-0.842072	1.846286	-1.658304
H	-2.160002	0.919082	-1.242258
N	-1.343137	-1.33789	-1.650412
H	-2.157698	-1.139935	-1.037257
H	-0.829266	-2.122586	-1.259861
F	-2.945493	0.0	0.0
