17

C	-0.054838	-0.033833	-0.008023
C	-0.33399	-0.011444	-1.508387
Cl	1.808962	0.139565	0.011962
H	0.384538	-0.67098	-1.994591
C	-0.553397	1.066134	0.817082
N	-0.571637	1.890279	1.660447
C	-0.356455	-1.379896	0.633262
H	0.075903	-1.384866	1.635463
H	0.077394	-2.192088	0.048131
H	-1.438865	-1.456689	0.673829
N	-0.105329	1.32061	-2.152349
O	0.382707	1.268516	-3.282267
O	-0.427927	2.336006	-1.552824
N	-1.667273	-0.51879	-2.01069
O	-1.84096	-1.718116	-1.836363
O	-2.339595	0.217708	-2.711976
F	-2.363008	0.309329	-0.030732
