16
Coordinates from ORCA-job run
  C   1.01681145278489     -0.74268169197311     -0.07292515711244
  C   -0.44023777818160     -0.35359893763730     -0.37415434437871
  Cl  1.91847351457178     -1.11479006684818     -1.53304268566321
  H   -0.75134012160333     -1.07381924150296     -1.13980606792804
  H   1.06154897974466     -1.60947139682474      0.58600120119751
  N   1.67616459388781      0.38633733094556      0.68148815302890
  O   2.49639091934126      1.10347296012299      0.12244019151612
  O   1.38118664561895      0.43117905132795      1.87566859256845
  C   -0.53221760547914      1.04245160088257     -0.98198269180874
  H   -1.55189213772126      1.22023362491280     -1.33035416331696
  H   0.14199548316500      1.15383900369370     -1.83322052792014
  H   -0.29385895057758      1.81400667369249     -0.24523297393206
  C   -1.35110620833391     -0.52845207724074      0.83651214987805
  H   -2.38969275305832     -0.37091023054863      0.53516437979082
  H   -1.11022396119079      0.18109559007260      1.62790429259535
  H   -1.27300207296841     -1.53989219307499      1.24453965148509
