16
Coordinates from ORCA-job run
  C   0.89920146917706     -0.40386312078341      0.59489461908670
  C   -0.32988473398191     -0.28280150529703     -0.29105606922098
  Cl  1.35293829441832     -2.08109330568761      0.91715955684418
  H   -0.13118556990220     -0.88238357695896     -1.18585165891769
  H   0.77663023780102      0.10538370304295      1.55027994361658
  N   2.05593656298864      0.28915950793199     -0.07702220327378
  O   2.46180887007584      1.31281689612723      0.46841470050321
  O   2.44991460519624     -0.17725103403636     -1.13835742991733
  C   -0.53783535505092      1.17644803358552     -0.69867812695907
  H   -0.61961760559428      1.82422251346735      0.17911740055564
  H   -1.46354270494889      1.26732154523534     -1.27069841716685
  H   0.27435539157322      1.54969533439289     -1.32490004778673
  C   -1.55763824596276     -0.82714190425514      0.43392298513918
  H   -1.43796722309925     -1.87371778048593      0.71538178156932
  H   -2.43414871599447     -0.75038076286349     -0.21296661638895
  H   -1.75896527669566     -0.24641454341534      1.33935958231657
