16
Coordinates from ORCA-job run
  C   0.95728315317876     -0.65481304624479      0.17187080815726
  C   -0.39014741010288      0.05091022797714      0.30163415058040
  Cl  1.18559669104640     -1.47434321342994     -1.36724419410045
  H   -0.38488385342669      0.45948308342524      1.31905782523983
  H   1.09394204847177     -1.38617761091490      0.96799139686338
  N   2.04821929735263      0.37271697245980      0.40273197066200
  O   2.16521624555092      0.70178184070266      1.58072906153617
  O   2.66315485077202      0.83506942049869     -0.54682587854844
  C   -1.53042403410010     -0.95729403943040      0.19201747886374
  H   -1.38764024150538     -1.80239290916562      0.87097655077845
  H   -1.61683940885561     -1.34621406428519     -0.82408276696421
  H   -2.47506407993873     -0.47376886698593      0.45072142187819
  C   -0.54447814953437      1.19809846774856     -0.69105891199450
  H   0.21214348232295      1.97201671663219     -0.54794673381184
  H   -0.47431511173444      0.84002781532085     -1.72018099866942
  H   -1.52376347949725      1.66389920569164     -0.56039118047057
