17

C	0.0	0.0	0.0
C	-0.184177	-0.177887	-1.553591
F	1.429498	0.0	0.0
H	0.52029	-0.982654	-1.786123
N	-0.424775	1.215246	0.609142
H	-0.128693	2.017579	0.063294
H	-1.444251	1.194955	0.64991
N	-0.488738	-1.158265	0.66603
H	-0.349424	-1.005553	1.661032
H	-1.500313	-1.179134	0.515214
C	0.333804	1.034272	-2.193461
N	0.726162	2.030221	-2.676541
C	-1.534559	-0.543463	-2.166491
H	-2.288165	0.219303	-2.007494
H	-1.916457	-1.46531	-1.73314
H	-1.373778	-0.692146	-3.240218
Cl	-3.781441	0.0	0.0
