17

C	0.0	0.0	0.0
C	-0.315898	0.269065	-1.487098
F	1.417578	0.0	0.0
H	0.079299	-0.606732	-2.017692
N	-0.483428	1.055481	0.821887
H	-1.497207	1.092323	0.733085
H	-0.253997	0.8732	1.792038
N	-0.464717	-1.299234	0.357895
H	0.190054	-2.019755	0.088298
H	-0.706375	-1.370866	1.334451
C	0.453115	1.426393	-1.959515
N	1.032256	2.351523	-2.391953
C	-1.795582	0.427939	-1.817818
H	-1.928866	0.428912	-2.903004
H	-2.387659	-0.372774	-1.379516
H	-2.199112	1.362998	-1.431647
Cl	-4.577427	0.0	0.0
