17

C	0.0	0.0	0.0
C	-0.340304	-0.011385	-1.540534
F	1.384974	0.0	0.0
H	-1.404883	0.024096	-1.73784
N	-0.218782	1.325573	0.64456
H	-0.173515	1.093953	1.631558
H	-1.192187	1.581545	0.507126
N	-0.230201	-1.184496	0.829428
H	0.198702	-1.96309	0.333217
H	-1.218922	-1.388405	0.90157
C	0.084305	-1.297022	-2.104887
N	0.312467	-2.353023	-2.565346
C	0.267569	1.175899	-2.294324
H	1.355371	1.159092	-2.304669
H	-0.068284	2.091118	-1.810155
H	-0.108735	1.173847	-3.323604
Cl	-2.872184	0.0	0.0
