17

C	0.0	0.0	0.0
C	-0.356171	-0.040124	-1.524751
F	1.407651	0.0	0.0
H	0.618987	0.135434	-1.990463
N	-0.395418	1.258833	0.566352
H	-1.415995	1.285414	0.517986
H	-0.136708	1.258528	1.548324
N	-0.398871	-1.209399	0.663855
H	-0.097694	-1.142165	1.632047
H	-1.421233	-1.201516	0.657163
C	-1.178566	1.074057	-2.008854
N	-1.719093	1.960611	-2.557488
C	-0.883422	-1.380164	-2.042324
H	-0.95113	-1.3429	-3.133407
H	-1.873115	-1.578465	-1.634175
H	-0.197152	-2.176532	-1.749877
Cl	-3.454465	0.0	0.0
