17

C	0.0	0.0	0.0
C	-0.173726	-0.167829	-1.558079
F	1.429363	0.0	0.0
H	0.489977	-1.008139	-1.782953
N	-0.433896	1.212138	0.606572
H	-0.149744	2.015036	0.057283
H	-1.452004	1.179948	0.651453
N	-0.494337	-1.159848	0.658522
H	-1.500976	-1.18984	0.481957
H	-0.388492	-0.998383	1.655595
C	0.422185	1.015052	-2.188114
N	0.882133	1.981382	-2.671392
C	-1.534825	-0.443292	-2.190757
H	-1.387997	-0.59134	-3.26563
H	-2.239499	0.365533	-2.025887
H	-1.985014	-1.339869	-1.770158
Cl	-3.785574	0.0	0.0
