17

C	0.0	0.0	0.0
C	-0.361968	-0.289483	-1.466164
F	1.431709	0.0	0.0
H	0.27112	-1.135694	-1.750815
N	-0.491705	1.260472	0.410984
H	-0.396418	1.401144	1.405911
H	-0.070408	2.022806	-0.101032
N	-0.412971	-1.088234	0.832321
H	-1.424509	-1.047143	0.931989
H	0.005473	-0.973226	1.748659
C	0.050631	0.856126	-2.286318
N	0.352806	1.772946	-2.956618
C	-1.838829	-0.620205	-1.677
H	-2.503594	0.088439	-1.18364
H	-2.056165	-1.605327	-1.261855
H	-2.073696	-0.641017	-2.742524
Cl	-4.790907	0.0	0.0
