17

C	0.0	0.0	0.0
C	-0.543778	-0.269338	-1.401909
F	1.426519	0.0	0.0
H	-1.636737	-0.291044	-1.252622
N	-0.420885	1.297773	0.428461
H	-1.434836	1.228359	0.555792
H	-0.003257	1.480989	1.334768
N	-0.412088	-1.048025	0.878227
H	-0.087134	-1.94878	0.550174
H	-0.045274	-0.877667	1.806774
C	-0.112158	-1.586972	-1.863381
N	0.248573	-2.63943	-2.240522
C	-0.148684	0.810151	-2.406286
H	0.937164	0.856023	-2.512219
H	-0.509241	1.772855	-2.047976
H	-0.594422	0.598033	-3.380509
Cl	-3.680742	0.0	0.0
