17

C	0.0	0.0	0.0
C	-0.310443	-0.247352	-1.538943
F	1.389958	0.0	0.0
H	0.677079	-0.4607	-1.960722
N	-0.417104	1.247386	0.568528
H	-0.131862	2.019685	-0.024183
H	-1.437685	1.230681	0.59021
N	-0.455552	-1.114261	0.76817
H	-1.470771	-1.150642	0.659796
H	-0.279165	-0.876965	1.739826
C	-0.739956	0.990279	-2.190869
N	-0.990143	1.999845	-2.736619
C	-1.216506	-1.429113	-1.90092
H	-1.239123	-1.545494	-2.988186
H	-2.229227	-1.266582	-1.537026
H	-0.804533	-2.335069	-1.454889
Cl	-3.632441	0.0	0.0
