17

C	0.0	0.0	0.0
C	-0.542112	0.018767	-1.442344
Cl	1.788866	0.0	0.0
H	-1.642272	0.004431	-1.341482
C	-0.436077	1.284294	0.701064
H	-0.083112	1.246999	1.735017
H	-0.01329	2.171358	0.225097
H	-1.527782	1.329868	0.694733
N	-0.464681	-1.220285	0.604669
H	-1.487784	-1.210234	0.547146
H	-0.212131	-1.206603	1.586947
N	-0.154106	-1.226691	-2.192165
O	0.911092	-1.209678	-2.807041
O	-0.932305	-2.17035	-2.122602
C	-0.103829	1.183921	-2.19604
N	0.214575	2.140101	-2.798552
Br	-3.765744	0.0	0.0
