17

C	0.0	0.0	0.0
C	-0.239868	0.000654	-1.551215
Cl	1.790806	0.0	0.0
H	0.3028	-0.877447	-1.902608
C	-0.485825	1.212422	0.768406
H	-1.574937	1.25064	0.680055
H	-0.218608	1.074099	1.820321
H	-0.042508	2.13819	0.407398
N	-0.515646	-1.266621	0.448679
H	-0.276883	-1.37779	1.429986
H	-1.541278	-1.181761	0.398696
N	0.454072	1.165706	-2.232251
O	0.067581	2.29625	-1.957253
O	1.331946	0.884952	-3.043151
C	-1.557851	-0.042752	-2.191982
N	-2.340069	-0.11493	-3.069408
Br	-3.799843	0.0	0.0
