17

C	0.0	0.0	0.0
C	-0.230759	-0.024444	-1.565248
Cl	1.794979	0.0	0.0
H	0.197828	-0.971548	-1.903336
C	-0.499936	1.244114	0.698633
H	-1.587263	1.282568	0.593648
H	-0.048699	2.140784	0.281029
H	-0.242777	1.155767	1.755773
N	-0.535383	-1.159506	0.627083
H	-0.335842	-1.998625	0.093635
H	-1.553456	-1.031177	0.678055
N	0.602509	1.011317	-2.309419
O	1.407358	0.581355	-3.130809
O	0.390306	2.192658	-2.063448
C	-1.546474	0.107636	-2.196764
N	-2.356112	0.181854	-3.048353
Br	-3.827446	0.0	0.0
