17

C	0.0	0.0	0.0
C	-0.533835	-0.181592	-1.436142
Cl	1.794236	0.0	0.0
H	-1.634703	-0.184508	-1.343374
C	-0.439275	1.366769	0.516218
H	-1.531185	1.406125	0.500904
H	-0.018314	2.180244	-0.078029
H	-0.088776	1.474361	1.545928
N	-0.4635	-1.127919	0.76241
H	-0.205232	-0.987917	1.733547
H	-1.487105	-1.125041	0.707678
N	-0.140666	-1.518888	-2.003708
O	0.933006	-1.58905	-2.599164
O	-0.924105	-2.441729	-1.817222
C	-0.089312	0.869182	-2.339488
N	0.235838	1.738606	-3.058712
Br	-3.763606	0.0	0.0
