17

C	0.0	0.0	0.0
C	-0.390473	0.018895	-1.529959
Cl	1.788814	0.0	0.0
H	0.528665	-0.190309	-2.081596
C	-0.453882	1.208788	0.805382
H	-1.543168	1.269181	0.745009
H	0.009992	2.132013	0.464273
H	-0.166556	1.034362	1.846041
N	-0.459263	-1.26989	0.504624
H	-0.160283	-1.354062	1.471192
H	-1.486099	-1.219603	0.500473
N	-0.767625	1.387877	-2.051434
O	-1.804218	1.518975	-2.686261
O	0.07234	2.263192	-1.850729
C	-1.337577	-0.993393	-1.990888
N	-1.861777	-1.878781	-2.559124
Br	-3.679121	0.0	0.0
