19

C	0.0	0.0	0.0
C	-0.395764	0.479654	-1.412359
F	1.422065	0.0	0.0
H	0.223394	-0.140734	-2.08029
C	-0.500362	0.857764	1.134727
H	-0.182875	0.431	2.091035
H	-0.099914	1.869536	1.06464
H	-1.592683	0.879593	1.105933
N	-0.446578	-1.343186	0.168505
H	-0.24701	-1.679972	1.102023
H	0.007227	-1.943994	-0.508484
C	-0.014017	1.934866	-1.647503
H	1.014988	2.13519	-1.341498
H	-0.127956	2.165441	-2.708254
H	-0.684852	2.597311	-1.094325
N	-1.779103	0.272768	-1.787193
H	-2.421927	0.806089	-1.205308
H	-2.047567	-0.682525	-1.581232
Cl	-4.595116	0.0	0.0
