19

C	0.0	0.0	0.0
C	-0.409013	0.081304	-1.478277
F	1.410323	0.0	0.0
H	-1.489343	0.254548	-1.467057
C	-0.430492	1.229612	0.769793
H	-0.053676	1.139988	1.790803
H	-0.016917	2.117285	0.293648
H	-1.519426	1.292549	0.782541
N	-0.451097	-1.170686	0.700694
H	-0.294775	-1.994162	0.133073
H	-1.460389	-1.062744	0.812651
C	-0.118039	-1.217959	-2.234961
H	-0.775943	-2.033015	-1.9248
H	-0.283372	-1.063397	-3.305214
H	0.925152	-1.521212	-2.091421
N	0.246213	1.248282	-2.081137
H	1.238347	1.05163	-2.150071
H	-0.109532	1.37214	-3.022197
Cl	-3.779671	0.0	0.0
