19

C	0.0	0.0	0.0
C	-0.504037	0.065781	-1.449587
F	1.392727	0.0	0.0
H	-1.521198	-0.337667	-1.423969
C	-0.416979	1.194145	0.837306
H	0.003178	2.110143	0.419968
H	-1.507061	1.247872	0.865568
H	-0.036667	1.05946	1.855193
N	-0.424382	-1.274334	0.53827
H	-0.159964	-1.308374	1.518392
H	-1.444736	-1.272335	0.507786
C	0.368312	-0.790191	-2.353687
H	0.501958	-1.780058	-1.916968
H	1.346623	-0.320927	-2.480163
H	-0.100853	-0.899687	-3.337664
N	-0.51154	1.454706	-1.939531
H	-0.643601	1.418145	-2.946291
H	-1.353447	1.892106	-1.571831
Cl	-3.747005	0.0	0.0
