19

C	0.0	0.0	0.0
C	-0.376377	-0.164194	-1.546999
F	1.441578	0.0	0.0
H	0.127994	0.713458	-1.972052
C	-0.269883	1.341635	0.635478
H	0.280076	1.373792	1.579965
H	-1.299482	1.543726	0.849898
H	0.203208	2.12818	0.022962
N	-0.37574	-1.110492	0.799791
H	-0.126697	-1.978209	0.316216
H	0.108238	-1.091706	1.701576
C	-1.740146	-0.209921	-2.393542
H	-2.259564	-1.145377	-2.354792
H	-2.41713	0.677678	-2.325881
H	-1.066839	0.019556	-3.32683
N	0.34897	-1.418087	-1.954148
H	0.137833	-1.583968	-2.944992
H	1.356558	-1.240666	-1.875498
Cl	-3.069758	0.0	0.0
