17

C	0.049143	0.030875	0.028798
C	-0.601398	0.089857	-1.368288
Br	2.018924	-0.220555	-0.136569
H	-1.674935	0.27088	-1.175534
C	-0.113262	1.31673	0.70622
N	-0.254074	2.337041	1.273366
C	-0.51794	-1.09716	0.880061
H	-0.147153	-1.019061	1.903383
H	-0.2167	-2.060438	0.468054
H	-1.610861	-1.031812	0.850424
C	-0.531823	-1.226276	-2.142581
H	0.495435	-1.585221	-2.237958
H	-0.948793	-1.069287	-3.138777
H	-1.165441	-1.959172	-1.645326
C	-0.050001	1.19578	-2.149346
N	0.385949	2.065578	-2.808428
Cl	-3.708278	-0.869726	-0.626547
