15

C	-0.013118	-0.004014	0.002931
C	-0.611962	-0.061621	-1.380178
F	1.381325	0.075086	-0.043908
H	-0.325272	0.826658	-1.943739
H	-1.738518	-0.023348	-1.111329
N	-0.396334	1.344085	0.620228
O	-0.390181	2.317921	-0.126249
O	-0.555235	1.392333	1.834224
C	-0.448407	-1.124915	0.896229
H	-1.538646	-1.049477	0.925316
H	-0.00773	-1.01717	1.88594
H	-0.128849	-2.068746	0.449145
C	-0.204971	-1.259555	-2.083744
N	0.102884	-2.232823	-2.667911
F	-2.811107	0.170367	-0.058755
