15

C	-0.024157	-0.008832	0.002717
C	-0.630754	0.06311	-1.376265
F	1.370565	0.068407	-0.044791
H	-0.343779	0.998407	-1.857604
H	-1.755926	0.080626	-1.098092
N	-0.397377	1.278497	0.743345
O	-0.39163	2.316713	0.08945
O	-0.548797	1.215559	1.957671
C	-0.459747	-1.205171	0.79199
H	-0.148724	-2.105288	0.257322
H	-0.011495	-1.191903	1.784071
H	-1.549274	-1.12712	0.835938
C	-0.23259	-1.066411	-2.189452
N	0.06749	-1.982876	-2.862759
F	-2.821482	0.182922	-0.027123
