15

C	-0.015222	-0.00586	0.001694
C	-0.619456	0.221954	-1.361383
F	1.379064	0.081921	-0.033429
H	-0.334895	1.20744	-1.731087
H	-1.744978	0.203415	-1.086129
N	-0.395514	1.186302	0.88452
O	-0.391045	2.292878	0.354337
O	-0.550764	0.983727	2.082932
C	-0.447384	-1.286738	0.647015
H	-0.002884	-1.384681	1.63603
H	-0.129922	-2.118278	0.014114
H	-1.537458	-1.219208	0.695222
C	-0.215214	-0.805272	-2.297902
N	0.089955	-1.637618	-3.070789
F	-2.813108	0.177134	-0.011771
