15

C	-0.0158	-0.00665	0.003798
C	-0.616432	-0.160952	-1.371009
F	1.378901	0.065633	-0.049798
H	-1.742749	-0.100755	-1.103859
H	-0.328617	0.684147	-1.996937
N	-0.394971	1.382802	0.524169
O	-0.388442	2.301109	-0.289557
O	-0.551134	1.517439	1.732044
C	-0.452583	-1.060274	0.97487
H	-1.542533	-0.979758	1.000149
H	-0.009678	-0.884354	1.95375
H	-0.136275	-2.034241	0.595186
C	-0.213495	-1.406933	-1.988114
N	0.091035	-2.420131	-2.501911
F	-2.813391	0.169903	-0.067507
