8
Coordinates from ORCA-job run
  C   -0.72558214385210     -0.14174531822605      0.00208188010993
  C   0.76900850796498      0.06698588246829     -0.02093355469854
  F   -1.36071823715837      1.05990656838399      0.30117557413461
  H   1.27985185190804     -0.87012306699780     -0.25482518638353
  H   -1.09972434805770     -0.47643672153964     -0.96829043115987
  H   -1.01869695222255     -0.86537328407722      0.76632531729580
  H   1.03764613620127      0.80730531344023     -0.77564561922707
  H   1.11821518521643      0.42048062654820      0.95011201992868
