15
Coordinates from ORCA-job run
  C   -0.39016602262566      0.00953221548067     -0.38771695745520
  C   1.08373790299031     -0.06413863610218     -0.04310162379809
  H   -0.59218737183171     -0.61647878473371     -1.25788885516989
  H   1.62551956161843      0.33452322476754     -0.90626353032644
  H   1.28873397016944      0.59322212999093      0.81108237274717
  C   -0.90974169490089      1.42497668403512     -0.58076474474127
  H   -0.76204460612445      2.01290991119842      0.32809727727774
  H   -0.37033185333000      1.90743502569554     -1.39857264613452
  H   -1.97255308094621      1.41447492534177     -0.82708459510086
  N   -1.20024049047485     -0.61874333421973      0.71233032207935
  O   -2.28184128535468     -1.10506345472966      0.39579929067629
  O   -0.75592354499428     -0.56070894734041      1.85950620393286
  N   1.48026940889639     -1.45376633886461      0.16045623865599
  H   2.47578880688615     -1.55756095366216      0.01703969737116
  H   1.28098030002200     -1.72061366685752      1.11608154998571
