15
Coordinates from ORCA-job run
  C   -0.45924372623847     -0.02919055061269     -0.32528067262447
  C   0.80670633957457     -0.66154394502079      0.24938047534816
  H   -0.48610953702711     -0.15601781373075     -1.40946286642783
  H   0.82065254232306     -0.47770205606425      1.32577208404561
  H   0.76028042942171     -1.75037583878017      0.10256651528667
  C   -0.62635099847491      1.42498295499425      0.06566368403198
  H   0.24498464295537      1.97882728884374     -0.28226389747621
  H   -0.69570550027364      1.51427297143519      1.15101802860841
  H   -1.52676193006380      1.85074865886182     -0.38240493849137
  N   -1.62903095330896     -0.81979739383840      0.17268517382547
  O   -1.79285853728135     -0.85771235950125      1.39138554640161
  O   -2.33701430897623     -1.38626017312367     -0.65860990190970
  N   1.96814926555741     -0.02502097033031     -0.36416068281488
  H   2.78323643546775     -0.14623200404739      0.22181262130844
  H   2.17006583634460     -0.45697876908535     -1.25710116911188
