15
Coordinates from ORCA-job run
  C   -0.50745415497596     -0.11645605032541     -0.31445106714030
  C   0.77215335489591     -0.71506790191657      0.26866208118027
  H   -0.63842212884254     -0.47330074191374     -1.33596339253947
  H   0.82441463150268     -0.45632734439095      1.33393419025510
  H   0.70381089409214     -1.80433587383676      0.19527557347181
  C   -0.54339726919820      1.39597884266008     -0.24332522692714
  H   -1.49368507275618      1.78316049370439     -0.61663998536709
  H   0.25639756393832      1.79563684148881     -0.86840954850143
  H   -0.41024287013337      1.73603268304889      0.78490288662981
  N   -1.65869247409638     -0.68803683196285      0.45285656569661
  O   -1.79799982398535     -0.31021703441194      1.61582688212336
  O   -2.36458222712637     -1.52156209004066     -0.11335413879184
  N   1.91138219183410     -0.24992215689837     -0.51832998096882
  H   2.31111179244803      0.58031099022979     -0.10168968634113
  H   2.63520559240317     -0.95489382543471     -0.53929515277975
