13

C	0.0	0.0	0.0
C	-0.409481	-0.011187	-1.497574
F	1.351262	0.0	0.0
H	0.54959	-0.151965	-2.017062
H	-0.406826	0.832012	0.56525
N	-0.332537	-1.26187	0.749888
O	-0.492378	-1.142306	1.958196
O	-0.227483	-2.313738	0.125528
C	-0.878982	1.320666	-1.896062
N	-1.077458	2.410628	-2.285225
C	-1.272965	-1.069483	-2.033991
N	-1.7296	-1.908184	-2.720409
Br	-3.147416	0.0	0.0
