13

C	0.0	0.0	0.0
C	-0.393303	-0.164094	-1.488557
F	1.346626	0.0	0.0
H	0.550989	0.090163	-1.995489
H	-0.409272	0.907895	0.434243
N	-0.352656	-1.114949	0.944571
O	-0.689438	-0.78029	2.074943
O	-0.116615	-2.256098	0.55509
C	-1.337698	0.841212	-2.008491
N	-1.688569	1.752545	-2.666866
C	-0.693098	-1.518222	-1.966864
N	-0.77771	-2.55317	-2.518286
Br	-3.187461	0.0	0.0
