14

C	0.0	0.0	0.0
C	-0.467908	-0.003233	-1.439333
F	1.389505	0.0	0.0
H	-0.252414	-1.011298	-1.822406
H	-1.557783	0.126373	-1.381855
C	-0.311428	1.31623	0.645015
N	-0.489803	2.329389	1.211236
N	-0.557163	-1.114365	0.682127
H	-0.385591	-1.007511	1.678417
H	-1.591335	-0.96953	0.541849
N	0.163554	1.08356	-2.180782
H	-0.348614	1.243518	-3.037742
H	1.112387	0.828134	-2.421258
H	-3.054711	0.0	0.0
