14

C	0.0	0.0	0.0
C	-0.444147	-0.15756	-1.448891
F	1.416534	0.0	0.0
H	-1.529958	-0.310809	-1.387259
H	0.051726	-1.06561	-1.813501
C	-0.354347	1.350839	0.504079
N	-0.474795	2.463742	0.85725
N	-0.53144	-0.989298	0.877926
H	-0.416672	-1.889109	0.416509
H	-1.55927	-0.784275	0.843726
N	-0.038306	0.981832	-2.282364
H	-0.178393	0.722557	-3.252631
H	-0.697919	1.732634	-2.097526
H	-3.03029	0.0	0.0
