14

C	0.0	0.0	0.0
C	-0.42389	-0.077102	-1.460752
F	1.418304	0.0	0.0
H	-1.52017	-0.011257	-1.415068
H	-0.012304	0.781878	-2.010638
C	-0.359459	1.317892	0.572667
N	-0.490907	2.386034	1.038401
N	-0.518151	-1.036115	0.819019
H	-1.540213	-0.819972	0.831295
H	-0.428693	-1.882284	0.259678
N	-0.012858	-1.375891	-1.995009
H	0.931399	-1.323349	-2.352928
H	-0.629851	-1.642112	-2.750533
H	-3.048388	0.0	0.0
