14

C	0.0	0.0	0.0
C	-0.28427	0.157247	-1.511634
F	1.408416	0.0	0.0
H	0.412539	0.949338	-1.816504
H	0.105709	-0.784751	-1.922698
C	-0.320932	1.243935	0.753638
N	-0.451554	2.239522	1.363308
N	-0.559116	-1.185357	0.543166
H	-1.575232	-1.085365	0.371977
H	-0.450404	-1.171237	1.550929
N	-1.632414	0.447565	-1.958849
H	-1.940884	-0.306432	-2.563186
H	-2.313062	0.412489	-1.165067
H	-3.280929	0.0	0.0
