14

C	0.0	0.0	0.0
C	-0.711013	0.173976	-1.32497
F	1.425497	0.0	0.0
H	-1.713079	0.536386	-1.015947
H	-0.182914	0.919706	-1.926624
C	-0.279708	1.184278	0.860071
N	-0.395053	2.15187	1.51289
N	-0.448745	-1.176897	0.624982
H	0.101999	-1.385366	1.446622
H	-0.436514	-1.926987	-0.0553
N	-0.881114	-1.109827	-2.002467
H	-1.878344	-1.312943	-1.958836
H	-0.599278	-1.038798	-2.971711
H	-3.481234	0.0	0.0
