14

C	0.0	0.0	0.0
C	-0.490607	0.084068	-1.453981
F	1.379623	0.0	0.0
H	0.277564	0.59399	-2.041025
H	-1.414754	0.665953	-1.429557
C	-0.346588	1.278511	0.688075
N	-0.454843	2.332622	1.193182
N	-0.510824	-1.094899	0.755181
H	-0.394931	-1.908209	0.154157
H	-1.532815	-0.899834	0.773887
N	-0.7289	-1.263304	-1.973697
H	-1.698954	-1.465801	-1.740949
H	-0.658523	-1.236025	-2.983104
H	-3.023454	0.0	0.0
