15
Coordinates from ORCA-job run
  C   0.84787321203719     -0.46151599992671      0.64571396665273
  C   -0.52349376357756      0.18836843139042      0.48866388160532
  H   0.72336899788657     -1.37670450825545      1.22548948884148
  H   -0.96663836584742      0.33694249791623      1.47874912873880
  H   1.47536302517156      0.22039661675027      1.23637247822693
  N   1.39611613779794     -0.78760360184731     -0.66519897898172
  H   2.01262387598658     -0.06080679219098     -1.00034200791777
  H   1.92010885669354     -1.64997278123995     -0.63284149831012
  N   -1.42227988271944     -0.83110612982415     -0.16637924803501
  O   -1.96628052533787     -0.54555519177599     -1.22780223316953
  O   -1.54710796268675     -1.89901467959939      0.42945400950200
  C   -0.49570943222318      1.47417087704049     -0.30662951955603
  H   -1.49127587605117      1.90696025312654     -0.40093498976784
  H   -0.11097016996192      1.29044691881082     -1.30899320777316
  H   0.14830187283193      2.19499408962515      0.20467872994392
