15
Coordinates from ORCA-job run
  C   1.08227248110453     -0.09436521787814      0.00997816578326
  C   -0.36312211455097      0.18529602112542      0.36942211065355
  H   1.24547849106476      0.14846166119400     -1.04746137023142
  H   -0.52154518571500     -0.02265468983280      1.42846044445359
  H   1.68991808089484      0.59334392044813      0.60607244311308
  N   1.43083324155109     -1.46454480588657      0.37169741236408
  H   2.43093310126412     -1.54998004605743      0.49376675352637
  H   1.16174311453791     -2.08637790712525     -0.38000509671099
  N   -1.25976351832460     -0.79485467559815     -0.33513098851046
  O   -2.32929703580557     -1.05665814464918      0.20719588950818
  O   -0.89171061207970     -1.22981933701673     -1.42698345988539
  C   -0.83446199405636      1.58086999410689     -0.00599510197032
  H   -0.73374422427658      1.74103368692688     -1.08196643597181
  H   -1.87837948818784      1.72358763086909      0.27722988640119
  H   -0.23015433742061      2.32666190937383      0.51471934747708
