15
Coordinates from ORCA-job run
  C   0.74189459179105     -0.79294853054654     -0.03067248942570
  C   -0.48614369507407      0.02614175687108      0.36521809332390
  H   0.66442230595239     -1.77509815921815      0.44465511751340
  H   -0.55219990554798      0.07318960105308      1.45208950566277
  H   0.72324509784077     -0.94666673859359     -1.11726989045510
  N   1.93908102472319     -0.11488518161473      0.45937313458750
  H   2.31528299645466      0.49451394630649     -0.25463073815002
  H   2.65605028197461     -0.78941659989533      0.68816753936957
  N   -1.69442825054927     -0.74336599344027     -0.06925463813231
  O   -1.91045420721348     -0.80960538544589     -1.27896474546533
  O   -2.36761686220299     -1.28892901222407      0.80423253642031
  C   -0.50599237132909      1.40749955841657     -0.25538700236041
  H   -1.42508401093951      1.93875389713936      0.00029413811367
  H   -0.43443909987774      1.34253187304263     -1.34224175289779
  H   0.33738210399748      1.97928496814937      0.13439119189557
