15

C	-0.323288	-0.048301	-1.507629
C	0.0	0.0	0.0
F	-0.078505	1.261329	-1.969292
H	1.092751	0.0	0.0
N	0.490656	-1.021541	-2.095576
H	1.461168	-0.918846	-1.792133
H	0.409105	-1.033329	-3.103678
C	-1.75064	-0.298806	-1.804176
N	-2.877014	-0.490383	-2.074491
N	-0.487647	-1.263637	0.651532
O	0.272536	-2.223037	0.63836
O	-1.627515	-1.243471	1.11891
C	-0.575672	1.15717	0.657759
N	-1.021797	2.101227	1.194821
Br	3.351165	0.0	0.0
