15

C	-0.509793	-0.006936	-1.453615
C	0.0	0.0	0.0
F	-0.13363	-1.256989	-1.96862
H	1.09099	0.0	0.0
N	-1.899325	0.225113	-1.548134
H	-2.214151	0.147909	-2.506725
H	-2.412292	-0.398064	-0.936761
C	0.190435	1.014776	-2.256914
N	0.650262	1.830004	-2.965682
N	-0.482234	-1.274747	0.652047
O	0.352987	-2.114457	0.943395
O	-1.700646	-1.378647	0.826577
C	-0.51936	1.136206	0.744277
N	-0.912609	2.054977	1.361198
Br	3.344119	0.0	0.0
