15

C	-0.493912	0.016454	-1.455184
C	0.0	0.0	0.0
F	0.192833	-0.977157	-2.144408
H	1.092092	0.0	0.0
N	-1.904013	-0.116205	-1.559293
H	-2.198743	0.002722	-2.520611
H	-2.170669	-1.034098	-1.22857
C	-0.103134	1.303559	-2.07112
N	0.150191	2.308514	-2.622848
N	-0.400115	-1.245722	0.745794
O	-0.129364	-1.257171	1.937956
O	-0.922424	-2.16682	0.12184
C	-0.508972	1.14753	0.735079
N	-0.925386	2.077653	1.318806
Br	3.287348	0.0	0.0
