15

C	-0.354567	0.022074	-1.497295
C	0.0	0.0	0.0
F	-1.679413	0.367038	-1.699476
H	1.092177	0.0	0.0
N	0.475107	1.015153	-2.082922
H	1.443159	0.900807	-1.780151
H	0.418253	0.993948	-3.092139
C	-0.214595	-1.336962	-2.088361
N	-0.100388	-2.371774	-2.632629
N	-0.544655	-1.236713	0.646659
O	0.248702	-2.140079	0.87854
O	-1.756173	-1.258599	0.855251
C	-0.536706	1.175897	0.664763
N	-0.959264	2.117269	1.224918
Br	3.335166	0.0	0.0
