13

C	-0.042597	-0.008999	-0.00751
C	-0.445194	-0.279956	-1.442716
F	1.353503	0.031353	0.067784
H	-1.542293	-0.317493	-1.383262
H	-0.124653	0.570016	-2.047328
N	-0.439798	1.387887	0.429268
O	-0.532451	2.239689	-0.446634
O	-0.451008	1.590868	1.63433
C	-0.518698	-1.001356	0.952518
N	-0.598917	-1.900751	1.706524
C	0.160263	-1.505519	-1.944086
N	0.628794	-2.487191	-2.386325
F	-2.371996	0.103345	0.162151
