13

C	-0.046623	-0.01091	-0.009428
C	-0.450438	-0.062878	-1.468696
F	1.349866	0.010835	0.069402
H	-0.120107	0.863506	-1.941422
H	-1.547922	-0.09799	-1.415739
N	-0.436554	1.307303	0.630519
O	-0.525362	2.280172	-0.109185
O	-0.445804	1.329428	1.852392
C	-0.527134	-1.132736	0.792836
N	-0.612011	-2.133885	1.404683
C	0.143226	-1.207291	-2.145379
N	0.602878	-2.117686	-2.727334
F	-2.375009	0.086176	0.178797
