13

C	-0.046788	-0.015744	0.000134
C	-0.453232	-0.216404	-1.445508
F	1.349769	0.01471	0.073615
H	-1.550621	-0.242411	-1.387521
H	-0.120084	0.654623	-2.012141
N	-0.436766	1.360763	0.502318
O	-0.442083	1.508344	1.715502
O	-0.530204	2.252304	-0.333126
C	-0.525552	-1.049828	0.913562
N	-0.604773	-1.984449	1.623664
C	0.135455	-1.426545	-2.001427
N	0.596215	-2.38925	-2.490978
F	-2.374599	0.094935	0.185055
