13

C	-0.03735	-0.002854	-0.010995
C	-0.434518	-0.066657	-1.471636
F	1.358402	0.035629	0.074428
H	-1.531032	-0.128291	-1.421292
H	-0.127639	0.867943	-1.943945
N	-0.44529	1.313401	0.622235
O	-0.46125	1.338861	1.843992
O	-0.541066	2.282915	-0.120754
C	-0.508581	-1.12699	0.793501
N	-0.584294	-2.126928	1.408517
C	0.189893	-1.195896	-2.145987
N	0.673724	-2.094588	-2.726539
F	-2.367773	0.070111	0.163739
