13

C	-0.04454	-0.01114	-0.01177
C	-0.450087	0.019276	-1.471162
F	1.352141	0.006491	0.066232
H	-0.122354	0.971956	-1.890403
H	-1.547425	-0.021126	-1.419475
N	-0.43367	1.268684	0.702339
O	-0.441704	1.221617	1.923491
O	-0.523088	2.281924	0.019014
C	-0.523677	-1.176573	0.726578
N	-0.607176	-2.210114	1.282175
C	0.144947	-1.083557	-2.212614
N	0.602236	-1.96094	-2.84496
F	-2.372414	0.074886	0.184464
