17

C	-0.407974	-0.018798	-1.475061
C	0.0	0.0	0.0
Cl	0.190098	-1.651018	-2.151899
H	1.089719	0.0	0.0
N	-1.835511	-0.088211	-1.661794
H	-2.05008	-0.148545	-2.650541
H	-2.241734	0.756786	-1.275859
N	0.252286	1.066783	-2.102711
H	1.236564	1.067241	-1.818394
H	0.188116	0.999628	-3.111531
N	-0.526872	-1.039436	0.815098
H	0.198296	-1.735892	0.928205
H	-1.345479	-1.451184	0.387288
N	-0.474861	1.334418	0.536569
O	0.341951	2.238627	0.67067
O	-1.678057	1.435708	0.80965
H	2.804165	0.0	0.0
