17

C	-0.337091	-0.073666	-1.490709
C	0.0	0.0	0.0
Cl	-0.036925	1.72299	-2.189947
H	1.089418	0.0	0.0
N	0.603511	-0.950384	-2.054876
H	1.54015	-0.735102	-1.682512
H	0.607372	-0.901292	-3.065995
N	-1.678414	-0.435118	-1.776901
H	-1.818964	-0.51785	-2.776637
H	-2.293815	0.275628	-1.400403
N	-0.445843	-1.158024	0.725755
H	-1.154446	-1.648258	0.194694
H	0.360488	-1.758365	0.852436
N	-0.60874	1.197284	0.652708
O	-1.818426	1.377046	0.468483
O	0.091088	1.888166	1.38245
H	2.789074	0.0	0.0
