17

C	-0.184115	-0.044939	-1.519479
C	0.0	0.0	0.0
Cl	-1.92446	-0.317278	-2.029412
H	1.093569	0.0	0.0
N	0.213782	1.226879	-2.068165
H	0.314677	1.134152	-3.072904
H	1.130395	1.439429	-1.670326
N	0.553943	-1.220683	-1.925835
H	0.591444	-1.253515	-2.939265
H	1.509451	-1.082133	-1.564168
N	-0.492332	-1.104462	0.752905
H	0.203177	-1.83718	0.700349
H	-1.360324	-1.445846	0.359358
N	-0.54717	1.270692	0.552414
O	-1.715118	1.253982	0.943421
O	0.189541	2.254886	0.582764
H	2.761282	0.0	0.0
