17

C	-0.42948	-0.021683	-1.467794
C	0.0	0.0	0.0
Cl	0.203214	-1.624673	-2.165293
H	1.089701	0.0	0.0
N	-1.858021	-0.132118	-1.623374
H	-2.093341	-0.216303	-2.602879
H	-2.281415	0.70465	-1.239524
N	0.176458	1.092511	-2.100578
H	1.165942	1.121877	-1.849039
H	0.08309	1.031427	-3.106006
N	-0.499586	-1.053732	0.814214
H	0.246838	-1.724151	0.934199
H	-1.304936	-1.491015	0.389368
N	-0.490848	1.319571	0.55435
O	0.307319	2.243318	0.662394
O	-1.685774	1.389059	0.865913
H	2.794724	0.0	0.0
