14
Coordinates from ORCA-job run
  C   0.37385384920909      0.53056426463111     -0.20592061457270
  C   -1.00813976517626      0.03093666137795      0.24742826589507
  H   0.31430930042110      0.76812862919970     -1.27582889860362
  H   -1.72092962046000      0.86620345561804      0.21372025993579
  H   -0.93033648959158     -0.28579821579737      1.29172395734390
  C   1.46337798931100     -0.51987048294585      0.01428290945614
  H   1.16996948356602     -1.44122772619291     -0.48728022562259
  H   2.42309272728562     -0.18063629575888     -0.37956814226772
  H   1.58281103270944     -0.72176036056895      1.08153573317309
  C   0.69525999900996      1.77593019290042      0.49601850888230
  N   0.94187155519601      2.76051629665507      1.08628107366319
  N   -1.39907886001780     -1.11821721905712     -0.56360261726847
  H   -2.10360070460829     -1.66254223681967     -0.08348191973415
  H   -1.80446049685432     -0.80322696324153     -1.43630829028022
