14
Coordinates from ORCA-job run
  C   0.40528750460781      0.38967000809604     -0.11963800068916
  C   -0.83356597704140     -0.51148143082782     -0.07107371124362
  H   0.26351645528713      1.12027534918289     -0.92614678107988
  H   -0.73198928998583     -1.19230417023597      0.77915473782118
  H   -0.83395031194497     -1.12688958337332     -0.98384740697221
  C   1.68342708809679     -0.40977045989362     -0.38781235140452
  H   2.55509521683039      0.24485826591528     -0.43235684028007
  H   1.60169009665203     -0.94032640812397     -1.33935269337697
  H   1.84828991250460     -1.14290295137146      0.40486769260570
  C   0.52439746329687      1.14217076605693      1.13199688242872
  N   0.67165012446666      1.71311289767409      2.14687361640128
  N   -2.03506836507533      0.28982859086475      0.11613424298703
  H   -2.31844362350882      0.70819872287730     -0.76093968283318
  H   -2.80033629418595     -0.28543959684112      0.44214029563570
