14
Coordinates from ORCA-job run
  C   0.43980627183604      0.49850054906378     -0.28721525617368
  C   -1.03942141636367      0.21315790265356      0.01382971401884
  H   0.54471155802161      0.56211423928345     -1.37565123649257
  H   -1.18589548230655      0.23360422096396      1.10343778273455
  H   -1.64085347461323      1.02322126088435     -0.40646826797454
  C   1.35673475999448     -0.60704018508788      0.23932255539897
  H   2.40417000229672     -0.38141873261328      0.03275215335380
  H   1.23957236823525     -0.72138097206617      1.32043668238389
  H   1.10596273973564     -1.54845912408901     -0.25128330703621
  C   0.81303768357008      1.79515340737879      0.28385033985157
  N   1.09290317127240      2.82799368169670      0.76738518194018
  N   -1.43207179998859     -1.04494746943943     -0.61587535472841
  H   -1.28279619903124     -1.81909989134944      0.01788605539445
  H   -2.41786018265894     -1.02939888727940     -0.84040704267085
