14
Coordinates from ORCA-job run
  C   0.41584644991849      0.35946251758121     -0.18224976777778
  C   -0.82419617514439     -0.52316398474519      0.00195059598720
  H   0.32224974185283      0.88199985665332     -1.14256838217803
  H   -0.76464946884322     -1.33880572077532     -0.73488566348698
  H   -0.77815288184251     -0.97952797580911      0.99501796503817
  C   1.70749160140732     -0.46304701296345     -0.18422023779531
  H   1.82293055984652     -0.99535006644727      0.76262269709462
  H   1.68411504776589     -1.19675094299097     -0.99343033890947
  H   2.58092856405493      0.17563989175483     -0.32411651538572
  C   0.45675456437378      1.38027701911836      0.86796977733132
  N   0.49898208564843      2.16514420974831      1.73964400724924
  N   -2.03549146453820      0.28011723111204     -0.08565108882446
  H   -2.26943510527432      0.46000413183334     -1.05380276369947
  H   -2.81737351922555     -0.20499915407011      0.33371971535668
