16

C	-0.396807	0.042234	-1.464539
C	0.0	0.0	0.0
Br	0.64902	1.430298	-2.442448
H	1.11538	0.0	0.0
C	-0.034741	-1.291497	-2.117103
H	-0.647904	-2.091127	-1.698665
H	1.018816	-1.493613	-1.910851
H	-0.195493	-1.235174	-3.194352
C	-1.803278	0.362298	-1.68117
N	-2.949828	0.518869	-1.897707
C	-0.392399	-1.222798	0.653489
N	-0.647576	-2.266149	1.137844
N	-0.409512	1.141313	0.79217
O	-0.78006	2.168189	0.204963
O	-0.224864	1.050878	2.01466
H	2.32604	0.0	0.0
