16

C	-0.466199	0.061835	-1.447271
C	0.0	0.0	0.0
F	-0.003991	-1.069544	-2.136855
H	1.090367	0.0	0.0
N	-1.874572	0.230965	-1.593548
H	-2.316649	-0.593262	-1.202934
H	-2.119074	0.325262	-2.57258
C	0.197854	1.221716	-2.088286
N	0.659246	2.128614	-2.676351
N	-0.516326	-1.230747	0.681813
O	-1.383923	-1.930579	0.133085
O	-0.043267	-1.481463	1.78072
N	-0.407028	1.150616	0.755563
H	-1.158372	1.664297	0.314235
H	0.40674	1.731803	0.90514
F	2.529217	0.0	0.0
