16

C	-0.629692	-0.081758	-1.381309
C	0.0	0.0	0.0
F	-2.03513	-0.348995	-1.203717
H	1.091912	0.0	0.0
N	-0.428862	1.141209	-2.046487
H	-0.611702	1.888922	-1.38671
H	-0.995393	1.200869	-2.881184
C	-0.153421	-1.179987	-2.244855
N	0.159842	-1.979674	-3.044742
N	-0.416678	-1.204692	0.779316
O	-0.296706	-2.298722	0.232666
O	-0.814414	-1.050097	1.937474
N	-0.396119	1.223202	0.642573
H	-1.190718	1.073649	1.251283
H	0.391226	1.521828	1.205064
F	2.509487	0.0	0.0
