16

C	-0.62631	-0.052962	-1.384594
C	0.0	0.0	0.0
F	-2.031567	-0.321039	-1.216313
H	1.088612	0.0	0.0
N	-0.421214	1.183203	-2.023103
H	-0.980971	1.261265	-2.861741
H	-0.605213	1.918706	-1.349076
C	-0.148054	-1.132083	-2.271207
N	0.15613	-1.916229	-3.089759
N	-0.417673	-1.218963	0.755144
O	-0.324937	-2.29979	0.178216
O	-0.789274	-1.089182	1.92449
N	-0.396099	1.21032	0.666399
H	0.387732	1.492319	1.241812
H	-1.197145	1.052979	1.265521
F	2.509868	0.0	0.0
