16

C	-0.591658	-0.011474	-1.401404
C	0.0	0.0	0.0
F	-1.996745	-0.306024	-1.287423
H	1.090523	0.0	0.0
N	-0.383846	1.249055	-1.988974
H	-0.601186	1.959211	-1.29926
H	-0.911131	1.348918	-2.84535
C	-0.068314	-1.052054	-2.308369
N	0.269002	-1.811981	-3.136647
N	-0.427387	-1.243322	0.705482
O	-0.844788	-1.151744	1.863719
O	-0.299952	-2.306031	0.10236
N	-0.410103	1.187467	0.697852
H	-1.203463	0.998859	1.297633
H	0.371239	1.465804	1.277651
F	2.509092	0.0	0.0
