16

C	-0.098138	0.040427	-1.545831
C	0.0	0.0	0.0
F	0.091588	1.425289	-1.862929
H	1.098015	0.0	0.0
N	0.930253	-0.783576	-2.01491
H	1.07414	-0.697706	-3.011639
H	1.79018	-0.596807	-1.449551
C	-1.401658	-0.258998	-2.183049
N	-2.417051	-0.428772	-2.749287
N	-0.529685	-1.311288	0.479941
O	-1.743617	-1.492356	0.332582
O	0.237906	-2.099765	1.026152
N	-0.624231	1.044056	0.740428
H	0.015809	1.82632	0.753159
H	-1.498372	1.33417	0.318065
F	2.65814	0.0	0.0
