16

C	-0.454039	0.069054	-1.450489
C	0.0	0.0	0.0
F	0.000922	-1.063396	-2.138468
H	1.09201	0.0	0.0
N	-1.861487	0.25308	-1.61088
H	-2.091325	0.338669	-2.593691
H	-2.313593	-0.565641	-1.220449
C	0.226654	1.226777	-2.080148
N	0.683393	2.148456	-2.644958
N	-0.52035	-1.235021	0.669099
O	-1.397484	-1.920143	0.118022
O	-0.043448	-1.50001	1.764696
N	-0.416748	1.142683	0.760043
H	-1.167449	1.654062	0.316895
H	0.390588	1.729267	0.917367
F	2.530758	0.0	0.0
