15

C	0.0	0.0	0.0
C	-0.481486	-0.225032	-1.459737
Cl	1.785687	0.0	0.0
H	0.3795	-0.555128	-2.050717
H	-0.292058	-0.910811	0.522522
C	-0.580735	1.205308	0.69757
H	-0.260448	2.134104	0.219444
H	-1.671975	1.070171	0.616792
H	-0.27041	1.21898	1.7459
C	-0.895533	1.059079	-2.078792
N	-1.1898	2.041696	-2.652631
N	-1.491691	-1.26821	-1.485401
H	-2.295416	-0.876579	-0.90207
H	-1.811511	-1.369706	-2.4442
F	-3.107514	0.0	0.0
