15

C	0.0	0.0	0.0
C	-0.425278	0.07374	-1.492222
Cl	1.789448	0.0	0.0
H	0.406266	-0.324615	-2.084054
H	-0.293476	-1.002585	0.314575
C	-0.634216	1.031137	0.896194
H	-0.362329	0.849103	1.939391
H	-1.72138	0.89324	0.759328
H	-0.330436	2.042963	0.618669
C	-0.541146	1.495616	-1.910276
N	-0.662799	2.608638	-2.269286
N	-1.593819	-0.745089	-1.729374
H	-2.37577	-0.457557	-1.046195
H	-1.913976	-0.578251	-2.678065
F	-3.273657	0.0	0.0
