15

C	0.0	0.0	0.0
C	-0.62942	0.050031	-1.377541
Cl	1.7937	0.0	0.0
H	-1.73051	0.014152	-1.052626
H	-0.297652	-0.948374	0.449005
C	-0.49294	1.143547	0.866567
H	-0.099865	1.045157	1.88236
H	-1.585548	1.047473	0.846421
H	-0.173874	2.096481	0.442872
C	-0.300491	-1.140269	-2.169326
N	-0.066601	-2.074357	-2.846205
N	-0.331327	1.297809	-2.07526
H	-1.039416	1.452634	-2.78249
H	0.568611	1.235558	-2.538702
F	-2.923502	0.0	0.0
