15

C	0.0	0.0	0.0
C	-0.597601	-0.003697	-1.393508
Cl	1.793798	0.0	0.0
H	-1.701083	0.002634	-1.104123
H	-0.308581	-0.926067	0.48482
C	-0.496536	1.183651	0.806236
H	-0.159865	2.115927	0.351219
H	-1.589527	1.089636	0.770704
H	-0.122968	1.123405	1.832244
C	-0.275177	-1.244168	-2.112781
N	-0.025184	-2.201314	-2.750039
N	-0.223669	1.192179	-2.144434
H	0.731164	1.102265	-2.477369
H	-0.82881	1.27732	-2.951746
F	-2.902069	0.0	0.0
