17

C	0.0	0.0	0.0
C	-0.59089	0.217551	-1.392462
F	1.389224	0.0	0.0
H	-1.688554	0.319109	-1.108296
C	-0.38827	1.140898	0.862143
N	-0.546689	2.056383	1.579917
C	-0.475838	-1.296292	0.628782
H	-0.12452	-1.342553	1.66248
H	-0.054666	-2.141797	0.07989
H	-1.570655	-1.256495	0.576554
C	-0.403147	-0.983814	-2.319862
H	0.636398	-1.324812	-2.342775
H	-0.699225	-0.718489	-3.337321
H	-1.047562	-1.79799	-1.986075
C	-0.04818	1.426747	-1.994638
N	0.386111	2.383586	-2.522872
F	-2.827442	0.0	0.0
