17

C	0.0	0.0	0.0
C	-0.436371	0.006348	-1.489559
F	1.392548	0.0	0.0
H	0.504184	-0.154279	-2.0357
C	-0.41643	1.214373	0.719605
N	-0.505806	2.204038	1.34574
C	-0.382088	-1.251432	0.778594
H	0.027568	-2.121781	0.257459
H	-1.470043	-1.275037	0.820809
H	0.074993	-1.190213	1.771152
C	-1.064212	1.319387	-1.958319
H	-1.992322	1.419911	-1.392503
H	-1.263387	1.278895	-3.033811
H	-0.38606	2.155366	-1.763039
C	-1.29435	-1.128106	-1.839683
N	-1.814275	-2.074118	-2.301294
F	-2.550029	0.0	0.0
