17

C	0.0	0.0	0.0
C	-0.434789	0.013649	-1.494926
F	1.392533	0.0	0.0
H	0.513306	-0.084423	-2.042219
C	-0.415363	1.224253	0.705743
N	-0.536509	2.228373	1.303296
C	-0.407486	-1.237176	0.78158
H	0.004562	-2.118016	0.281148
H	0.020045	-1.169116	1.785966
H	-1.499414	-1.240873	0.792402
C	-1.148547	1.289123	-1.948053
H	-1.361575	1.235196	-3.019718
H	-0.520396	2.164428	-1.761121
H	-2.070214	1.325004	-1.363933
C	-1.224135	-1.165693	-1.859825
N	-1.711584	-2.136698	-2.306259
F	-2.599519	0.0	0.0
