17

C	0.0	0.0	0.0
C	-0.596546	0.228047	-1.387781
F	1.389272	0.0	0.0
H	-1.691456	0.330238	-1.095033
C	-0.389144	1.139162	0.865887
N	-0.556746	2.068281	1.564403
C	-0.474916	-1.300514	0.625391
H	-0.059293	-2.14285	0.067961
H	-1.570283	-1.256003	0.57582
H	-0.116898	-1.35148	1.6566
C	-0.418135	-0.966785	-2.32464
H	-0.716987	-0.693634	-3.339791
H	0.619796	-1.313426	-2.352665
H	-1.065546	-1.780093	-1.993864
C	-0.051552	1.440063	-1.984949
N	0.389523	2.390829	-2.518768
F	-2.829257	0.0	0.0
