17

C	0.0	0.0	0.0
C	-0.436581	0.113686	-1.490052
F	1.392499	0.0	0.0
H	0.510979	0.051928	-2.04428
C	-0.414693	1.174618	0.786138
N	-0.537002	2.134813	1.451744
C	-0.409734	-1.285595	0.697343
H	0.015917	-1.284954	1.704737
H	0.001378	-2.131955	0.140005
H	-1.501917	-1.286828	0.705563
C	-1.15189	1.416076	-1.855412
H	-2.06905	1.414729	-1.262938
H	-1.374479	1.427911	-2.926445
H	-0.520201	2.277414	-1.619693
C	-1.226246	-1.038628	-1.933316
N	-1.715857	-1.976207	-2.444455
F	-2.604099	0.0	0.0
