17

C	0.0	0.0	0.0
C	-0.43626	0.13491	-1.487086
F	1.392661	0.0	0.0
H	0.511484	0.083709	-2.041804
C	-0.416001	1.161831	0.803643
N	-0.536824	2.107333	1.489773
C	-0.407928	-1.296371	0.679318
H	-1.500022	-1.299231	0.68984
H	0.002814	-2.134683	0.109139
H	0.019707	-1.309621	1.68581
C	-1.152673	1.442996	-1.83339
H	-2.071956	1.431517	-1.243896
H	-1.370383	1.47318	-2.905096
H	-0.52333	2.301506	-1.581322
C	-1.223401	-1.012825	-1.949041
N	-1.710037	-1.943775	-2.475842
F	-2.600558	0.0	0.0
