17

C	-0.317641	-0.072981	-1.504247
C	0.0	0.0	0.0
Cl	-2.075934	-0.512839	-1.779545
H	1.093462	0.0	0.0
C	-0.194264	1.277699	-2.086381
N	-0.066904	2.319918	-2.616433
N	0.516772	-1.037776	-2.135707
H	1.443331	-1.030532	-1.707322
H	0.584222	-0.874241	-3.13163
N	-0.436028	-1.279112	0.643697
O	0.219269	-2.286668	0.395116
O	-1.423537	-1.24253	1.38169
C	-0.576152	1.194488	0.717941
H	-0.350951	1.116404	1.781662
H	-0.101318	2.10023	0.338974
H	-1.657954	1.260562	0.595805
Cl	3.267343	0.0	0.0
