17

C	-0.543363	-0.078849	-1.435654
C	0.0	0.0	0.0
Cl	-0.001458	1.455932	-2.303207
H	1.0901	0.0	0.0
C	0.022334	-1.164436	-2.247503
N	0.363569	-1.986132	-3.014426
N	-1.961499	-0.229031	-1.426234
H	-2.32631	-0.293629	-2.368668
H	-2.395741	0.552984	-0.95265
N	-0.436664	-1.267529	0.682354
O	-1.151029	-1.184254	1.681988
O	-0.043576	-2.320181	0.189516
C	-0.471061	1.204507	0.790787
H	-0.038433	1.140643	1.788894
H	-1.556367	1.256782	0.904519
H	-0.094245	2.111611	0.320616
Cl	3.255221	0.0	0.0
