17

C	-0.323214	0.052755	-1.502141
C	0.0	0.0	0.0
Cl	-0.081836	-1.639685	-2.214563
H	1.092251	0.0	0.0
C	-1.714377	0.404683	-1.819824
N	-2.808706	0.728068	-2.103995
N	0.561113	1.013681	-2.051957
H	0.500276	1.048235	-3.060337
H	1.520672	0.819662	-1.754323
N	-0.561311	-1.217139	0.638866
O	-1.772039	-1.401303	0.488588
O	0.186913	-1.922389	1.307448
C	-0.52411	1.214365	0.745577
H	-0.172515	1.170092	1.779162
H	-1.616032	1.248946	0.731858
H	-0.118872	2.113807	0.282627
Cl	3.317552	0.0	0.0
