17

C	-0.487849	-0.040355	-1.452116
C	0.0	0.0	0.0
Cl	-2.377388	-0.439812	-1.370212
H	1.093998	0.0	0.0
C	-0.504336	1.298623	-2.051076
N	-0.524094	2.355052	-2.565939
N	0.216208	-0.914343	-2.266804
H	-0.16693	-1.015089	-3.194834
H	0.43118	-1.787607	-1.809068
N	-0.373587	-1.290182	0.671169
O	-0.954209	-1.243916	1.749746
O	-0.037925	-2.335128	0.112403
C	-0.498289	1.184317	0.793932
H	-0.104945	2.095335	0.342266
H	-0.10401	1.120153	1.806247
H	-1.58644	1.228996	0.836339
Cl	3.243894	0.0	0.0
