17

C	-0.326731	-0.082141	-1.503072
C	0.0	0.0	0.0
Cl	-2.072806	-0.595449	-1.755827
H	1.093458	0.0	0.0
C	-0.274144	1.272972	-2.085755
N	-0.209283	2.319745	-2.617483
N	0.541359	-1.00419	-2.147903
H	0.613072	-0.822421	-3.139955
H	1.462896	-0.990962	-1.709624
N	-0.425668	-1.279717	0.651667
O	0.205003	-2.292539	0.364675
O	-1.378535	-1.238403	1.433123
C	-0.577802	1.193736	0.717587
H	-0.336251	1.125058	1.778452
H	-1.662438	1.247105	0.610693
H	-0.119018	2.102351	0.325213
Cl	3.267848	0.0	0.0
