17

C	-0.511884	0.002549	-1.446506
C	0.0	0.0	0.0
Cl	0.158242	1.466944	-2.245949
H	1.090369	0.0	0.0
C	0.012917	-1.13831	-2.223999
N	0.31873	-2.032545	-2.92339
N	-1.957035	0.105627	-1.516342
H	-2.231512	0.195096	-2.488852
H	-2.331843	-0.766713	-1.157406
N	-0.415853	-1.266179	0.690056
O	-0.031896	-1.413462	1.843375
O	-1.124001	-2.081047	0.084563
C	-0.500833	1.165845	0.835947
H	-0.046925	1.094299	1.823426
H	-1.589327	1.165016	0.91555
H	-0.176794	2.099903	0.380355
Cl	3.257864	0.0	0.0
