17

C	-0.536504	-0.047209	-1.43877
C	0.0	0.0	0.0
Cl	0.012943	1.507832	-2.269232
H	1.090106	0.0	0.0
C	0.035397	-1.115255	-2.268151
N	0.384557	-1.91836	-3.051186
N	-1.953682	-0.197144	-1.441996
H	-2.314276	-0.231502	-2.387227
H	-2.391656	0.565733	-0.942196
N	-0.44734	-1.279279	0.650382
O	-1.209658	-1.214585	1.615596
O	-0.026026	-2.321865	0.16166
C	-0.466053	1.190415	0.813803
H	-0.052675	2.099614	0.381428
H	-0.062777	1.086697	1.820598
H	-1.551381	1.269425	0.900096
Cl	3.26007	0.0	0.0
