17

C	-0.544104	-0.006161	-1.442635
C	0.0	0.0	0.0
Cl	0.179895	1.431854	-2.250398
H	1.090264	0.0	0.0
C	-0.074143	-1.183206	-2.187932
N	0.212931	-2.124047	-2.82884
N	-1.98022	0.090572	-1.61761
H	-2.308216	0.937366	-1.16677
H	-2.395733	-0.715144	-1.162551
N	-0.423413	-1.249091	0.714317
O	-1.197177	-2.033998	0.152745
O	0.011435	-1.404756	1.849165
C	-0.477256	1.170663	0.845396
H	0.041021	1.129018	1.802423
H	-0.214516	2.109172	0.359683
H	-1.556651	1.137234	1.024749
Cl	3.251961	0.0	0.0
