17

C	-0.481102	0.025512	-1.457104
C	0.0	0.0	0.0
Cl	-2.343211	-0.495516	-1.427559
H	1.093815	0.0	0.0
C	-0.583551	1.396267	-1.968517
N	-0.649349	2.492769	-2.386581
N	0.291775	-0.74631	-2.307664
H	0.598697	-1.61464	-1.89477
H	-0.064456	-0.829641	-3.247347
N	-0.366489	-1.328955	0.594898
O	0.001613	-2.333143	-0.016363
O	-0.977347	-1.352303	1.65991
C	-0.51712	1.13451	0.851637
H	-0.140933	1.015417	1.866496
H	-1.607349	1.16807	0.877862
H	-0.125034	2.07262	0.457551
Cl	3.244566	0.0	0.0
