17
Coordinates from ORCA-job run
  C   0.72388251723056      0.15354396612521      0.58432118968866
  C   -0.71843218679892      0.26232811973790      0.07094263245726
  Br  0.80854322081473      0.03027970419171      2.49496036089129
  H   -1.12594607582563      1.08418273217281      0.66736505678888
  N   1.51214943007163     -0.99744897586746     -0.03374465048497
  O   2.53867801519795     -1.34750682297294      0.52570882446751
  O   1.06426132535267     -1.44415046795270     -1.08603243301130
  N   1.45486583647734      1.42912375958283      0.13960392144811
  O   2.37920686757780      1.29627519469350     -0.64599589398586
  O   1.00170289448410      2.46469681786868      0.59478334972345
  C   -1.55046613843325     -0.99270400823218      0.32609129733997
  H   -1.53574083218337     -1.29555169718490      1.37431284108148
  H   -2.58589805379668     -0.77876779081444      0.05187455758505
  H   -1.20098425910511     -1.82240059894505     -0.28875397626900
  N   -0.66963323652791      0.72609331990329     -1.30512541094876
  H   -0.60834815124904     -0.05057713927211     -1.94886394878628
  H   -1.48684117328687      1.28058388696586     -1.51944771798551
