17
Coordinates from ORCA-job run
  C   0.81850502295293      0.56318003813523     -0.09068401050597
  C   -0.70678581629901      0.37661753233494     -0.18837443189346
  Br  1.37450574801645      2.22498950339091     -0.85347874782695
  H   -1.09613977715456      1.33609574432967      0.16561346203723
  N   1.19456259601495      0.52418879134431      1.38884009908524
  O   1.73905033282588     -0.49554241825378      1.79371764195500
  O   0.81646056981880      1.47621554292310      2.05445978784860
  N   1.61556316232007     -0.56452622438478     -0.74029132384934
  O   2.81683590497194     -0.38989057941470     -0.86524547709323
  O   0.98805054331637     -1.57493753604620     -1.04081182306953
  C   -1.25492840783507     -0.71531284419573      0.73437622643534
  H   -2.33938710177680     -0.74289446197574      0.60573878800012
  H   -1.05706570133154     -0.50639915202062      1.78786752903040
  H   -0.85070992878355     -1.69488993428207      0.48416821352792
  N   -1.04551966803522      0.24752906576672     -1.59286561540878
  H   -1.06611646894893     -0.72634918872046     -1.86415120560393
  H   -1.94688101007269      0.66392612106920     -1.77887911266865
