17
Coordinates from ORCA-job run
  C   0.81168904545802      0.50835079834771      0.01230709751914
  C   -0.70567785851229      0.35468972135484     -0.17508349487629
  Br  1.43982107896841      2.13469885156751     -0.80001708443521
  H   -1.12833256552372      1.28790707865742      0.21761443688693
  N   1.23266063267838      0.59393154497492      1.47227317392007
  O   0.40352055366615      1.06393710945281      2.24176385450205
  O   2.37507982850013      0.24906495880326      1.73684786758908
  N   1.52938763267660     -0.70345267579064     -0.56854334045581
  O   2.17247443656366     -0.58773891321432     -1.59482082352460
  O   1.33558515872521     -1.72588990311546      0.08032838063760
  C   -1.33212333841756     -0.81342209309873      0.57902888368691
  H   -1.06311764587959     -0.82292414355614      1.63295615613262
  H   -2.41825176689609     -0.70308122747954      0.51368621966131
  H   -1.04855086901027     -1.76277721053734      0.12732473847885
  N   -0.91365378389981      0.15679615758939     -1.60300397967902
  H   -0.86841538898459      1.03107069256029     -2.11046834544484
  H   -1.82209515011263     -0.25816074651596     -1.76319374059879
