17
Coordinates from ORCA-job run
  C   0.85081564955561     -0.08091046268614     -0.07964400458647
  C   -0.65602822713634      0.15555254216858      0.04427832240595
  Br  1.32456941817816     -1.22424622975180     -1.53118553387175
  H   -0.76260142027631      0.70844818314325      0.98121572428668
  N   1.51484012334521      1.29976344104259     -0.22210340566156
  O   2.09094398614842      1.59196366542698     -1.24994150499141
  O   1.35908997613474      1.99291226043243      0.77628606709344
  N   1.48694640880565     -0.62762685048099      1.19940843405417
  O   2.70296711195595     -0.75318702714050      1.17591222979754
  O   0.74122501629556     -0.85331257435704      2.14493830280622
  C   -1.48287845418625     -1.12293965391303      0.10994539569776
  H   -2.51990504657416     -0.85083263525315      0.32117243981005
  H   -1.14138906818821     -1.79873327362553      0.89354176524159
  H   -1.45919875707561     -1.64751560092237     -0.84702941482063
  N   -1.00746515006741      1.05912653489524     -1.04233231368046
  H   -1.81567834057418      1.61200612089253     -0.79050640578942
  H   -1.22625322634083      0.53953156012895     -1.88395609779171
