17
Coordinates from ORCA-job run
  C   0.76286500809921      0.51545143147238      0.00923543741687
  C   -0.78192338171780      0.38126904151024     -0.11496615650297
  Br  1.44519045129681      2.03081362894437     -0.94985186115475
  H   -1.17016321023980      1.23520335750356      0.44637125117551
  N   1.24534517949501      0.68499174646347      1.44991446036399
  O   0.38704459777884      0.91864384267736      2.29313566602236
  O   2.45143417253765      0.61012787823328      1.62673056934344
  N   1.38669767449068     -0.77204899177592     -0.50210305439699
  O   1.50211394526372     -0.88068300527790     -1.71595846601416
  O   1.59307864862761     -1.63802326745234      0.33973696879817
  C   -1.28026423265536     -0.91206424759801      0.52222903034923
  H   -2.36878399892948     -0.86300376765720      0.54995288018753
  H   -0.90442884375422     -1.05651032424703      1.53302020251153
  H   -1.00127431507155     -1.77870748011219     -0.08283781079722
  N   -1.28725369593952      0.45914279900534     -1.46432465930915
  H   -1.06994369040654      1.34640669127618     -1.89765058848136
  H   -0.90973430887528     -0.28100933296558     -2.04363386951203
