17
Coordinates from ORCA-job run
  C   0.85513593292529     -0.11062843477520     -0.07591486501149
  C   -0.65832710649771      0.13489314395776      0.04395124263528
  Br  1.33163345758241     -1.33476118128265     -1.45388517272673
  H   -0.77027456163537      0.68275661562103      0.98296005323709
  N   1.51022143353748      1.26022738949159     -0.30175747822150
  O   2.17299097055932      1.46594243891180     -1.29815097088123
  O   1.26835780805279      2.04407338503232      0.61089441657925
  N   1.50184455729362     -0.57746049462028      1.22726169614173
  O   2.72462001547346     -0.57368421638856      1.24798686028537
  O   0.75090280810300     -0.89379951908920      2.14280650665797
  C   -1.48834279336252     -1.13795306261719      0.10437866658255
  H   -2.52440401711751     -0.86232168626973      0.31445245919033
  H   -1.14509954278211     -1.81450196958451      0.88546965621767
  H   -1.46079256559010     -1.66204748793086     -0.85290604140238
  N   -1.01228036936009      0.99068139529012     -1.07774565761632
  H   -1.42541140846555      1.85953923888657     -0.77365371544145
  H   -1.63177461871641      0.52704444536699     -1.72614765622612
