17
Coordinates from ORCA-job run
  C   0.83497031604147      0.47052095952705     -0.00433387073543
  C   -0.68139895043067      0.36824483387192     -0.23271713796721
  Br  1.56586666571081      1.98557493660512     -0.93640645619467
  H   -1.07137126307429      1.35159089317417      0.05794116790887
  N   1.21025906114584      0.67111862798764      1.45657655976309
  O   0.38097066294029      1.25158775332018      2.14644156085890
  O   2.32277282590637      0.29619739174897      1.79695613848989
  N   1.51227478252671     -0.82045713956392     -0.44677769716040
  O   1.24732762979872     -1.76992279184322      0.28281464184239
  O   2.19580188345327     -0.82719717492852     -1.45325331388896
  C   -1.38689636791309     -0.69588621032316      0.60133026562447
  H   -1.13656436464081     -1.69469594452410      0.24713224827338
  H   -1.15044615166149     -0.62155895128350      1.66048635637463
  H   -2.46383434177422     -0.54202909014337      0.48922680682666
  N   -0.85224381505429      0.04946494765715     -1.64349194940552
  H   -0.75733950434389      0.87181442087298     -2.22529919629992
  H   -1.77014906863071     -0.34636746215538     -1.79762612431019
