17
Coordinates from ORCA-job run
  C   0.85693634224310      0.06712405799226     -0.13117727388207
  C   -0.67428998929780      0.15868555923249     -0.02214348344223
  Br  1.48741143901323     -0.48247506975674     -1.83671498849636
  H   -0.84658464761545      0.57433396765234      0.97943262658295
  N   1.52714692731619      1.39985553814933      0.21753404594206
  O   0.79455999875121      2.36549672663688      0.39854227108542
  O   2.74542437545132      1.37707301530997      0.30479989294464
  N   1.34251577114137     -0.86308303772906      0.98162346968440
  O   1.75908255304170     -1.97352115068644      0.69972507165944
  O   1.18120346104445     -0.39204726435476      2.10410692541102
  C   -1.29828134150518     -1.22816202698164     -0.10031915030957
  H   -1.11170307518025     -1.68042515569776     -1.07561861237862
  H   -0.92855756513735     -1.89672237398031      0.67761198502967
  H   -2.37793604768574     -1.13221466482710      0.03867792170220
  N   -1.17880824391076      0.99762858224545     -1.08799187435330
  H   -1.15508091129722      1.97151831714088     -0.82130628432760
  H   -2.12503904637283      0.73693497965422     -1.32778254285204
