17
Coordinates from ORCA-job run
  C   0.85527619653181     -0.05040793021024     -0.04903921124078
  C   -0.66260345483288      0.13189929154522      0.01973127062835
  Br  1.42042719490442     -1.19007576501214     -1.47079869173096
  H   -0.82193725010702      0.69014043133874      0.94594787866379
  N   1.47314411600865      1.35227365244762     -0.18397461575005
  O   1.25500598491962      2.04981681484150      0.79956200838607
  O   2.07617422675634      1.65439540428050     -1.19332460890317
  N   1.46593310433546     -0.56100946825819      1.25669848983636
  O   0.69625999140156     -0.80596395332525      2.17796114410308
  O   2.68588840153205     -0.64060066208700      1.27682324565116
  C   -1.44410631434197     -1.17539352242653      0.07159482673947
  H   -2.49702471911153     -0.93950973206460      0.24431075739209
  H   -1.10578118820984     -1.83083653428862      0.87365062634923
  H   -1.36843350217717     -1.70805588157018     -0.87819687048271
  N   -1.00834657127723      1.01066239060899     -1.08855354475027
  H   -1.17759654831617      0.47524135000843     -1.93163517312149
  H   -1.84427966801610      1.53642411417173     -0.87175753177017
