17
Coordinates from ORCA-job run
  C   0.73595603449019      0.13971199577976      0.57215108283166
  C   -0.71534385377791      0.26536304324761      0.08926126691738
  Br  0.85782905108767     -0.01592172608371      2.47836143247448
  H   -1.10598382414266      1.07989146389827      0.70666488441746
  N   1.50543792087821     -1.00489632383904     -0.08047393293221
  O   1.03332285629228     -1.43340267474965     -1.12980014454768
  O   2.54208907034009     -1.36789425806257      0.45148526505613
  N   1.46552781683052      1.41859936363668      0.13420547549061
  O   1.02836530728091      2.44878339529292      0.61671741342644
  O   2.37148585735214      1.29454428732417     -0.67393778409965
  C   -1.55024749559967     -0.98845242229657      0.34096736439992
  H   -2.58884832645539     -0.76462295260634      0.08737112469189
  H   -1.51961326981252     -1.30563941278317      1.38461555599817
  H   -1.21634213501330     -1.81164564120482     -0.29102861770274
  N   -0.69058648239656      0.75068439824245     -1.28002417556405
  H   -1.50861023384045      1.31295742032678     -1.46958557251482
  H   -0.64643829351355     -0.01605995612278     -1.93695063834299
