17
Coordinates from ORCA-job run
  C   0.68881710016963      0.26351076894578      0.56648568373588
  C   -0.73698521031725      0.20877487444421     -0.01049421785678
  Br  0.72345902829996      0.20787007545141      2.48336909319433
  H   -1.22742001778134      1.10647600498096      0.38989125470382
  N   1.51545478061320     -0.87323428079877     -0.02554152662043
  O   2.20267671438459     -0.59897100910177     -0.99723631404779
  O   1.34536044995211     -1.97430279913022      0.47915277234126
  N   1.40715822192899      1.55770672814296      0.17072168429513
  O   2.57872002325027      1.64754491494111      0.49965003570463
  O   0.74181570375327      2.40467393502193     -0.41681813089854
  C   -1.51231130881686     -1.02585670519501      0.43323396747406
  H   -1.08653228654015     -1.92539867605028     -0.01255496670603
  H   -2.54358905207810     -0.91843158570265      0.08757481333140
  H   -1.52863833424934     -1.14458602647821      1.51429576917551
  N   -0.62047225264205      0.19850747078095     -1.45595876053921
  H   -1.41185270733608     -0.26634999725895     -1.87789953305990
  H   -0.53566085259086      1.13306630700655     -1.82887162422734
