11

C	-0.450192	-0.024745	-1.456396
C	0.0	0.0	0.0
F	-0.07461	1.160659	-2.05813
H	1.093074	0.0	0.0
H	0.046159	-0.843153	-1.984125
H	-0.361648	0.918527	0.469
C	-1.912554	-0.161338	-1.606329
N	-3.075396	-0.257433	-1.73398
C	-0.509797	-1.162889	0.714912
N	-0.927445	-2.11191	1.265523
Cl	3.307097	0.0	0.0
