11

C	-0.449756	0.020446	-1.456458
C	0.0	0.0	0.0
F	-0.07227	1.223365	-2.021529
H	1.093432	0.0	0.0
H	0.045756	-0.782151	-2.008975
H	-0.361938	0.903012	0.497744
C	-1.912251	-0.109544	-1.611207
N	-3.074912	-0.200983	-1.744586
C	-0.511126	-1.18389	0.678885
N	-0.943132	-2.140431	1.204839
Cl	3.307329	0.0	0.0
