11

C	-0.450164	-0.044331	-1.455945
C	0.0	0.0	0.0
F	-0.075247	1.133252	-2.07364
H	1.093131	0.0	0.0
H	0.046472	-0.86958	-1.972751
H	-0.361811	0.924734	0.456467
C	-1.912481	-0.183915	-1.603802
N	-3.07534	-0.283402	-1.729571
C	-0.509588	-1.153161	0.73069
N	-0.92475	-2.094578	1.296067
Cl	3.306437	0.0	0.0
