14
Coordinates from ORCA-job run
  C   0.91183422856063      0.05215388367566     -0.26675441332130
  C   -0.60604669419104     -0.04880439913603     -0.12136583246778
  Cl  1.50559266792109      1.55292637090177      0.48022058996996
  H   -0.93031739600290     -0.91350969170554     -0.72333670202139
  H   1.15292402506363      0.13268246760038     -1.32840462298452
  N   1.50540789325704     -1.07745694815400      0.42501578951322
  H   2.50628979640706     -0.94391416507493      0.50312097181400
  H   1.34486940881200     -1.92005466550001     -0.11813683279862
  N   -1.23008800944660      1.11437836566627     -0.88376263965655
  O   -0.87678130442171      1.21407287721913     -2.05717983808216
  O   -2.04806571669942      1.82025366863651     -0.31333332585475
  N   -0.99647753155160     -0.03614848833157      1.23670139146228
  H   -1.92463731481152     -0.40293164954933      1.38201809759531
  H   -0.31250405289664     -0.54264762624829      1.78419736683232
