14
Coordinates from ORCA-job run
  C   0.76688861662995     -0.51186007499339      0.10758346412400
  C   -0.61150572700875      0.03700735154107     -0.24291797737249
  Cl  0.95677251418677     -2.09662252116354     -0.81393461099223
  H   -0.65583990996408      0.29995048400855     -1.30334227211827
  H   0.77759018031408     -0.79882861419494      1.15973239893308
  N   1.77292845301428      0.43840619066218     -0.14184383291132
  H   1.83502377992651      0.69897250473355     -1.11730412647176
  H   2.67787501641949      0.14422075982214      0.19623161466225
  N   -0.67249908833096      1.38709292567305      0.46956414718796
  O   -0.66178006079576      2.38654173622057     -0.24389513968424
  O   -0.70712341011939      1.36226119523442      1.69176364900855
  N   -1.68642879534713     -0.77644933974904      0.19927723180946
  H   -1.39357618756514     -1.67747945289487      0.54316325758970
  H   -2.39732538135988     -0.89321314489976     -0.50507780376467
