14
Coordinates from ORCA-job run
  C   0.87962924178750     -0.01134302984713     -0.25323670676008
  C   -0.65561855498338     -0.03648643457636     -0.15506319152719
  Cl  1.54029020965465      1.21720628542687      0.85067953287277
  H   -1.00055341722687     -0.79834130458629     -0.86125670840863
  H   1.17431984607439      0.29803567793323     -1.26101533692092
  N   1.35375476903692     -1.31853558793585      0.15849654767538
  H   1.21580686495940     -1.97350168865001     -0.60466368019419
  H   2.34594677410397     -1.28184662486047      0.35776317877525
  N   -1.15833758171608      1.25985179945114     -0.72492331890169
  O   -1.63239173541135      2.08634092250765      0.04523209917300
  O   -1.00243052939668      1.40119587678665     -1.93623535036658
  N   -1.23115481634292     -0.26332103759447      1.12907731222731
  H   -0.80239014687263     -1.09712928172577      1.51460713710258
  H   -1.02787092366691      0.51787442767083      1.74053848525299
