14
Coordinates from ORCA-job run
  C   0.80285577090344     -0.56596292214835      0.10958551125512
  C   -0.55842665180491     -0.00870591610413     -0.27269909024498
  Cl  0.95135802759154     -2.16842863084855     -0.67343249324658
  H   -0.58546558792480      0.13145000517308     -1.35924844124429
  H   0.82476424902591     -0.75166683661796      1.18735377214849
  N   1.84301215825691      0.29624379149174     -0.40675728214496
  H   2.71078622943435     -0.21857988734726     -0.48331535004721
  H   1.98075028217693      1.05634793071531      0.24880736718390
  N   -0.70234181187065      1.38710785449515      0.29015118901899
  O   0.02235491046319      1.73289499411924      1.22036863928767
  O   -1.60340594382525      2.05698841950852     -0.20375241326151
  N   -1.64542072936651     -0.74982925822713      0.31057472277269
  H   -1.52061180843293     -1.73858269742014      0.13760297197286
  H   -2.52120909462723     -0.45927684678953     -0.10623910345018
