14
Coordinates from ORCA-job run
  C   0.85007621493569     -0.52407088730527      0.10677392986277
  C   -0.55516609301349     -0.12326732149872     -0.34011713014238
  Cl  1.29542996678298     -2.02647315420507     -0.82781761187670
  H   -0.58283645119923      0.03324009290238     -1.41947033200533
  H   0.81778528611590     -0.83830471189061      1.15108863636471
  N   1.75684706135081      0.55124431690241     -0.03600765075310
  H   1.86931755727275      0.83181753617105     -1.00215731716005
  H   2.66178293707456      0.33385291830548      0.35728347449030
  N   -0.78780966672821      1.26350321428434      0.26005456928448
  O   -0.71512719641707      2.22921592601733     -0.49167347585025
  O   -1.02787634402433      1.29282081032498      1.46426494544368
  N   -1.53060139008748     -1.06727113892824      0.06221071139559
  H   -2.43126912295927     -0.87668472162026     -0.35475628297721
  H   -1.62155275910363     -1.07962287945982      1.07032353392349
