14
Coordinates from ORCA-job run
  C   0.84038329505668     -0.58180058371185      0.06182044448837
  C   -0.55452736769905     -0.15003997373676     -0.37210674785252
  Cl  1.23324495282960     -2.08506953948458     -0.80418764038186
  H   -0.59559571800314     -0.08385903265411     -1.45843055913051
  H   0.82998058642513     -0.83865467880062      1.12666353691188
  N   1.79391958534930      0.44534741282432     -0.30730663079491
  H   1.84517146780225      1.13110928547809      0.43722865816978
  H   2.71231510812891      0.03821454592489     -0.42459670774226
  N   -0.74241369276510      1.28564267888726      0.10658878316199
  O   -1.27319245924279      2.07990065983698     -0.66208434371427
  O   -0.42228655472639      1.51731076497233      1.27533055944360
  N   -1.57164803112248     -1.00095085674303      0.13480304163221
  H   -2.47725240735616     -0.78923145957789     -0.26098671671108
  H   -1.61809876467674     -0.96691922321503      1.14526432251959
