14
Coordinates from ORCA-job run
  C   0.71927195558419     -0.61269128137529     -0.38580551530851
  C   -0.70393790300209     -0.05580913607009     -0.33273496087142
  Cl  1.50805048793141      0.00172418565231     -1.91969658127952
  H   -1.25030548708547     -0.36351029977049     -1.22355228585847
  H   0.62898184882073     -1.68809654237974     -0.54576320410133
  N   1.44134080771665     -0.37707804659447      0.80680242972408
  H   1.59024173567193      0.61150299717911      0.96117666536838
  H   2.31987068523189     -0.87585401032894      0.81885704411157
  N   -0.66730513473504      1.45945290733453     -0.44372877621564
  O   -1.38113239597752      1.97793397358562     -1.29410255262055
  O   0.03813239593589      2.05795343148294      0.36568572298470
  N   -1.39030473867292     -0.39606423016627      0.86617967734842
  H   -0.74474811815728     -0.65207316748411      1.60006172399220
  H   -2.10715613926237     -1.08939078106509      0.72762061272608
