14
Coordinates from ORCA-job run
  C   0.69774004918025     -0.60490488204059     -0.43144915449841
  C   -0.73906692460057     -0.12333048116353     -0.22515673795467
  Cl  1.22767486488771     -0.09214600776133     -2.10755674685978
  H   -1.37985034446587     -0.53796731664342     -1.00235349256941
  H   0.65810458326955     -1.69384873376533     -0.48612598974832
  N   1.55810022290328     -0.22153180669708      0.62281865557920
  H   1.66324669797827      0.78341806052881      0.67049612991384
  H   2.46020626136114     -0.67116962362090      0.55413030699611
  N   -0.81670766590891      1.37497327735381     -0.46019674706219
  O   -0.05128040497960      2.07834291914079      0.19616233096724
  O   -1.66275936076906      1.77821621018602     -1.24932581258875
  N   -1.23883628596954     -0.39096350894084      1.08105601347700
  H   -1.89202796286350     -1.15749711247098      1.09953100423489
  H   -0.48354373002315     -0.52159099410547      1.73997024011326
