14
Coordinates from ORCA-job run
  C   0.76068246752390     -0.49270185807223      0.17118242763122
  C   -0.59449118529949      0.02102217923312     -0.32367586720933
  Cl  0.96968437131075     -2.16139082732411     -0.58519468493036
  H   -0.56768686791690      0.15104324610077     -1.40673126298253
  H   0.71037706038386     -0.68304255806076      1.24339749768147
  N   1.78948060404632      0.42237448595368     -0.11422325710577
  H   2.67400483026880      0.16153730793671      0.29790121734053
  H   1.90523916650398      0.58731238247094     -1.10568548520270
  N   -0.73352647494070      1.40228046931797      0.25665540617035
  O   -0.66229108528923      2.35809139171310     -0.50578386637926
  O   -0.91028940273881      1.44627794162726      1.47100315096628
  N   -1.76418306861605     -0.71250645054417      0.04872341490458
  H   -1.82867270166135     -1.56817416807961     -0.48469655043575
  H   -1.74932771357510     -0.93112354227265      1.03712785955125
