14
Coordinates from ORCA-job run
  C   0.75946010895660     -0.63512593860957     -0.44814717125353
  C   -0.70418472577271     -0.25535041274602     -0.24713940753555
  Cl  1.24926349727864     -0.08366089140485     -2.12456486959566
  H   -1.31308425953925     -0.67246378687752     -1.04872382605121
  H   0.79223028298914     -1.72305109761005     -0.49495390293119
  N   1.58940942632072     -0.17983474989110      0.60128414831027
  H   2.51284912194266     -0.58610568444018      0.54868615894409
  H   1.64866466609744      0.82948390452686      0.62568712081840
  N   -0.87065014164865      1.25561009418117     -0.43493119309440
  O   -0.24636159215048      1.98533325180659      0.33640200701433
  O   -1.65279564918238      1.63387233074776     -1.30119725355255
  N   -1.13276317280378     -0.71170119171808      1.02297940300909
  H   -2.10290209645931     -0.49708740655867      1.20837789987304
  H   -0.52813546602871     -0.36191842140629      1.75424088604490
