14
Coordinates from ORCA-job run
  C   0.85893203244756     -0.51187472749625      0.07555881447312
  C   -0.57259298504208     -0.13717232245652     -0.30422086775578
  Cl  1.26467456163304     -2.04573456514913     -0.82506023722196
  H   -0.66045971147577     -0.01061372072240     -1.38435306168812
  H   0.89061569839350     -0.78477985784017      1.13140831032092
  N   1.74480358585484      0.56429209072774     -0.16149765066522
  H   2.67151294860776      0.37391911214316      0.19304873645509
  H   1.80326746952449      0.80291881618341     -1.14352319209801
  N   -0.78534733494310      1.26389054219115      0.27008390305812
  O   -0.77310700415216      2.20878432363166     -0.51091347540931
  O   -0.93646279567498      1.32562299279081      1.48748333020350
  N   -1.51639822803978     -1.07623128521218      0.17606916214119
  H   -1.54712228582873     -1.06897843343225      1.18771779919480
  H   -2.44131595130458     -0.90204296535905     -0.19180157100834
