14
Coordinates from ORCA-job run
  C   0.76960139159264     -0.58268422247964     -0.32580487393565
  C   -0.68831971843674     -0.12072791310711     -0.35494071485536
  Cl  1.57263277742872     -0.00692701696150     -1.86804543223732
  H   -1.17942516075389     -0.51353183295095     -1.24428880131874
  H   0.75661898091501     -1.66932848692011     -0.42255776852405
  N   1.43042854669439     -0.22828800783211      0.87266392477554
  H   1.51256907022581      0.77526773062828      0.96976002801560
  H   2.33687115906967     -0.66832300899782      0.94628549134740
  N   -0.74543787793795      1.38278191718031     -0.54608330744552
  O   -0.12785658962853      2.06637859190952      0.26823005385727
  O   -1.44300380238156      1.80968433343539     -1.45831663490893
  N   -1.40637201878125     -0.43998446849019      0.83435096248471
  H   -0.77398723014750     -0.56860420082615      1.61285187797384
  H   -2.01431952785881     -1.23471341458793      0.71489519477122
