14
Coordinates from ORCA-job run
  C   0.83896187922710     -0.58477729890113     -0.02975351852417
  C   -0.56487334594373     -0.10382524523378     -0.37422026144001
  Cl  1.20830995642235     -1.97055516439803     -1.08154928535474
  H   -0.63144773348415      0.09581538709157     -1.44281366159872
  H   0.85279098419104     -0.96882041871284      0.99598758871091
  N   1.78518433378380      0.48164825320742     -0.29170205830053
  H   1.86495779894433      1.06342379334016      0.53430609473520
  H   2.69709782550108      0.09367802292501     -0.49347181271709
  N   -0.73535829803988      1.26206505619294      0.28226205812535
  O   -1.27198812007051      2.14924113017711     -0.37207982672148
  O   -0.39305484792339      1.34433079991236      1.46471327048317
  N   -1.57193181753103     -1.01067158531440      0.04854410105608
  H   -2.48609430349496     -0.75230401789380     -0.29665469838761
  H   -1.59455431158203     -1.10024871239264      1.05643200993364
