14
Coordinates from ORCA-job run
  C   0.75191518670691     -0.65097899027044     -0.43693753047605
  C   -0.70717589116416     -0.25021835267561     -0.24386366527919
  Cl  1.25079931337960     -0.13215963406725     -2.12072422081716
  H   -1.32029030477395     -0.67214223448913     -1.03969744354468
  H   0.77140889708808     -1.73984325075565     -0.46614578383019
  N   1.58600879872244     -0.18943347286507      0.60666615194662
  H   1.65797500664780      0.81932587158464      0.61530587104647
  H   2.50439144597869     -0.60791563473147      0.56143099615175
  N   -0.85452752166286      1.25960094299330     -0.45538499384875
  O   -0.22318310959868      1.99344275341333      0.30619586278058
  O   -1.62820359541558      1.63395424366536     -1.33093153798689
  N   -1.14271645574788     -0.68154433461576      1.03259041584718
  H   -0.53496032915915     -0.32759348828143      1.75923543066964
  H   -2.11044144100123     -0.45249441890484      1.21326044734067
