14
Coordinates from ORCA-job run
  C   0.82833407397690     -0.61040019344269     -0.35033689731666
  C   -0.65071958670244     -0.23879819870153     -0.37473772647756
  Cl  1.58550655491944      0.03367707574229     -1.88831905171973
  H   -1.11521629334255     -0.60879837948527     -1.28829324952111
  H   0.87526376186023     -1.69407916409017     -0.45206113744122
  N   1.46993864850127     -0.21821362897424      0.84645709774945
  H   1.52000372222596      0.78791064401486      0.93589582736834
  H   2.39113399863567     -0.62541104205167      0.92517486773356
  N   -0.79580940352785      1.28050168483250     -0.50322181455740
  O   -0.30582897881196      1.96596830503184      0.39511532774093
  O   -1.44218178512210      1.70620436507476     -1.45523629399002
  N   -1.28182453674251     -0.76468669361291      0.77907476328720
  H   -2.27070339264111     -0.55779564280635      0.81150503081505
  H   -0.80989678322895     -0.45707913153140      1.61898325632921
