14
Coordinates from ORCA-job run
  C   0.93107142949397      0.11103975511495     -0.16573752031458
  C   -0.58983697168895     -0.03606182285185     -0.18513902626683
  Cl  1.40704718944485      1.46515973554022      0.88334112860637
  H   -0.83045125380513     -0.78736226416597     -0.95541235995115
  H   1.26502115549140      0.37958642702880     -1.16981606632369
  N   1.49324170128629     -1.11529212814345      0.37127725466129
  H   1.43020890307346     -1.84442720705127     -0.33229241256514
  H   2.47272630631581     -0.97704762310925      0.58821099151266
  N   -1.18016012955219      1.23142269793650     -0.79076266115378
  O   -2.07504615735920      1.80719595279176     -0.19021546737731
  O   -0.71853340827638      1.54720941448101     -1.88545938681051
  N   -1.10201090539213     -0.26541465951260      1.11235047252234
  H   -2.03657485381723     -0.64480721619096      1.10262546008297
  H   -0.46670300521459     -0.87120106186790      1.61602959337736
