14
Coordinates from ORCA-job run
  C   0.95757685875186     -0.03434473121659     -0.35231703211855
  C   -0.55343746480136     -0.13752348494585     -0.20523405132715
  Cl  1.51359049118009      1.37853814441237      0.70607639741711
  H   -0.89538937133866     -0.90125109743596     -0.90749511066157
  H   1.21698440430499      0.28081318550135     -1.35999277574154
  N   1.53251956315147     -1.27663423205594     -0.03358160594318
  H   1.24685982294154     -1.58448218783302      0.88696135261512
  H   2.53932557418851     -1.27067395739278     -0.11651400142225
  N   -1.16960543230159      1.16055887440842     -0.74520204125354
  O   -1.90115434073753      1.80125633565272      0.00073853815880
  O   -0.88766337171834      1.44288094238123     -1.90529035312792
  N   -0.93297755512206     -0.46317723285071      1.11688224285767
  H   -1.91166732106735     -0.70762580581136      1.17283139229406
  H   -0.75496185743156      0.31266524718616      1.74213704825292
