14
Coordinates from ORCA-job run
  C   0.77515208373892     -0.53022144645368      0.11316321231370
  C   -0.59549862924367      0.04209351139733     -0.22025769095421
  Cl  0.91531035903492     -2.14635577313161     -0.76492078516396
  H   -0.64263521671231      0.31310557021797     -1.28124198752181
  H   0.80339677384930     -0.78381734240944      1.17204417341113
  N   1.78899183306346      0.39283324555840     -0.20228934065551
  H   1.85353527306409      0.57966946638726     -1.19434078279885
  H   2.69152856549979      0.11543249274568      0.15582310185253
  N   -0.64581407366580      1.38432727406512      0.49544130063077
  O   -0.54262320060241      1.37080347052269      1.71370292353913
  O   -0.78324527511919      2.37656563586257     -0.21635827576488
  N   -1.66443374111975     -0.76713137036565      0.26644865119858
  H   -1.43571912427797     -1.74910796160295      0.20965148569768
  H   -2.51794562750934     -0.59919677279371     -0.24786598578431
