14
Coordinates from ORCA-job run
  C   0.78259509141146     -0.46158337610234      0.15313135233874
  C   -0.60875588382686     -0.00913938033898     -0.29960664142696
  Cl  1.02070514685211     -2.14208324304050     -0.56525763974698
  H   -0.63088080488900      0.08868078296719     -1.38611662185149
  H   0.78137233927743     -0.62201673475041      1.23144791908238
  N   1.76633280783476      0.48040605200682     -0.19816139218158
  H   2.67424070067077      0.26247974302348      0.18725676945791
  H   1.83932582501487      0.61762833764503     -1.19791267543716
  N   -0.77262876315375      1.38353068806859      0.24610987216811
  O   -0.75849507676728      2.31833134257292     -0.54502324021923
  O   -0.89305252372270      1.45858022248945      1.46577728628777
  N   -1.73507646835981     -0.77099930359973      0.14236310162631
  H   -1.79735860138609     -1.63975945435308     -0.36950876965589
  H   -1.66932378895590     -0.96605567658844      1.13350067955809
