14
Coordinates from ORCA-job run
  C   0.86253866341964     -0.08580862047705     -0.39067830471880
  C   -0.65331911669778     -0.01179872097185     -0.18659676889636
  Cl  1.63241947517367      1.25872799707480      0.59016545033798
  H   -1.09261265563214     -0.74012574039080     -0.87078196472908
  H   1.10497886223156      0.14905872456470     -1.42537010262206
  N   1.31715037427717     -1.38341624262392     -0.05391839909846
  H   1.21131875931889     -1.56130619107200      0.93678234910855
  H   2.28796250729209     -1.51287406178119     -0.30543882569370
  N   -1.10270022708323      1.33680945417227     -0.72380256600955
  O   -0.92714817821734      1.49587542175911     -1.93043001324472
  O   -1.56054642804382      2.15755008363325      0.05745569441094
  N   -1.15583644004062     -0.21192416326532      1.12111595241630
  H   -0.64921888993566      0.29384990162015      1.83270518668807
  H   -1.27598670606240     -1.18561784224214      1.34979231205092
