14
Coordinates from ORCA-job run
  C   0.97741194730199      0.10575488811829     -0.27512392608001
  C   -0.51574431255984     -0.18733019403570     -0.25766848411470
  Cl  1.27527730514086      1.49405113557486      0.91160408225869
  H   -0.70775891393246     -0.93348551202191     -1.03209276195820
  H   1.26852618397413      0.52128937363611     -1.23670433915870
  N   1.67773048665565     -1.07938516345204      0.00997812069626
  H   2.67921967709995     -0.94670579712480      0.01074978686436
  H   1.36542382009672     -1.48471174100876      0.88290824184740
  N   -1.24782335548977      1.06339358507997     -0.76307811192051
  O   -2.10518710181603      1.55735342604900     -0.03991122800331
  O   -0.92028412330703      1.45953533724971     -1.87707056240827
  N   -0.94665237669672     -0.65064684123810      1.00633999796139
  H   -1.88927428117517     -1.01207723109944      0.96804091530617
  H   -0.90986495529227      0.09296473427273      1.69202826870946
