14
Coordinates from ORCA-job run
  C   0.78980651573068     -0.60860426699377      0.04891747191429
  C   -0.58240516153318     -0.01745714236155     -0.32044391836649
  Cl  0.91578536189715     -2.15625354371931     -0.86902342838613
  H   -0.62067450736560      0.18033133523084     -1.39262385018329
  H   0.78013522691199     -0.87973250387664      1.10651034319866
  N   1.91629293059609      0.22124190794478     -0.21033485335444
  H   2.10617015638890      0.85178022728301      0.55510439963524
  H   1.84298339991722      0.72912108394045     -1.08148855283329
  N   -0.61085092807717      1.33054926696673      0.34606737410380
  O   -0.50736153696800      2.33001027483158     -0.35840924869168
  O   -0.68657923185984      1.31285985145384      1.57314829803824
  N   -1.75389005601238     -0.72545247919539      0.09129034919509
  H   -1.93157260738517     -1.50196755715216     -0.52991279494037
  H   -1.65783956224067     -1.06742645435245      1.03919841067034
