14
Coordinates from ORCA-job run
  C   0.89324074403169     -0.60922255613657     -0.07683341506070
  C   -0.56135645899368     -0.16816033350016     -0.31612864094481
  Cl  1.18922589233278     -2.00332021446865     -1.15966136355472
  H   -0.72885838580808      0.03743680649079     -1.37414599736939
  H   0.97465139989015     -0.98161924715082      0.94708713630623
  N   1.89580116534450      0.38679558259210     -0.27910858726888
  H   1.96270925496912      1.01579502035867      0.50877853849838
  H   1.76124795602524      0.90714326221895     -1.13566499841130
  N   -0.66187335095506      1.19831030492608      0.36069697060576
  O   -0.68536266165654      1.18967767415613      1.59129166361559
  O   -0.66603986846153      2.19771239586643     -0.35312990993942
  N   -1.49698486267067     -1.10334683082992      0.18173226262466
  H   -1.43037066824202     -1.18973776727556      1.18758112545424
  H   -2.44603015580589     -0.87746409724747     -0.08149478455567
