14
Coordinates from ORCA-job run
  C   1.00220216548985      0.10594319170618     -0.16015757144788
  C   -0.50056250198638     -0.05133404953238     -0.33887320770666
  Cl  1.26880596760703      1.01089608581518      1.43440992290048
  H   -0.66513987064677     -0.49014429546004     -1.32573633883742
  H   1.40208235872910      0.78467881437138     -0.90936113718180
  N   1.60605330437603     -1.16006099430593     -0.23168474540493
  H   1.19461862657248     -1.80049740254908      0.43461374923795
  H   2.60970335345772     -1.11975051163473     -0.12551244564286
  N   -1.11192344940985      1.35211639360855     -0.45482449477431
  O   -0.65885968588721      2.05975531484887     -1.34865439130494
  O   -2.00696968740028      1.65320166804883      0.32639602657897
  N   -1.06913064391257     -0.85917167904574      0.67193562880980
  H   -1.04428169582958     -0.38469696209990      1.56572367547858
  H   -2.02659824115953     -1.10193557377120      0.45972532929503
