14
Coordinates from ORCA-job run
  C   0.96955799739813      0.06079344109707     -0.31515478291867
  C   -0.53894051468389     -0.12744489842306     -0.24589080451615
  Cl  1.42197721327677      1.31691183111009      0.96693668428187
  H   -0.82103208996231     -0.78788517003009     -1.06903384926178
  H   1.24718810766986      0.53746819543479     -1.25205162540764
  N   1.59214870211214     -1.19020759985159     -0.16544739091513
  H   2.59972303958100     -1.13000081859358     -0.20527915746638
  H   1.28913875739568     -1.64800136984776      0.68443636551614
  N   -1.19854756787770      1.21077699399871     -0.60642706211997
  O   -1.98464449054724      1.69713825426218      0.19834858368472
  O   -0.89268032010835      1.67989539495634     -1.69792897289240
  N   -0.94553375359987     -0.66797098500435      0.99527083870657
  H   -0.82654110213315      0.00954817032960      1.73772960376984
  H   -1.91181397852108     -0.96202143943833      0.97449156953898
