14
Coordinates from ORCA-job run
  C   1.02804977022663      0.13921372838105     -0.16400449333068
  C   -0.47662976874618     -0.11794910762293     -0.22424905518878
  Cl  1.28788883767657      1.48540718126788      1.04824144721341
  H   -0.65618211036255     -0.81354380809837     -1.04862115730181
  H   1.36141042075593      0.55981430524869     -1.11014525668429
  N   1.75070687509450     -1.02184693542730      0.17486793339375
  H   1.20548082471283     -1.69454822213894      0.69186408247760
  H   2.28310475356983     -1.41960643362401     -0.57998998048910
  N   -1.17056196809320      1.16947566452949     -0.68948854901812
  O   -0.79994113077799      1.60805548538368     -1.77429255245426
  O   -2.03770696225690      1.65002651398207      0.03067757946701
  N   -0.96667836785678     -0.64892809396576      0.98966769870244
  H   -1.93683057075954     -0.92118630157600      0.91515695841048
  H   -0.87211060318315      0.02361602366047      1.74031534480236
