14
Coordinates from ORCA-job run
  C   0.84664363627184     -0.50409443756163     -0.09818287734084
  C   -0.59824904564522     -0.03621382215967     -0.15588659097067
  Cl  0.93890752836153     -2.03163071866385     -1.02709205492578
  H   -0.85265132512521      0.17918692764476     -1.20004149841145
  H   1.09954000938960     -0.76248211689721      0.93420754947155
  N   1.70031783745859      0.47287692059793     -0.73666560150202
  H   2.56983485461597      0.03910797448381     -1.01884632686026
  H   1.91018576860173      1.20007709734169     -0.06320344215838
  N   -0.72232659204727      1.29684771962745      0.54557052420085
  O   0.16127981018830      1.64768266974913      1.32415243741028
  O   -1.75472877560999      1.91513880587071      0.30741832468151
  N   -1.49264823210758     -0.90732491935077      0.56091381057635
  H   -2.45143403511674     -0.64568913055738      0.36679530336544
  H   -1.35467143923552     -1.86348297012497      0.26086044246338
