14
Coordinates from ORCA-job run
  C   1.03450541077280      0.08897317198851     -0.20031894491133
  C   -0.48812081083423     -0.06300005043705     -0.20595417231416
  Cl  1.44850459007582      1.26596762375073      1.12077417414539
  H   -0.75263309422966     -0.66964055117196     -1.07642558275597
  H   1.35038740322398      0.57433913736995     -1.12150234440461
  N   1.70689687149922     -1.14513125694361     -0.01808996461550
  H   2.01799614875658     -1.55233792123927     -0.88629693984235
  H   1.15863810739609     -1.79151832603395      0.53214051184969
  N   -1.10839777452304      1.30400329322857     -0.52452077138505
  O   -1.89434352931166      1.78399214533607      0.28406296117264
  O   -0.75987708154327      1.80862267092982     -1.58792076229461
  N   -0.96234545371243     -0.66462975026499      0.98113366613644
  H   -1.94802506219249     -0.87939604915557      0.92446009581456
  H   -0.80518572537767     -0.06124413735723      1.77845807340482
