14
Coordinates from ORCA-job run
  C   0.91205752140968      0.05391135597842     -0.05566263295168
  C   -0.60835771754997      0.03141378198478     -0.28981581723377
  Cl  1.27664812591484      0.83134956838597      1.50250297439894
  H   -0.76682564472960     -0.44610995470230     -1.26190655868041
  H   1.38869521670808      0.67428337137760     -0.82127706382314
  N   1.35585149181459     -1.32586131996742     -0.00927747600340
  H   2.28276539592448     -1.38002739809791      0.39489901637513
  H   1.41021493705471     -1.68582171299685     -0.95682844638345
  N   -1.04786570603107      1.45391891340324     -0.49341889562536
  O   -1.70533847401685      1.98922571767416      0.39091562685544
  O   -0.65919898761104      1.98453149830604     -1.53207121526998
  N   -1.41975068475640     -0.59519851087435      0.70042136201432
  H   -1.37956156003248     -0.06737489232691      1.56370314099168
  H   -1.04033391409896     -1.52024041814447      0.86781598533566
