14
Coordinates from ORCA-job run
  C   0.75706426468094     -0.63954669860973     -0.12054862238186
  C   -0.60749345775208      0.05745330060119     -0.26370878431811
  Cl  0.71923662279290     -2.02486300228203     -1.27592869885141
  H   -0.72584824839578      0.42718931524512     -1.28323432004466
  H   0.82367991486978     -1.07599819046378      0.87798965797222
  N   1.89964320743808      0.17603984341139     -0.35137203816783
  H   2.19463526685214      0.66124279661530      0.48336287679830
  H   1.77816454959954      0.82356604452266     -1.11815340793006
  N   -0.50598123547921      1.28074288196416      0.60587930323471
  O   -0.47681950054494      1.06865439938687      1.81660144601064
  O   -0.41083091602002      2.37583299169740      0.06033496691516
  N   -1.77618220878003     -0.66006604980898      0.13865927169887
  H   -2.05010494809386     -1.31697764479292     -0.57812509548172
  H   -1.61816331116752     -1.15526998748667      1.00724344454575
