14
Coordinates from ORCA-job run
  C   0.82429795874645     -0.61134422354975     -0.35675427792841
  C   -0.65276845804147     -0.23129646007511     -0.37616696794374
  Cl  1.58419838717979      0.04486142885269     -1.88845973746986
  H   -1.11986658249083     -0.58976392053914     -1.29299943099738
  H   0.86539955282841     -1.69410490617346     -0.47003864039746
  N   1.46837495783593     -0.23485529751126      0.84352149533469
  H   1.52366885225617      0.77007888959560      0.94296496864455
  H   2.38751622386073     -0.64756936093246      0.91783477578455
  N   -0.78875593280233      1.29004922292729     -0.48958551364302
  O   -0.29270076661676      1.96371745941919      0.41435030829500
  O   -1.42676235035597      1.72973347891536     -1.44091676452732
  N   -1.28584144358616     -0.76470473996461      0.77277150197292
  H   -2.27377543794846     -0.55416144739426      0.80784246588563
  H   -0.81198496086549     -0.46864012357005      1.61563581698988
