14
Coordinates from ORCA-job run
  C   0.80458029091331     -0.49787154374847     -0.37824737276300
  C   -0.68358574742609     -0.14591601195694     -0.35211085555624
  Cl  1.53356512818645      0.25072751347435     -1.88219230516710
  H   -1.16114815302134     -0.50686997001127     -1.26216572734484
  H   0.86920982356501     -1.57212006728357     -0.55754291257274
  N   1.46001170140584     -0.18684053414612      0.83516179356902
  H   1.46793695199820      0.80970195843846      1.00877004319840
  H   2.39839068461908     -0.56025921722517      0.86187704114097
  N   -0.85565066504233      1.36067804324310     -0.43139187370523
  O   -1.60383996936921      1.79744345139743     -1.29775920267132
  O   -0.26321394653544      2.03018937300447      0.41251335673860
  N   -1.34804301263049     -0.60477816456411      0.82087364144057
  H   -1.92724314867502     -1.41112455201770      0.65067729566018
  H   -0.69096993798798     -0.76296027860445      1.57253707803273
