14
Coordinates from ORCA-job run
  C   0.90954875161784     -0.55527023556277     -0.45963494647196
  C   -0.59402923263266     -0.24523953616094     -0.38614181405852
  Cl  1.53468230825112      0.12354176676658     -2.00213802264430
  H   -1.10691900520772     -0.67110905513821     -1.24826359646208
  H   0.97631132675456     -1.63996941602712     -0.55249424048902
  N   1.71719307081761     -0.14062461373626      0.63602614079995
  H   1.51612659190072      0.80417372267577      0.93244301051498
  H   1.67326570196856     -0.79240410022201      1.40522867415547
  N   -0.81592046600815      1.25300477373508     -0.52034921025733
  O   -1.40964566610460      1.66606745198163     -1.51017654999589
  O   -0.39405976489779      1.94722604479556      0.40818983734514
  N   -1.11735901659690     -0.76556551343645      0.83144522317215
  H   -2.12863349098154     -0.74078064651962      0.84431639929839
  H   -0.76056110888106     -0.24205064315126      1.62054909509302
