13

C	0.0	0.0	0.0
C	-0.540214	-0.043991	-1.424464
Cl	1.788543	0.0	0.0
H	-1.665717	-0.108266	-1.182704
H	-0.26023	0.856519	-1.96675
C	-0.439755	1.275995	0.593832
N	-0.643343	2.319141	1.091922
C	-0.448591	-1.104267	0.858706
N	-0.590923	-1.961287	1.649317
N	-0.062025	-1.190646	-2.199608
O	0.023394	-1.038401	-3.421835
O	0.161899	-2.24866	-1.61208
F	-2.562133	0.0	0.0
