13

C	0.0	0.0	0.0
C	-0.519358	-0.075152	-1.433111
Cl	1.788992	0.0	0.0
H	-0.226335	0.811088	-1.991287
H	-1.639465	-0.135245	-1.220004
C	-0.426824	1.282332	0.571031
N	-0.596501	2.34627	1.037725
C	-0.448284	-1.084545	0.88096
N	-0.573583	-1.925556	1.692131
N	-0.023947	-1.242773	-2.172109
O	0.177475	-2.288679	-1.556272
O	0.100181	-1.112812	-3.392398
F	-2.533794	0.0	0.0
