18

C	0.0	0.0	0.0
C	-0.501673	-0.073564	-1.445279
Br	2.035463	0.0	0.0
H	-0.257996	0.849636	-1.974015
C	-0.399031	1.298126	0.679158
H	-0.025785	2.165938	0.130573
H	-1.493119	1.312686	0.718027
H	-0.002719	1.332899	1.698803
N	-0.483106	-1.118117	0.719171
H	-0.309944	-1.947452	0.137981
H	-0.047298	-1.184438	1.630776
N	-1.971392	-0.27181	-1.354199
H	-2.0212	-1.29921	-1.417899
H	-2.416015	0.117748	-2.184975
N	0.007657	-1.169684	-2.254682
O	-0.252633	-2.374945	-1.697374
O	1.034116	-0.932393	-3.013692
H	-2.880583	0.0	0.0
