18

C	0.0	0.0	0.0
C	-0.48217	-0.025661	-1.446759
Br	1.95544	0.0	0.0
H	-0.235012	0.907815	-1.96242
C	-0.440451	1.250803	0.743781
H	-0.069907	2.150858	0.248832
H	-0.055697	1.222878	1.765892
H	-1.534483	1.284064	0.776435
N	-0.404346	-1.185099	0.73697
H	-1.368296	-1.041208	1.019848
H	-0.37724	-1.960247	0.059098
N	-1.976999	-0.227199	-1.380471
H	-1.971709	-1.243984	-1.590785
H	-2.388215	0.252716	-2.175163
N	0.159541	-1.135994	-2.2221
O	0.327492	-0.77134	-3.499684
O	-0.508496	-2.320239	-1.919688
H	-2.926208	0.0	0.0
