18

C	0.0	0.0	0.0
C	-0.362835	0.091905	-1.517351
Br	1.954331	0.0	0.0
H	0.287182	0.855525	-1.945966
C	-0.45562	1.296162	0.662588
H	-0.083925	1.329342	1.691187
H	-0.088442	2.180901	0.134169
H	-1.550935	1.277464	0.669985
N	-0.517373	-1.180149	0.625628
H	-0.441685	-1.057916	1.631667
H	-1.521569	-1.200368	0.413637
N	-1.718374	0.320861	-1.860046
H	-2.432952	0.094068	-1.105985
H	-1.847033	1.292177	-2.108494
N	0.094248	-1.171653	-2.242052
O	-0.521658	-2.207853	-2.024076
O	1.0134	-1.051062	-3.058379
H	-3.415809	0.0	0.0
