18
Coordinates from ORCA-job run
  C   0.59400873066914     -0.45665737602029      0.17848135616920
  C   -0.71096969309633      0.34243623914225     -0.00646017157366
  Br  0.65224601608548     -2.01248846560859     -1.01811883672822
  H   -0.72999882879369      1.05877288776344      0.82059018671745
  C   1.83424714202010      0.38109100654325     -0.10647883105705
  H   1.89832697747632      0.68578465940053     -1.15174262581618
  H   2.72573811908678     -0.19910471339656      0.13783231644799
  H   1.81346909832730      1.28230517997628      0.51508259721148
  N   0.52967053565440     -0.98796737597820      1.53357798481652
  H   1.24368379614528     -1.69697138958723      1.65675725173753
  H   0.72658686528876     -0.23306643777766      2.18565355994689
  C   -1.98575076174782     -0.47031343277249     -0.04295750613736
  H   -2.85159664589523      0.19285433273121      0.01932805624921
  H   -1.98934438004221     -1.14896924677802      0.80946210139260
  H   -2.04839881396091     -1.04422267285388     -0.96502166228812
  N   -0.60499358218548      1.21587541913670     -1.21994446984312
  O   -0.83828395662444      0.70702596857995     -2.31334149340642
  O   -0.25864061840746      2.38361541749932     -1.03469981383875
