18
Coordinates from ORCA-job run
  C   0.80664896693761     -0.25898584852884     -0.09669496966549
  C   -0.57173928540854      0.11244696299456     -0.67257059919280
  Br  2.11733119030969      0.77146699697967     -1.30525326545870
  H   -0.57352239193090     -0.11966332500374     -1.73872129964155
  C   1.07730104715219      0.22686529020592      1.31228195442304
  H   1.02490663729318      1.31188180401103      1.37948215066778
  H   0.34330976283498     -0.21943726659375      1.98580862245634
  H   2.07949863139330     -0.07970630727913      1.61933296892377
  N   0.98974076687029     -1.64913938167929     -0.19016881922559
  H   0.83223813206765     -2.01914622763754     -1.11907882515284
  H   1.89008127732888     -1.94903069407567      0.15870400372017
  C   -1.04513551906282      1.52795704179913     -0.41522831643430
  H   -0.32896189888311      2.24131736122656     -0.82194182784015
  H   -1.17425589178098      1.70525354168190      0.65133286681329
  H   -2.00732570957529      1.68619159776661     -0.90699293746390
  N   -1.57283137968647     -0.85375476188277     -0.09029115239862
  O   -1.95707459966618     -1.76182667249505     -0.82350811838241
  O   -1.92820973619348     -0.67269011148960      1.07150756385197
