18
Coordinates from ORCA-job run
  C   0.73848106809500     -0.35395984187723      0.18468170114591
  C   -0.67476444005463      0.23967221358323     -0.05159239497086
  Br  1.09137346064114     -1.78199513302853     -1.12132238375754
  H   -0.81600964630872      0.95808379744149      0.76154860648252
  C   1.82715866764314      0.69601585321082      0.04236250363649
  H   1.62113279308067      1.53499463705291      0.71533988029896
  H   1.89154765396280      1.08469898931979     -0.97260678255462
  H   2.77971809777946      0.24188575562953      0.31401343367814
  N   0.85666296818970     -0.96157808534155      1.49068644016685
  H   0.16601776762574     -1.68603861070817      1.63914475613067
  H   0.77044696475449     -0.25437435703667      2.21321259122467
  C   -1.82698749030201     -0.74105324247059     -0.10764749928975
  H   -1.86411571120896     -1.33633970203053      0.80615847257241
  H   -2.77015297795272     -0.19643037393559     -0.18871366729190
  H   -1.73215091798937     -1.40326549183750     -0.96510892416997
  N   -0.68952952837195      1.10082177394499     -1.28163550541318
  O   -0.92700457924780      0.56073115765150     -2.35907289939772
  O   -0.43882415033597      2.29613066043211     -1.12044832849108
