18
Coordinates from ORCA-job run
  C   0.81520986338751     -0.21709832441401     -0.12352998692809
  C   -0.59758141773968      0.08783760553876     -0.65387576675307
  Br  2.03415437201497      0.88460007919906     -1.36302605772480
  H   -0.62100824857275     -0.13762169928652     -1.72121568351906
  C   1.10405644020655      0.27294053252532      1.28047099715061
  H   0.41447921067979     -0.21381651125938      1.97262890643217
  H   0.99966076186138      1.35353223934531      1.35768946037961
  H   2.12929710283075      0.01507736103248      1.55449899323657
  N   1.06477498414696     -1.59612315003973     -0.23251104478024
  H   1.98979132313369     -1.85123196170548      0.08626347909577
  H   0.89832886228269     -1.96742978150801     -1.15938250384027
  C   -1.13336080070152      1.47601213636601     -0.37135831772344
  H   -0.46880138133147      2.22747449122444     -0.79660183348042
  H   -1.23587536508614      1.64093360966238      0.70005602159544
  H   -2.11840634580905      1.58704783401714     -0.82969744290367
  N   -1.52971229062262     -0.93132490483135     -0.04850287037168
  O   -1.88709768117416     -1.85552781595337     -0.77519256988931
  O   -1.85990938950692     -0.77428173991305      1.12428622002388
