18
Coordinates from ORCA-job run
  C   0.82997130355304     -0.24024698514746     -0.18402070633188
  C   -0.57079422535647      0.12468530145438     -0.70687859239066
  Br  2.07026379478997      0.69388621835004     -1.40828569229059
  H   -0.57642916999058     -0.05242029613540     -1.78206997226515
  C   1.15583436397559      0.24278313024956      1.22271832794115
  H   0.47017916067296     -0.22709042826252      1.92975309144110
  H   2.17800028709223     -0.04834496846724      1.47235149047912
  H   1.08107054188334      1.32703580294943      1.31573618473003
  N   1.03500334263254     -1.65969639303219     -0.41541446163999
  H   2.02462840629708     -1.87405370918306     -0.37782639457201
  H   0.57463280037623     -2.17333798111877      0.33013113947592
  C   -1.06979561712740      1.51844096040180     -0.36554520765484
  H   -0.35616709339325      2.26626503500308     -0.71235082579339
  H   -2.02564841261686      1.69515743200103     -0.86173851467757
  H   -1.20886629457388      1.62920505443585      0.71124849670855
  N   -1.59983430945943     -0.84587844351405     -0.18802749662477
  O   -1.47426315985840     -1.28078512814627      0.95785957813656
  O   -2.53678571889672     -1.09560460183819     -0.93864044467158
