18
Coordinates from ORCA-job run
  C   0.64742900151631     -0.32365434285000      0.24017662331196
  C   -0.62285972285490      0.44511662403953     -0.17445718177180
  Br  0.45997377901084     -2.24761724626530     -0.37637191228014
  H   -0.39206391936340      1.49707812856811      0.01537898869305
  C   1.91856229349592      0.20192812080711     -0.40271507212862
  H   1.89539458717539      0.11217571668371     -1.48526760556677
  H   2.04141498208363      1.25458001568869     -0.13460336230320
  H   2.77395023269573     -0.36450217911525     -0.02792687592064
  N   0.75512186877271     -0.23217418880965      1.65437569293990
  H   0.02016020404069     -0.74143731935656      2.12823860001523
  H   1.64737975613708     -0.59376974804756      1.96850605469483
  C   -1.89276171069508      0.03729642334785      0.54266914348940
  H   -2.07496676246566     -1.03250722244312      0.44766129664868
  H   -1.82220888489164      0.31561183175960      1.59514177420177
  H   -2.74632658436048      0.56561956586927      0.11654998979023
  N   -0.82376538425785      0.37888680643400     -1.66281441482830
  O   -0.11584168356391      1.12263824869715     -2.34272106989323
  O   -1.66959205247540     -0.39526923500759     -2.10082066909234
