18
Coordinates from ORCA-job run
  C   0.82935039377470     -0.21677377148151     -0.21332690823536
  C   -0.58877747471359      0.14642547157531     -0.68753839408170
  Br  2.02561902408051      0.79407149241019     -1.42100245286661
  H   -0.61616371213725      0.02108442384823     -1.76966239742675
  C   1.17990167085590      0.20765860732460      1.20631303765149
  H   0.51844063929447     -0.30552833976325      1.90625323133518
  H   2.21189566140765     -0.07786184337343      1.41945182584598
  H   1.09061422012394      1.28515832093648      1.35058304931764
  N   1.05290523011798     -1.62018628357311     -0.51417885195283
  H   0.61506694231815     -2.17551510794249      0.21488599813737
  H   2.04637121692201     -1.81933155343484     -0.50490508571132
  C   -1.10310923119326      1.51372279566058     -0.26948516308715
  H   -0.40835953942203      2.28885616727188     -0.59397955980580
  H   -1.22163832234888      1.57050851398183      0.81396323964671
  H   -2.07143230132519      1.69826967731901     -0.73783615931708
  N   -1.58943074203283     -0.86517728565100     -0.19342474311699
  O   -2.53992842833992     -1.09404586042920     -0.93355755311592
  O   -1.43032524738236     -1.35133542467928      0.92744688678314
