18
Coordinates from ORCA-job run
  C   0.82875350906270     -0.35036547978337     -0.04963097558344
  C   -0.45901310285449      0.28358286981299     -0.62690564331204
  Br  1.80747234215904     -1.08769697645673     -1.61977894367074
  H   -0.18274870383188      1.05886719235213     -1.34267171208259
  C   1.71479542141535      0.73468291066385      0.54344715140706
  H   2.66503711949313      0.28984383101209      0.83896605817377
  H   1.90629704007398      1.52989458445673     -0.17759909096575
  H   1.24393876142523      1.16609926987998      1.43210053229877
  N   0.66891629982576     -1.40286954249361      0.90076781575181
  H   0.51624459190321     -1.03858393657086      1.83201566038067
  H   -0.07295596783181     -2.03938117690552      0.64048514835493
  C   -1.39653251204806      0.82095872505026      0.44360021925188
  H   -0.92602177336999      1.63578233535907      0.99471505102788
  H   -1.68003484908312      0.02999928928217      1.13797701660595
  H   -2.30305187512527      1.21310223031428     -0.02280186938200
  N   -1.23743540466610     -0.70397155738614     -1.44262420107264
  O   -1.47926014314928     -0.41074061983365     -2.60892039005212
  O   -1.61240075339840     -1.73020394875365     -0.87314182713141
