18
Coordinates from ORCA-job run
  C   0.56542646653319      0.41233066633409     -0.12173540411515
  C   -0.95010829331823      0.23398230515634      0.05037087334126
  F   0.72929563006097      1.32803673256820     -1.16868313197282
  H   -1.38424769614454      1.18222362563479      0.37094530718943
  C   1.29147186112166     -0.85796552470288     -0.51455090818324
  H   0.86961408334980     -1.29043868234892     -1.42162244742081
  H   1.25422257069992     -1.59519728233218      0.28930551831004
  H   2.33818607297529     -0.61151339428867     -0.70190052201979
  C   1.13740451908811      1.04078599472918      1.13217813986631
  H   0.96144297240395      0.39955113968187      1.99555786416884
  H   0.67069991184233      2.01244530849890      1.30838961013742
  H   2.21109362364685      1.19412712521392      1.00646463565835
  N   -1.25166068593488     -0.80656354760005      0.97294668076312
  H   -2.22739331743805     -0.78159674418464      1.23992348605165
  H   -1.05891153647371     -1.70824811509776      0.55359305283820
  N   -1.56951437738733      0.00899809667783     -1.32810705669464
  O   -1.55038375921984     -1.14410549662851     -1.75975566603451
  O   -2.03763804580548      0.98514779268849     -1.90332003188365
