18
Coordinates from ORCA-job run
  C   0.56531094072664     -0.06882519280925      0.24019081715128
  C   -0.91758613580395      0.19120367569896     -0.06933895145254
  F   0.60086682219707     -1.19970827559081      1.07292331324425
  H   -1.02338131881535      1.14836883608261     -0.58317662698254
  C   1.12497079356812      1.09514358141965      1.03297998330380
  H   2.13317719341188      0.84509725698733      1.36882212370965
  H   0.49655640145062      1.29703448848245      1.89932654595587
  H   1.17791214343382      1.99237739118257      0.41177294966877
  C   1.39406082808914     -0.39043594472208     -0.98507428918337
  H   1.07664740562861     -1.33434714265833     -1.42928116931217
  H   2.44037357139160     -0.48694311079118     -0.69020086883294
  H   1.30782299523028      0.39459887276495     -1.73820195675080
  N   -1.69143767430525      0.14987654371305      1.11663092239312
  H   -1.60678163946468     -0.75974368995982      1.55124394794141
  H   -2.66583165739746      0.34939676280584      0.93551099286269
  N   -1.37107290359313     -0.82488163752799     -1.12014792128433
  O   -1.74644911504109     -1.92163444918947     -0.71473788234424
  O   -1.29715865070686     -0.47657796588848     -2.29724193008789
