18
Coordinates from ORCA-job run
  C   0.51160895757619     -0.13050737625596      0.22056266778921
  C   -0.96033271326853      0.16279438616358     -0.13751836059465
  F   0.50927070862826     -1.29305379367569      1.00765009631104
  H   -1.03391341042612      1.16113499048604     -0.57029516418485
  C   1.04919138924644      0.98993549724986      1.08917042073981
  H   1.11953493990103      1.92194593445502      0.52361938252922
  H   2.04530670130097      0.72307004055309      1.44641321821707
  H   0.40755989176168      1.14647327884002      1.95774046472781
  C   1.38867923738838     -0.40166381577997     -0.98269259758367
  H   2.42063299086014     -0.53704785144505     -0.65374348306325
  H   1.07004589771097     -1.31354175987645     -1.48897309546775
  H   1.34787918570333      0.42427849425019     -1.69529261845898
  N   -1.89762199722467      0.00434226766604      0.92596658681628
  H   -2.04971200851113      0.86472719801864      1.42887429497312
  H   -1.61770311365475     -0.73685258078468      1.55275800770729
  N   -1.35784583686898     -0.76336554684757     -1.26261210264325
  O   -1.30465786646723     -0.30653684967480     -2.40391025179567
  O   -1.64692295365598     -1.91413251334232     -0.95671746601880
