18
Coordinates from ORCA-job run
  C   0.55967350614318      0.41929729002823     -0.12365875446516
  C   -0.95058278691189      0.22505336234940      0.07496168872875
  F   0.69488354781816      1.36042775919314     -1.15219652575616
  H   -1.38485196223969      1.16265573714537      0.42523334271767
  C   1.28740613275393     -0.83561071709213     -0.56028928254659
  H   1.27174354290832     -1.59104088012865      0.22723601819806
  H   2.32830997827232     -0.57647152976848     -0.76225614090899
  H   0.85094961444935     -1.25084427907836     -1.46847340590741
  C   1.15281790860507      1.02332428647352      1.13245682817204
  H   2.22265455118561      1.18701542340604      0.98842554643390
  H   0.68366174453944      1.98754204189342      1.34022447239702
  H   0.99853871432056      0.36144285437084      1.98431467693872
  N   -1.22527097481030     -0.83845218660568      0.97959295031653
  H   -1.03564391503001     -1.72862201216411      0.53498939350134
  H   -2.19493276773205     -0.82648712360087      1.26855191225732
  N   -1.59657085442787      0.02594622665864     -1.29540834641196
  O   -2.08462911334935      1.01077803947431     -1.83833973840967
  O   -1.57715686649479     -1.11695429255465     -1.75336463525540
