18
Coordinates from ORCA-job run
  C   0.52583064480275      0.41386965566589     -0.12079293437664
  C   -1.00722769461859      0.27125595057290     -0.06956928754825
  F   0.77651617388219      1.45428416719194     -1.02605109739633
  H   -1.42232188115600      1.25862560553740      0.13870556301308
  C   1.26724047286648     -0.80751897876892     -0.62334818895588
  H   1.06004785839568     -1.68583396120448     -0.00885475252618
  H   0.99584617552885     -1.03359209124303     -1.65338816271173
  H   2.34003963546919     -0.60894517657707     -0.58144901923915
  C   1.02845888416537      0.87199126984647      1.23563173584357
  H   2.07976292422679      1.15162995263250      1.14667065082462
  H   0.47164553342694      1.74753626528677      1.57864655393021
  H   0.94585119045036      0.07963686220495      1.98121122564763
  N   -1.56009665198325     -0.69078089798850      0.83598447065410
  H   -1.52246623553301     -0.36347270262661      1.78995307001118
  H   -1.11890029682905     -1.59537210438394      0.75000169383483
  N   -1.50554200229555     -0.06682405255000     -1.44902875090605
  O   -1.45635564513122     -1.25349535887204     -1.76728153614692
  O   -1.89832908566793      0.85600559527578     -2.15504123395209
