18
Coordinates from ORCA-job run
  C   0.56196347868414      0.07807172022147      0.51738388073589
  C   -0.97147632849020      0.00771985504762      0.37637102551336
  F   0.77825082964794     -0.02917435749348      1.89749312643542
  H   -1.40346017917433      0.70010195758721      1.09964844828068
  C   1.11758159638926      1.42143291780533      0.08778770426668
  H   0.56446568230099      2.24076791878329      0.54985252444149
  H   1.08243947693748      1.54418299187274     -0.99588722507478
  H   2.15900739295542      1.47982522448384      0.40873912599933
  C   1.27154893911960     -1.08516117331438     -0.14114140978576
  H   1.05282452426020     -1.12518408781601     -1.20978122977694
  H   0.96600078506883     -2.01876766896394      0.33140202156757
  H   2.34871313666390     -0.97161775728767     -0.00706673990316
  N   -1.48539446718089     -1.30088291439352      0.56448709986700
  H   -1.26674397848776     -1.89295447189386     -0.22647236147936
  H   -2.48777264178612     -1.28624731361332      0.69838335619823
  N   -1.34454171219824      0.60193688742797     -0.98188878548385
  O   -1.67813654906311      1.78386494612963     -1.01414585227473
  O   -1.26426998564710     -0.14791467458292     -1.95516470952709
