18
Coordinates from ORCA-job run
  C   0.55430152630869     -0.06640609644072      0.26639281363446
  C   -0.91402561549082      0.18554760557700     -0.11203587365935
  F   0.55801148597295     -1.20056250259876      1.09518801468001
  H   -1.00181703815235      1.14462414921805     -0.62565766449127
  C   1.06743090301709      1.09781414917927      1.08976742480255
  H   0.39933916814657      1.28739740710935      1.92878530895060
  H   2.06248417239361      0.85609220152513      1.46819377691267
  H   1.13791401498440      1.99976920903334      0.47722069530557
  C   1.44236751849842     -0.37723254631465     -0.91944878275534
  H   1.38813336718355      0.41157177318387     -1.67163940453727
  H   1.15168117075028     -1.32032418587005     -1.38319765759190
  H   2.47385792720442     -0.46978607220405     -0.57523356380713
  N   -1.74288428776454      0.13352594590330      1.03569334326152
  H   -2.70862237474610      0.32937030184137      0.80990419221643
  H   -1.67381532161333     -0.77776586372148      1.46947296816110
  N   -1.31039442113924     -0.82851097833253     -1.18772967466562
  O   -1.18222628572457     -0.47474286097851     -2.35854498103891
  O   -1.69773590982903     -1.92938163610993     -0.80513093537813
