11

C	-0.284641	0.022985	-1.478635
C	0.0	0.0	0.0
Br	-2.244376	0.215352	-1.864528
H	1.094711	0.0	0.0
H	-0.03972	-0.938256	-1.932016
H	-0.40564	-0.879195	0.505954
H	-0.360919	0.911837	0.484514
N	0.433025	1.052141	-2.197176
H	0.255634	1.934364	-1.725302
H	1.419579	0.845131	-2.010452
H	3.021346	0.0	0.0
