14
Coordinates from ORCA-job run
  C   -1.05927407584732     -0.47249219585180      0.28984997592169
  C   0.13574487106010      0.23431870627124     -0.34804023611174
  F   -1.73090152051073     -1.14102891986574     -0.71778166467915
  H   -0.22249291555789      0.98129568914647     -1.05802722175776
  H   -0.72660431678666     -1.20464521105608      1.02699196916261
  C   -1.97274669663210      0.48713935472833      0.92392849124038
  N   -2.69515766156859      1.26879130675123      1.41861244517860
  C   1.10107960845028     -0.74130991546835     -0.99588643116474
  H   0.58586967472462     -1.30135911541003     -1.77604354150086
  H   1.49015018309314     -1.43942980596319     -0.25183854674032
  H   1.93379566539120     -0.19855852018004     -1.44597978122526
  N   0.86018695948104      0.99710164564503      0.71676736060213
  O   1.32390873902482      2.08890095710191      0.40586169409623
  O   0.97544148567808      0.44227602415101      1.80958548697818
