14
Coordinates from ORCA-job run
  C   -1.05294767863300      0.24313692562952      0.53921775803920
  C   0.16605698088691      0.25867872465269     -0.37679254698883
  F   -0.64770751113532     -0.04380613672322      1.82803051102528
  H   -0.16980929638437      0.52304836215380     -1.38417587160435
  H   -1.52796689214539      1.22634851293137      0.54780335718914
  C   -2.01314235910211     -0.77234138580805      0.08900153888364
  N   -2.77456013885600     -1.57830093168050     -0.29584356511505
  C   0.95938766829443     -1.02785097216768     -0.35955839576310
  H   1.29623267115706     -1.25883486988823      0.64936558690694
  H   0.33204882104484     -1.84364268340404     -0.72409119953141
  H   1.83263818686629     -0.94560590053940     -1.00467063858962
  N   1.00197813811998      1.44318124544927      0.06112023771016
  O   2.16933789559218      1.24702512290704      0.37742991487360
  O   0.42945351429448      2.52996398648743      0.05316331296440
