14
Coordinates from ORCA-job run
  C   -1.10121972798304      0.13944537850819      0.47708928233529
  C   0.19824813746815      0.33010845425235     -0.29828802447113
  F   -0.81536953744194     -0.41012822743424      1.71116855959023
  H   -0.04280923256178      0.80436691851819     -1.25446638650962
  H   -1.58314659883240      1.10519365551907      0.64275334536489
  C   -2.00524545062332     -0.75173239826841     -0.26059894822397
  N   -2.71868125749565     -1.45326439580005     -0.87393929088487
  C   0.99524866640083     -0.94175625937298     -0.47645221564132
  H   0.41229975027778     -1.65374318365130     -1.06415796359385
  H   1.23365872542324     -1.38472868242493      0.48891751482520
  H   1.92685822282256     -0.73735503192631     -1.00187832777557
  N   0.98110570094621      1.38548660064026      0.45566107643376
  O   0.40457147738627      2.45728722712593      0.62207344482240
  O   2.11448112421308      1.11181994431421      0.83211793372857
