14
Coordinates from ORCA-job run
  C   -1.09321760684721     -0.42483398854758      0.23253182213118
  C   0.16159386666726      0.24002322718398     -0.33126175243019
  F   -1.75844295945969     -1.01840210207403     -0.82505097999152
  H   -0.12787316097011      1.03492120464516     -1.02022090406030
  H   -0.82900843199972     -1.20050258220958      0.95267879141276
  C   -1.97961537560826      0.55894400478478      0.86827791633427
  N   -2.67847033338235      1.36124055775302      1.36369965386870
  C   1.09660113282748     -0.75994521285541     -0.98631024392463
  H   1.41572798766159     -1.51181933884252     -0.26151271354564
  H   1.97597527103542     -0.24646476959731     -1.37835563011208
  H   0.58304356542247     -1.25403165855250     -1.81082992305804
  N   0.88528356195714      0.91675004154925      0.79094090837252
  O   0.92484680064729      0.31444481552361      1.86366649983909
  O   1.42255568204869      1.99067580123911      0.54274655516387
