14
Coordinates from ORCA-job run
  C   -1.04892273335140      0.24071338824045      0.54865569072179
  C   0.16400027938902      0.26331202296231     -0.37558142498681
  F   -0.63499852775190     -0.05877887640455      1.83145137302287
  H   -0.17674587089398      0.54266035974941     -1.37717220184537
  H   -1.52231114945156      1.22451304907575      0.56937305231394
  C   -2.01314288472481     -0.76925050300721      0.09458507423138
  N   -2.77716717413573     -1.57046291838002     -0.29490098900492
  C   0.95234126685311     -1.02635154646422     -0.37998179021358
  H   0.32127607792013     -1.83384669640416     -0.75664631922754
  H   1.28959000704328     -1.27462152403728      0.62479073286261
  H   1.82515780941184     -0.93726199724707     -1.02491582249108
  N   1.00736810004541      1.43856579321954      0.07446850831858
  O   2.17509196456310      1.23311328455217      0.38330039021466
  O   0.43946283508349      2.52769616414488      0.08357372608347
