14
Coordinates from ORCA-job run
  C   -1.09948604659407     -0.41624916397803      0.21397358912395
  C   0.16639482042103      0.24928219508897     -0.32399921658263
  F   -1.77113752471579     -0.96352240684796     -0.86397827666803
  H   -0.10971793357071      1.07151204229154     -0.98575757692127
  H   -0.84729444613575     -1.21989377653492      0.90733613469507
  C   -1.97216619507051      0.55785622863314      0.88266353620066
  N   -2.65859655818882      1.35231517155275      1.40716666861691
  C   1.08850641107360     -0.74202341217190     -1.00950822059258
  H   1.39077619035763     -1.52442796465636     -0.31038605795276
  H   0.57168774906819     -1.19743275319487     -1.85409001914954
  H   1.97877226360676     -0.23002168395732     -1.37844610297895
  N   0.89410934146658      0.87613928626903      0.82417115743462
  O   0.95138015995420      0.21838098284408      1.86299959764880
  O   1.41477176832764      1.96908525466186      0.62885478712574
