14
Coordinates from ORCA-job run
  C   -1.01833229947112      0.01731040673466      0.64967454787387
  C   0.12882389281917      0.36769347638482     -0.29230064255844
  F   -0.50933994153255     -0.61243609555201      1.76823883023514
  H   -0.28794547205303      0.90217630081949     -1.15134038711315
  H   -1.52437969067709      0.92764439019469      0.97766872246140
  C   -1.97319467046524     -0.87193138514611     -0.02348830176498
  N   -2.73176864363066     -1.56934943330053     -0.58521716773005
  C   0.96160986986333     -0.82273082373483     -0.70948829163696
  H   1.78583620462995     -0.50663745530466     -1.34700938798187
  H   0.33674813929700     -1.52231933873198     -1.26833736932811
  H   1.37375050170269     -1.32831139437362      0.16200289992744
  N   0.95699244034329      1.40977488915448      0.43118144771916
  O   0.35148773363122      2.41830477426582      0.78481511178941
  O   2.14971193554303      1.18881168858977      0.60359998810714
