19

C	-0.522034	-0.091937	-1.437438
C	0.0	0.0	0.0
Br	0.297691	-1.599459	-2.36768
H	1.094504	0.0	0.0
C	-2.024393	-0.186952	-1.625137
H	-2.271682	-0.125984	-2.686369
H	-2.525083	0.622596	-1.097238
H	-2.377492	-1.138637	-1.232355
N	-0.025732	1.188405	-2.11925
O	-0.827673	2.126025	-2.120791
O	1.113191	1.230661	-2.554842
N	-0.524041	-1.183214	0.741072
O	-1.659436	-1.101103	1.238077
O	0.191389	-2.178055	0.831488
C	-0.429768	1.263598	0.724365
H	0.130359	2.104252	0.31378
H	-1.50027	1.476044	0.694558
H	-0.122517	1.160303	1.767673
F	2.538641	0.0	0.0
