19

C	-0.325009	0.091133	-1.480812
C	0.0	0.0	0.0
Br	-2.239412	0.459701	-1.840145
H	1.093166	0.0	0.0
C	0.539568	1.176452	-2.101613
H	1.549154	1.01658	-1.704451
H	0.52201	1.105517	-3.189466
H	0.16504	2.157999	-1.808902
N	0.008918	-1.234885	-2.188381
O	-0.876825	-2.056896	-2.385389
O	1.189627	-1.363726	-2.49305
N	-0.521575	-1.238282	0.621455
O	-1.351606	-1.14354	1.531902
O	-0.064867	-2.306864	0.216482
C	-0.414011	1.219341	0.793998
H	0.141752	2.078607	0.419463
H	-1.485243	1.420045	0.768283
H	-0.10873	1.069336	1.830223
F	2.551226	0.0	0.0
