14

C	-0.416875	0.011295	-1.460978
C	0.0	0.0	0.0
F	-1.777091	0.270394	-1.59486
H	1.102851	0.0	0.0
H	-0.283718	-1.003761	-1.86405
N	0.302633	1.044689	-2.139753
H	0.171834	0.964508	-3.141
H	1.294378	0.970963	-1.921508
N	-0.529956	-1.201623	0.676708
H	-0.519096	-1.025533	1.675668
H	0.16181	-1.930732	0.527007
C	-0.484349	1.205738	0.668436
N	-0.848199	2.161474	1.244182
Cl	3.347227	0.0	0.0
