14

C	-0.321811	0.033125	-1.487061
C	0.0	0.0	0.0
F	-1.712204	0.059479	-1.680981
H	1.096985	0.0	0.0
H	-0.006164	-0.9284	-1.915939
N	0.2613	1.182886	-2.095231
H	1.18148	1.341747	-1.69455
H	0.369318	1.045459	-3.090859
N	-0.487955	-1.183608	0.694901
H	-1.390172	-1.449563	0.316648
H	0.172529	-1.93668	0.545694
C	-0.50881	1.208904	0.658707
N	-0.947121	2.152683	1.201362
Cl	3.322913	0.0	0.0
