14

C	-0.49639	0.006097	-1.44665
C	0.0	0.0	0.0
F	-0.109405	1.216003	-2.022478
H	1.094067	0.0	0.0
H	-1.597707	0.038446	-1.474247
N	0.062886	-1.08329	-2.158495
H	0.319223	-1.821167	-1.515541
H	-0.557246	-1.435817	-2.871434
N	-0.416284	-1.23996	0.660559
H	0.21052	-1.410973	1.437936
H	-1.358298	-1.154087	1.02521
C	-0.487245	1.203078	0.690129
N	-0.923482	2.111181	1.295133
Cl	3.326285	0.0	0.0
