14

C	-0.402886	-0.206826	-1.459297
C	0.0	0.0	0.0
F	-1.74254	-0.728597	-1.480386
H	1.099877	0.0	0.0
H	0.211026	-1.001979	-1.882977
N	-0.289567	0.959457	-2.23187
H	-0.514126	0.789367	-3.201088
H	-0.860052	1.708224	-1.861983
N	-0.414744	-1.08819	0.878959
H	0.371307	-1.714649	1.007591
H	-1.199203	-1.581343	0.479136
C	-0.546996	1.272065	0.486309
N	-1.04262	2.290389	0.798004
Cl	3.334542	0.0	0.0
