14

C	-0.403654	-0.087699	-1.465872
C	0.0	0.0	0.0
F	-0.147229	1.154517	-2.07381
H	1.103671	0.0	0.0
H	-1.479294	-0.259157	-1.5735
N	0.332288	-1.148449	-2.052954
H	0.1269	-1.234879	-3.040033
H	1.329008	-0.985952	-1.91661
N	-0.548358	-1.180042	0.693171
H	-0.100795	-1.224527	1.603263
H	-0.19857	-1.977361	0.169776
C	-0.521773	1.218051	0.617513
N	-0.932059	2.186223	1.138761
Cl	3.390597	0.0	0.0
