14

C	-0.339164	-0.175078	-1.485557
C	0.0	0.0	0.0
F	-0.112229	1.050164	-2.144178
H	1.095386	0.0	0.0
H	-1.404661	-0.390018	-1.639896
N	0.460499	-1.228435	-1.993913
H	0.346	-1.325093	-2.99301
H	1.440101	-1.035337	-1.783439
N	-0.439106	-1.113783	0.833656
H	0.174062	-1.893827	0.63868
H	-1.381845	-1.388733	0.575477
C	-0.548395	1.255792	0.512062
N	-1.039762	2.243852	0.911878
Cl	3.361415	0.0	0.0
