17
Coordinates from ORCA-job run
  C   0.52224318402752     -0.36916053034403      0.35854335228241
  C   -0.66571831750633      0.60043262329044      0.19084244681394
  H   0.41050399193717     -0.81302551868058      1.35564863459309
  H   -0.53090402083475      1.43122429185323      0.89428802087890
  C   1.85920919044496      0.36644379931626      0.29028406641746
  H   1.99403519804794      0.82600769688716     -0.69350244942970
  H   1.92799845498215      1.15289869170002      1.04825883403017
  H   2.68388806047917     -0.33282747341882      0.45235191970303
  N   0.37773785520958     -1.45542241997775     -0.60759246210293
  H   1.01304158861374     -2.20910095340987     -0.37427869235639
  H   0.63313280650318     -1.12265720389159     -1.53240685562412
  C   -2.01255090634737     -0.07619403890372      0.45502987680819
  H   -2.03942845206922     -0.44064262029358      1.48502396982943
  H   -2.83813212778616      0.62413606525087      0.31471775846319
  H   -2.13711221931345     -0.92446622154035     -0.21599911041763
  C   -0.62748778534222      1.16610196786853     -1.16144835383371
  N   -0.57145650104592      1.57825184429378     -2.25976095605533
