17
Coordinates from ORCA-job run
  C   0.55413983624409     -0.34433875230928      0.35466885860823
  C   -0.65411667536944      0.60080040575667      0.21279776553345
  H   0.47709661112006     -0.77464254951205      1.36780737536133
  H   -0.61112949353795      1.32057077971144      1.04052612627124
  C   1.86805846266394      0.41339875710929      0.24680220019827
  H   2.71030241132972     -0.24639885221094      0.47355943893791
  H   1.99444818620324      0.80040887731224     -0.76691364906843
  H   1.90013693984864      1.25160567243110      0.94677020525833
  N   0.49026053244605     -1.35869779695633     -0.69342470432933
  H   1.40511042635975     -1.76724184910320     -0.83961481536121
  H   -0.13720049131100     -2.10900521078473     -0.43214471725187
  C   -1.98803108254271     -0.14811837656073      0.27308458417567
  H   -2.04012003708239     -0.74449233021106      1.18854877502292
  H   -2.09148699604791     -0.80628904690843     -0.59047820360187
  H   -2.82813769261667      0.54864007585651      0.27040840806106
  C   -0.55910463762336      1.36783180885546     -1.03250601714371
  N   -0.48922630008407      1.99596838752406     -2.02189163067199
