17
Coordinates from ORCA-job run
  C   0.64729249212327     -0.30562542339544      0.46702825266918
  C   -0.80880649722831      0.20707036861282      0.55219404284992
  H   1.11932645220104     -0.08229719039930      1.43695916832572
  H   -1.32157449662604     -0.39564015029910      1.31364501289068
  C   1.44505712965737      0.39278553234551     -0.62276742350628
  H   2.49777720195247      0.10249468914008     -0.56168095360884
  H   1.07439457214402      0.10974539370113     -1.60965378696721
  H   1.39406754167443      1.47865356028644     -0.51820903395539
  N   0.59641680851713     -1.74032303083461      0.18647155733676
  H   1.52124562818029     -2.07167955454424     -0.06248187499375
  H   0.31099659043370     -2.24710964882393      1.01721583086684
  C   -1.57763880766066      0.08761405615595     -0.76624017292051
  H   -1.20191702290912      0.79507277766157     -1.50670859311755
  H   -1.46398689815777     -0.92610608810653     -1.14973749813007
  H   -2.63747749755606      0.29701566481471     -0.60947147352291
  C   -0.81055691257530      1.59044322986201      1.03442581255689
  N   -0.78561628417046      2.70688581382292      1.39801113322650
