17
Coordinates from ORCA-job run
  C   0.63685811475665     -0.14152404909583      0.36499459809800
  C   -0.87925412856723      0.03544668566115      0.16344885130777
  H   1.00665937710003      0.76337029383164      0.86240870752496
  H   -1.27594468752744     -0.91963029565166     -0.20849622201999
  C   1.37056910594145     -0.31217157876705     -0.96478790780603
  H   1.32288128723966      0.58102714117323     -1.59142472637765
  H   2.42485899845234     -0.53034641707629     -0.77677655261095
  H   0.94923659157477     -1.15152069473492     -1.52910819902483
  N   0.83022369107681     -1.24762786116084      1.29883315271262
  H   0.69086790487800     -2.12994627208071      0.81728713029820
  H   1.77907781534188     -1.24506006548646      1.65356026619068
  C   -1.25182427969135      1.14834427764707     -0.82206120320976
  H   -0.78310115089804      2.09073352930948     -0.52756015074399
  H   -0.92797666170139      0.89691743731033     -1.83260696028875
  H   -2.33238251066707      1.29926701747307     -0.83971010971383
  C   -1.51321440258593      0.29374769788719      1.46003507124977
  N   -2.04553506472315      0.56697315376060      2.46996425441377
