14

C	-0.386507	-0.120558	-1.473813
C	0.0	0.0	0.0
Br	-0.151499	1.712709	-2.321416
H	1.092922	0.0	0.0
H	-1.449664	-0.303483	-1.61124
N	0.409566	-1.137247	-2.014345
H	0.24925	-1.289522	-2.99836
H	1.397517	-0.988083	-1.817284
N	-0.490199	-1.271984	0.661905
O	0.330506	-1.978855	1.227943
O	-1.698358	-1.493373	0.574795
C	-0.59539	1.115669	0.713606
N	-1.089517	1.985262	1.329144
Cl	3.234563	0.0	0.0
