16

C	0.0	0.0	0.0
C	-0.320599	0.281824	-1.525349
F	1.374594	0.0	0.0
H	0.55493	0.836127	-1.867406
C	-0.377084	1.229276	0.760101
N	-0.564335	2.209918	1.379573
N	-0.566085	-1.199756	0.476072
H	-1.595719	-1.011795	0.353341
H	-0.374956	-1.28069	1.469481
N	-1.519172	0.905104	-1.939385
H	-1.392702	1.906866	-1.888848
H	-2.272875	0.606432	-1.271531
N	-0.176168	-1.067217	-2.21235
O	0.968084	-1.415933	-2.512284
O	-1.190881	-1.717802	-2.415973
F	-2.846014	0.0	0.0
