16

C	0.0	0.0	0.0
C	-0.285193	0.280011	-1.50682
F	1.416615	0.0	0.0
H	0.524249	-0.246639	-2.015521
C	-0.378473	1.15427	0.85119
N	-0.490803	2.068884	1.579671
N	-0.419067	-1.271887	0.465818
H	-1.457329	-1.139021	0.423769
H	-0.129236	-1.347804	1.435505
N	-0.254179	1.675939	-1.858639
H	-1.099994	2.098795	-1.486512
H	0.54104	2.099232	-1.393542
N	-1.518045	-0.334854	-2.125352
O	-1.516558	-1.559335	-2.197822
O	-2.334889	0.407731	-2.647727
F	-2.497997	0.0	0.0
