16

C	0.0	0.0	0.0
C	-0.354971	0.069859	-1.543506
F	1.361968	0.0	0.0
H	0.580334	0.307846	-2.060037
C	-0.405355	1.291104	0.619436
N	-0.546307	2.31426	1.176394
N	-0.533931	-1.04963	0.788901
H	-1.561163	-0.876951	0.706046
H	-0.293911	-1.932802	0.354114
N	-1.388532	0.954447	-1.858191
H	-1.619975	0.901203	-2.8407
H	-2.195533	0.694305	-1.234701
N	-0.585073	-1.39051	-2.028711
O	0.308367	-2.203605	-1.776276
O	-1.589628	-1.640333	-2.685158
F	-2.799936	0.0	0.0
