16

C	0.0	0.0	0.0
C	-0.216523	0.047322	-1.561444
F	1.398983	0.0	0.0
H	0.343038	0.915701	-1.921421
C	-0.416214	1.319551	0.52725
N	-0.70097	2.393857	0.902857
N	-0.580243	-1.031555	0.760408
H	-0.440254	-1.899377	0.254207
H	-1.59948	-0.798907	0.718617
N	-1.519954	-0.070616	-2.059514
H	-1.716676	0.671694	-2.712973
H	-2.235517	-0.084639	-1.269251
N	0.645464	-1.103753	-2.130037
O	0.421422	-2.248529	-1.740687
O	1.4693	-0.813615	-2.997108
F	-2.933934	0.0	0.0
