16

C	0.0	0.0	0.0
C	-0.473096	0.142235	-1.473121
F	1.389855	0.0	0.0
H	-1.539174	0.379158	-1.375567
C	-0.380882	1.210512	0.772611
N	-0.553477	2.178796	1.413492
N	-0.529978	-1.136209	0.660736
H	-0.325312	-1.950796	0.090322
H	-1.567151	-0.916287	0.587234
N	-0.268651	-1.018551	-2.287164
H	0.634703	-1.44061	-2.113362
H	-1.01286	-1.677271	-2.105858
N	0.255382	1.290938	-2.103827
O	1.308213	1.049105	-2.692833
O	-0.228717	2.413655	-1.957431
F	-2.724206	0.0	0.0
