16

C	0.0	0.0	0.0
C	-0.481883	-0.16923	-1.445169
F	1.403783	0.0	0.0
H	-1.571496	-0.011392	-1.384279
C	-0.337498	1.352611	0.534035
N	-0.487829	2.373545	1.096076
N	-0.526426	-1.045093	0.795377
H	-1.562746	-0.902611	0.61314
H	-0.356364	-0.803746	1.767849
N	-0.108553	-1.435203	-1.960118
H	-0.420454	-1.527113	-2.917287
H	0.897419	-1.540387	-1.9318
N	0.122505	0.983491	-2.260315
O	1.114938	0.742884	-2.952054
O	-0.431955	2.078448	-2.192295
F	-2.736654	0.0	0.0
