15
Coordinates from ORCA-job run
  C   -0.37420935300941     -0.13610606721392      0.46698456887400
  C   1.13191741658728     -0.26675528273930      0.26100040749154
  Br  -0.55325408017192     -0.50631237311297      2.48298876386878
  H   1.48749744701675     -1.24829505211804      0.56932471196541
  H   1.66593032673380      0.52234959374708      0.78719733925505
  N   -1.05148251947083     -1.07175316220285     -0.32863663803999
  H   -2.05593590555182     -1.02567450214374     -0.22449304006574
  H   -0.72649372194049     -2.02261934162710     -0.21255315891190
  C   -0.92137713281248      1.26158155230919      0.25716951663990
  H   -0.80703028206977      1.53643091466868     -0.79243358643999
  H   -0.39346897974274      1.98427145533320      0.87837373491314
  H   -1.97994214895393      1.28991386685252      0.52345984720215
  N   1.45246958612403     -0.13799422134442     -1.19300374916889
  O   1.64332492763981     -1.17849331971240     -1.81743790993638
  O   1.48205441962174      0.99945593930406     -1.65894080764708
