15
Coordinates from ORCA-job run
  C   -0.30753329278167     -0.03365819405235      0.42022387896809
  C   0.87593207348989      0.38066512567973     -0.44936644172793
  Br  0.40635699657651     -0.20941393240490      2.31987071590667
  H   0.50527271026170      0.62880735386886     -1.44637751918691
  H   1.41301717537336      1.21522745807005     -0.00557467889342
  N   -0.86400523555041     -1.24581356175790     -0.00846509363823
  H   -1.85087218540450     -1.36219537865453      0.14455423606902
  H   -0.50191800004262     -1.65947942222819     -0.85153563350676
  C   -1.30394925490769      1.11603650156469      0.48095620035548
  H   -1.70484787153959      1.29062622135774     -0.52260184920833
  H   -0.84519155923388      2.03047492786278      0.85939994217776
  H   -2.12820860268943      0.85323361393891      1.14704783365943
  N   1.85995181103545     -0.72167632299146     -0.64182683673161
  O   2.88819799287802     -0.69784760712540      0.02463785147297
  O   1.55779724253486     -1.58498678312804     -1.46994260571622
