15
Coordinates from ORCA-job run
  C   -0.37905817304062     -0.15046195887136      0.60111733909640
  C   1.11947868074201     -0.27253976037052      0.26414226009838
  Br  -0.41017701859767     -0.31414889238280      2.57079391222238
  H   1.71193672618456      0.47742282229111      0.78372678850974
  H   1.47957616213676     -1.27880204917781      0.47817489821180
  N   -1.22672754524967     -1.18445240385074      0.08008910999686
  H   -1.29961870898748     -1.09375232890331     -0.92732050429179
  H   -0.85640321599017     -2.10419113029296      0.28933997584151
  C   -0.93239808978373      1.20846164951569      0.21539019485886
  H   -0.32903187455180      2.01586301243477      0.63095436067014
  H   -0.93937119969724      1.31152343936862     -0.87448601956041
  H   -1.95611153445187      1.29381597168034      0.57794233194946
  N   1.30940928173873     -0.03446211524271     -1.19463794986214
  O   0.96858854416558     -0.94070297479534     -1.95644205214584
  O   1.74090796538261      1.06442671859701     -1.53978464559534
