15
Coordinates from ORCA-job run
  C   -0.35110273643334      0.01669727256372      0.31769772905188
  C   0.79613649762291      0.25396619908566     -0.65503022131728
  Br  0.51358449990145     -0.00133846610733      2.17446062848304
  H   1.25027056744728      1.22807689101416     -0.49140279692328
  H   0.41038756444121      0.16682745833349     -1.67489951529960
  N   -1.06312036746833     -1.15931596961427      0.02310332120720
  H   -0.46343026613310     -1.97226247775335     -0.02789400323300
  H   -1.82177681371496     -1.31446878109777      0.67363066046430
  C   -1.27738467644767      1.22045828260161      0.31373937253272
  H   -1.71661180763914      1.32404800324476     -0.68244568752244
  H   -0.74506110624001      2.13286725437776      0.58145492494373
  H   -2.08344605653460      1.07346455587989      1.03507922339160
  N   1.90518741871136     -0.73914301617160     -0.54545413291713
  O   3.04622024324723     -0.29807360124596     -0.46808389763859
  O   1.60014703923972     -1.93080360511076     -0.57295560522314
