14

C	-0.46836	0.00784	-1.446149
C	0.0	0.0	0.0
F	-0.001806	1.135125	-2.100081
H	1.094153	0.0	0.0
H	-0.333593	-0.940453	0.451829
C	-0.007529	-1.183853	-2.185756
N	0.336671	-2.122494	-2.80094
C	-1.949287	0.043456	-1.529857
N	-3.122947	0.073958	-1.559558
C	-0.520332	1.203997	0.774766
H	-0.21558	2.129229	0.283587
H	-0.07197	1.200834	1.76959
H	-1.609161	1.201688	0.883323
Cl	3.412551	0.0	0.0
