14

C	-0.467813	0.016221	-1.446732
C	0.0	0.0	0.0
F	-0.003747	-1.101478	-2.117911
H	1.094257	0.0	0.0
H	-0.334195	0.932734	0.467014
C	-1.948622	-0.014055	-1.53135
N	-3.122361	-0.043503	-1.557172
C	-0.002651	1.218284	-2.16722
N	0.341963	2.163487	-2.772247
C	-0.520476	-1.2166	0.754254
H	-0.209285	-2.133544	0.251875
H	-1.610089	-1.219593	0.856414
H	-0.078299	-1.226034	1.752089
Cl	3.414441	0.0	0.0
