14

C	-0.475021	-0.011018	-1.442921
C	0.0	0.0	0.0
F	0.013555	1.0921	-2.117055
H	1.093877	0.0	0.0
H	-0.341903	0.948935	0.426114
C	-0.048527	-1.227405	-2.164849
N	0.27482	-2.184432	-2.763018
C	-1.955224	0.055916	-1.513302
N	-3.128026	0.117586	-1.523913
C	-0.525377	-1.189431	0.794294
H	-0.163825	-2.129022	0.36978
H	-0.139983	-1.129375	1.813341
H	-1.618432	-1.219961	0.840139
Cl	3.415911	0.0	0.0
