16

C	-0.481477	0.06186	-1.457942
C	0.0	0.0	0.0
Br	0.226748	-1.428731	-2.520738
H	1.091307	0.0	0.0
C	-1.94206	0.089118	-1.589996
N	-3.10521	0.187023	-1.73089
C	0.037327	1.289409	-2.069224
N	0.397721	2.290613	-2.569338
N	-0.478939	-1.2455	0.670529
O	0.004144	-1.476469	1.773432
O	-1.340843	-1.929535	0.114335
C	-0.489585	1.186073	0.819582
H	-0.073619	1.091395	1.8225
H	-1.58181	1.224057	0.875083
H	-0.110169	2.112634	0.387072
Cl	3.212435	0.0	0.0
