16

C	-0.492162	0.005765	-1.45808
C	0.0	0.0	0.0
Br	0.324638	1.561548	-2.359871
H	1.091988	0.0	0.0
C	-0.064091	-1.175143	-2.20847
N	0.255708	-2.126364	-2.820174
C	-1.94214	0.177412	-1.567659
N	-3.098691	0.371956	-1.649693
N	-0.456889	-1.268136	0.654084
O	0.002387	-1.504463	1.765476
O	-1.286288	-1.968278	0.061525
C	-0.51874	1.154073	0.839384
H	-1.610109	1.13872	0.919275
H	-0.078173	1.066956	1.832427
H	-0.196737	2.101484	0.409005
Cl	3.229405	0.0	0.0
