16

C	-0.504904	0.020367	-1.456311
C	0.0	0.0	0.0
Br	0.301592	1.5812	-2.354611
H	1.092022	0.0	0.0
C	-0.086601	-1.153424	-2.223888
N	0.227813	-2.099141	-2.847251
C	-1.956479	0.192678	-1.545896
N	-3.113447	0.39237	-1.606669
N	-0.455967	-1.27576	0.641963
O	-1.296971	-1.962531	0.051755
O	0.021244	-1.52964	1.740599
C	-0.508054	1.151555	0.849927
H	-0.064254	1.054251	1.840687
H	-0.178215	2.099849	0.426515
H	-1.599218	1.146299	0.932197
Cl	3.244751	0.0	0.0
