16

C	-0.475223	0.000943	-1.457194
C	0.0	0.0	0.0
Br	0.166549	-1.611406	-2.383704
H	1.091313	0.0	0.0
C	-1.927543	0.076137	-1.623195
N	-3.085786	0.200513	-1.787308
C	0.130638	1.158499	-2.121022
N	0.628103	2.102387	-2.616015
N	-0.420486	-1.27635	0.663218
O	-1.607088	-1.604711	0.583836
O	0.455307	-1.911128	1.242879
C	-0.585489	1.15151	0.79047
H	-1.678457	1.109004	0.827859
H	-0.273082	2.103215	0.354342
H	-0.194201	1.110145	1.810475
Cl	2.694746	0.0	0.0
