16

C	-0.474038	-0.027	-1.466174
C	0.0	0.0	0.0
F	-0.220728	1.156462	-2.066673
H	1.091428	0.0	0.0
N	0.329442	-1.108421	-2.20525
O	1.079504	-0.740286	-3.088023
O	0.113005	-2.251302	-1.823515
C	-1.888407	-0.382338	-1.642914
N	-3.009132	-0.693647	-1.80769
N	-0.464033	-1.042478	0.841444
H	-1.394893	-1.370104	0.621768
H	0.203694	-1.79991	0.854405
N	-0.525558	1.309848	0.535105
O	-1.755932	1.40243	0.561623
O	0.266429	2.159795	0.914356
Br	3.394164	0.0	0.0
