16

C	-0.547826	0.001396	-1.420257
C	0.0	0.0	0.0
F	0.036758	0.901124	-2.245164
H	1.097147	0.0	0.0
N	-0.231223	-1.358377	-2.078439
O	0.647426	-2.048211	-1.580324
O	-0.842377	-1.571688	-3.124261
C	-2.008762	0.162828	-1.445117
N	-3.171046	0.333705	-1.450435
N	-0.548276	-1.136256	0.695314
H	-0.932392	-0.82291	1.577547
H	0.22137	-1.762036	0.901082
N	-0.409567	1.2822	0.679819
O	-0.558869	1.245699	1.901846
O	-0.519271	2.286861	-0.023251
Br	3.3507	0.0	0.0
