16

C	-0.547757	-0.016608	-1.420155
C	0.0	0.0	0.0
F	-1.890821	-0.263967	-1.428703
H	1.090159	0.0	0.0
N	-0.315707	1.286398	-2.19591
O	-1.219549	1.651574	-2.932186
O	0.781096	1.794055	-2.033857
C	0.110759	-1.074894	-2.196826
N	0.5543	-1.949497	-2.841116
N	-0.4152	-1.148361	0.731579
H	0.350912	-1.789123	0.869471
H	-1.245289	-1.599469	0.381661
N	-0.472503	1.246629	0.719252
O	-1.224831	2.020289	0.120669
O	-0.073075	1.385707	1.863157
Br	3.363202	0.0	0.0
