16

C	-0.642194	-0.088837	-1.379124
C	0.0	0.0	0.0
F	-1.9986	0.020445	-1.241023
H	1.091204	0.0	0.0
N	-0.194041	1.010643	-2.354899
O	0.971987	0.933227	-2.703684
O	-1.037938	1.823334	-2.69904
C	-0.33118	-1.36733	-2.022565
N	-0.113044	-2.368117	-2.597245
N	-0.445835	-1.108918	0.764947
H	-1.331826	-0.923928	1.215527
H	0.253994	-1.337769	1.458424
N	-0.408788	1.345992	0.591624
O	-0.093551	2.34089	-0.052583
O	-0.999348	1.346506	1.668734
Br	3.342837	0.0	0.0
