16

C	-0.47834	0.005604	-1.451357
C	0.0	0.0	0.0
F	-0.33181	-1.240315	-1.974845
H	1.094181	0.0	0.0
N	-1.997013	0.26917	-1.539507
O	-2.643943	0.165095	-0.502641
O	-2.447815	0.480216	-2.658988
C	0.186614	0.957426	-2.344061
N	0.69091	1.647238	-3.149471
N	-0.428057	-1.136585	0.720307
H	-1.319142	-0.996919	1.172038
H	0.281408	-1.392219	1.392047
N	-0.395259	1.31951	0.627406
O	-0.552866	2.278939	-0.127572
O	-0.501502	1.349699	1.847217
Br	3.319206	0.0	0.0
