16

C	-0.583908	-0.065685	-1.412621
C	0.0	0.0	0.0
F	-1.95015	-0.098516	-1.325786
H	1.09023	0.0	0.0
N	-0.222868	1.121681	-2.313291
O	0.92191	1.115924	-2.73448
O	-1.106186	1.936963	-2.524918
C	-0.135644	-1.277997	-2.101487
N	0.133645	-2.279996	-2.652434
N	-0.411892	-1.093983	0.792811
H	0.308787	-1.797028	0.85376
H	-1.326451	-1.467643	0.596285
N	-0.477158	1.316273	0.594094
O	-1.266903	1.291173	1.529082
O	-0.022753	2.32474	0.059058
Br	3.349515	0.0	0.0
