16

C	0.0	0.0	0.0
C	-0.397005	0.098763	-1.485469
Br	1.953223	0.0	0.0
H	0.206415	-0.614154	-2.054862
H	-0.303673	0.904857	0.524413
C	-0.560579	-1.245276	0.647491
H	-0.287664	-2.13774	0.07576
H	-0.184415	-1.355416	1.665975
H	-1.652467	-1.135966	0.666095
N	0.107739	1.449754	-2.019467
O	-0.053911	2.446969	-1.322353
O	0.560647	1.461633	-3.162429
N	-1.766477	0.005419	-1.797406
H	-1.972315	-0.846237	-2.297637
H	-2.48157	0.105723	-1.000544
H	-3.546408	0.0	0.0
