16

C	0.0	0.0	0.0
C	-0.631382	-0.166668	-1.375496
Br	1.958229	0.0	0.0
H	-1.717995	-0.286946	-1.112431
H	-0.28959	1.003555	0.318377
C	-0.487196	-1.009778	1.019824
H	-0.151968	-2.016853	0.773465
H	-1.585099	-0.955623	0.98729
H	-0.127449	-0.743728	2.016958
N	-0.145362	-1.428748	-2.016116
O	0.698798	-1.344028	-2.908135
O	-0.604023	-2.490105	-1.58721
N	-0.484311	0.92074	-2.291438
H	0.438012	1.335054	-2.235356
H	-1.192092	1.606872	-2.057878
H	-3.157314	0.0	0.0
