16

C	0.0	0.0	0.0
C	-0.402494	-0.084071	-1.479795
Br	1.953653	0.0	0.0
H	0.153522	-0.899924	-1.951707
H	-0.298597	0.966685	0.404157
C	-0.56611	-1.147981	0.80236
H	-1.657543	-1.03667	0.804128
H	-0.193317	-1.123005	1.829224
H	-0.293626	-2.107865	0.355366
N	0.188895	1.152796	-2.19517
O	0.695121	0.968656	-3.302247
O	0.036011	2.250966	-1.668326
N	-1.778555	-0.117752	-1.758959
H	-2.033676	-0.953819	-2.266725
H	-2.491757	0.027667	-0.959838
H	-3.566905	0.0	0.0
