16

C	0.0	0.0	0.0
C	-0.402688	0.022044	-1.481653
Br	1.953275	0.0	0.0
H	0.130595	-0.777596	-2.004981
H	-0.296954	0.937828	0.468623
C	-0.572384	-1.197666	0.7199
H	-1.663449	-1.082038	0.725359
H	-0.204454	-1.244657	1.747523
H	-0.301538	-2.125777	0.208953
N	0.22446	1.284567	-2.118636
O	0.090468	2.353411	-1.529961
O	0.738145	1.152751	-3.230234
N	-1.779372	0.049988	-1.75286
H	-2.490269	0.122087	-0.939695
H	-2.058654	-0.719541	-2.344152
H	-3.568114	0.0	0.0
