16

C	0.0	0.0	0.0
C	-0.630074	-0.137289	-1.378489
Br	1.95951	0.0	0.0
H	-1.717258	-0.257573	-1.118244
H	-0.289354	0.996609	0.339871
C	-0.488997	-1.031644	0.996179
H	-0.129583	-0.789683	1.999424
H	-1.587057	-0.974002	0.963852
H	-0.156285	-2.033782	0.727015
N	-0.152994	-1.392043	-2.040771
O	-0.636083	-2.455382	-1.643468
O	0.705129	-1.300628	-2.918651
N	-0.473568	0.966507	-2.273195
H	0.443289	1.387829	-2.189152
H	-1.191809	1.642079	-2.041972
H	-3.155666	0.0	0.0
