16

C	0.0	0.0	0.0
C	-0.622136	-0.098657	-1.386143
Br	1.955108	0.0	0.0
H	-1.713896	-0.202322	-1.137092
H	-0.291053	0.98764	0.364177
C	-0.494163	-1.056692	0.966864
H	-1.59216	-1.001194	0.926727
H	-0.143944	-0.836751	1.978547
H	-0.155479	-2.051194	0.677662
N	-0.165094	-1.349768	-2.068052
O	-0.666031	-2.411715	-1.691178
O	0.697699	-1.256925	-2.941632
N	-0.428113	1.015192	-2.262254
H	0.51158	1.385543	-2.188472
H	-1.104111	1.723963	-2.004974
H	-3.15698	0.0	0.0
