15

C	0.0	0.0	0.0
C	-0.345831	0.222371	-1.480086
Br	1.91897	0.0	0.0
H	-0.083038	-0.668089	-2.043476
H	-0.37301	0.760135	0.668186
N	-0.424739	-1.339834	0.500292
O	-0.496641	-2.255916	-0.307153
O	-0.537696	-1.436422	1.714036
N	0.454023	1.355631	-2.068638
O	0.864196	1.188334	-3.21844
O	0.560716	2.385269	-1.413512
N	-1.746328	0.592665	-1.960633
O	-2.098635	1.756316	-1.855402
O	-2.273656	-0.266737	-2.658951
F	-2.259072	0.0	0.0
