15

C	0.0	0.0	0.0
C	-0.300878	0.165546	-1.49454
Br	1.917161	0.0	0.0
H	0.260326	-0.570926	-2.065712
H	-0.395014	0.788087	0.619593
N	-0.422537	-1.321345	0.54357
O	-0.452899	-2.265815	-0.236779
O	-0.566103	-1.378121	1.756564
N	0.205885	1.509687	-1.941162
O	0.115365	2.453958	-1.165128
O	0.635849	1.562176	-3.091811
N	-1.70365	0.092341	-2.083144
O	-2.039834	-1.023041	-2.451477
O	-2.256374	1.147374	-2.357521
F	-2.25905	0.0	0.0
