11

C	-0.366118	-0.048006	-1.469735
C	0.0	0.0	0.0
Br	-2.300662	-0.286673	-1.828085
H	1.095028	0.0	0.0
H	0.115029	-0.908977	-1.937948
H	-0.352708	0.920908	0.469957
C	0.045336	1.16676	-2.163949
N	0.333724	2.145359	-2.745144
C	-0.488093	-1.157775	0.723581
N	-0.848917	-2.104926	1.318965
H	2.668511	0.0	0.0
