11

C	-0.356161	-0.084947	-1.467862
C	0.0	0.0	0.0
Br	-2.195098	-0.741099	-1.811774
H	1.095238	0.0	0.0
H	0.300968	-0.829236	-1.92593
H	-0.28896	-0.931343	0.495352
C	-0.204365	1.17866	-2.176934
N	-0.102231	2.200256	-2.748406
C	-0.588715	1.129715	0.687097
N	-1.040079	2.05011	1.26305
H	2.661205	0.0	0.0
