13

C	0.0	0.0	0.0
C	-0.503047	0.39404	-1.371594
Br	1.947892	0.0	0.0
H	-0.172974	-0.309449	-2.131687
H	-0.264702	0.778183	0.717978
H	-1.599191	0.438804	-1.305673
N	-0.503874	-1.315262	0.290322
H	-0.283075	-1.542456	1.253506
H	-1.525617	-1.230925	0.232501
N	-0.031292	1.738825	-1.782308
O	-0.076548	2.638029	-0.946294
O	0.341678	1.880972	-2.948053
Cl	-3.553391	0.0	0.0
