13

C	0.0	0.0	0.0
C	-0.529462	-0.040908	-1.412576
Br	2.010456	0.0	0.0
H	-1.624222	0.0584	-1.308701
H	-0.269878	0.942247	0.468978
H	-0.2631	-0.957747	-1.935703
N	-0.510063	-1.084873	0.716985
H	-0.13773	-1.981473	0.449087
H	-0.541718	-0.959107	1.713638
N	-0.02853	1.084328	-2.237627
O	0.2838	0.842545	-3.40368
O	0.008578	2.196402	-1.715816
Cl	-3.708832	0.0	0.0
