16

C	-0.423705	-0.003537	-1.473646
C	0.0	0.0	0.0
Br	0.184208	-1.596395	-2.381425
H	1.096406	0.0	0.0
N	-1.965345	0.062567	-1.534233
O	-2.582989	-0.98073	-1.383452
O	-2.444428	1.188686	-1.635608
C	0.08824	1.161262	-2.183922
N	0.485886	2.102292	-2.765365
C	-0.477914	-1.195053	0.684381
N	-0.843573	-2.124643	1.303597
C	-0.451461	1.266013	0.735784
H	-0.082052	2.150586	0.214489
H	0.000941	1.251207	1.728731
H	-1.536944	1.33184	0.839126
Cl	3.199006	0.0	0.0
