16

C	-0.502816	0.024971	-1.443583
C	0.0	0.0	0.0
Br	0.379211	1.425544	-2.462574
H	1.094082	0.0	0.0
N	-0.18325	-1.292732	-2.181079
O	0.69073	-1.994343	-1.701333
O	-0.825618	-1.495357	-3.204663
C	-1.945023	0.225961	-1.533045
N	-3.10428	0.424581	-1.538982
C	-0.534793	-1.190966	0.655635
N	-1.024754	-2.108684	1.202537
C	-0.433205	1.250516	0.775976
H	-1.520412	1.348332	0.834784
H	-0.005095	2.138813	0.311545
H	-0.026217	1.175952	1.785473
Cl	3.244662	0.0	0.0
