16

C	-0.432426	0.019306	-1.470112
C	0.0	0.0	0.0
Br	-2.381982	0.11574	-1.681047
H	1.096817	0.0	0.0
N	0.161695	1.260348	-2.168457
O	-0.332923	2.338448	-1.870171
O	1.086577	1.057697	-2.94325
C	0.008511	-1.166216	-2.189053
N	0.348328	-2.13934	-2.753038
C	-0.476862	-1.243787	0.594737
N	-0.864075	-2.221339	1.119859
C	-0.436043	1.199523	0.843734
H	0.048451	2.106044	0.486252
H	-1.519191	1.336728	0.842266
H	-0.095999	1.018766	1.864832
Cl	3.183094	0.0	0.0
