16

C	-0.389562	0.00435	-1.468201
C	0.0	0.0	0.0
Br	0.198364	-1.606891	-2.380083
H	1.096402	0.0	0.0
N	-1.928524	0.109083	-1.541213
O	-2.572578	-0.896734	-1.287521
O	-2.387095	1.235426	-1.716499
C	0.176232	1.156585	-2.165758
N	0.665559	2.079085	-2.706271
C	-0.448109	-1.207192	0.672111
N	-0.789513	-2.143504	1.294423
C	-0.499467	1.242958	0.735101
H	-1.590624	1.25682	0.829733
H	-0.060255	1.250261	1.734593
H	-0.174241	2.149149	0.219935
Cl	2.961287	0.0	0.0
