16

C	-0.418831	-0.009999	-1.475405
C	0.0	0.0	0.0
Br	0.167231	-1.615144	-2.375919
H	1.096476	0.0	0.0
N	-1.958814	0.071285	-1.539217
O	-2.585613	-0.962162	-1.364606
O	-2.428057	1.198484	-1.666311
C	0.111117	1.143327	-2.190906
N	0.524848	2.074994	-2.776146
C	-0.480536	-1.191337	0.689355
N	-0.848366	-2.115925	1.31486
C	-0.453202	1.270428	0.727326
H	-1.538887	1.335047	0.830006
H	-0.001676	1.263087	1.720389
H	-0.084612	2.152111	0.200057
Cl	3.198683	0.0	0.0
