16

C	-0.460347	-0.017643	-1.466938
C	0.0	0.0	0.0
Br	-2.407575	-0.126031	-1.646492
H	1.097062	0.0	0.0
N	0.012593	1.290591	-2.140004
O	1.100804	1.235217	-2.707027
O	-0.702123	2.272873	-1.992827
C	0.0959	-1.140424	-2.208514
N	0.540526	-2.051758	-2.805769
C	-0.456185	-1.232888	0.630349
N	-0.823904	-2.209205	1.171379
C	-0.448586	1.224789	0.798271
H	0.047863	2.119324	0.421872
H	-0.127276	1.081035	1.831741
H	-1.530925	1.367338	0.771226
Cl	3.169806	0.0	0.0
