17

C	-0.501127	-0.054493	-1.448417
C	0.0	0.0	0.0
Br	0.16696	1.639699	-2.346183
H	1.093068	0.0	0.0
C	0.135063	-1.209342	-2.190868
H	-0.144293	-1.183461	-3.247954
H	1.21944	-1.144211	-2.099045
H	-0.209597	-2.135721	-1.733565
N	-1.920962	-0.114344	-1.476997
H	-2.323629	0.735214	-1.097264
H	-2.2555	-0.230006	-2.426761
N	-0.392364	-1.240582	0.665918
H	-1.36018	-1.200715	0.962575
H	0.20973	-1.377101	1.470317
C	-0.527276	1.190246	0.689514
N	-1.036546	2.056746	1.300756
Br	3.504307	0.0	0.0
