17

C	-0.236161	-0.045324	-1.511988
C	0.0	0.0	0.0
Br	-2.172662	-0.247032	-1.926157
H	1.106677	0.0	0.0
C	0.245991	1.233092	-2.179265
H	0.140193	1.146344	-3.26348
H	-0.313949	2.106418	-1.840942
H	1.304711	1.357877	-1.927052
N	0.426652	-1.249414	-1.972588
H	1.407915	-1.175433	-1.692386
H	0.38498	-1.294769	-2.984666
N	-0.540339	-1.175816	0.686078
H	0.093406	-1.385066	1.451367
H	-0.452891	-1.941463	0.023415
C	-0.512627	1.228708	0.602883
N	-0.916515	2.216949	1.092424
Br	3.475276	0.0	0.0
