17

C	-0.281657	-0.020216	-1.511977
C	0.0	0.0	0.0
Br	-2.269391	-0.145497	-1.764415
H	1.097891	0.0	0.0
C	0.208009	1.244421	-2.182193
H	0.062181	1.16249	-3.260217
H	1.276912	1.345689	-1.961001
H	-0.316746	2.12487	-1.810111
N	0.306949	-1.176447	-2.125483
H	1.316174	-1.019519	-2.121184
H	0.135229	-1.959665	-1.499244
N	-0.422681	-1.240319	0.634651
H	0.181571	-1.422438	1.426165
H	-1.381255	-1.174155	0.953278
C	-0.500329	1.209352	0.659845
N	-0.897365	2.172379	1.204688
Br	3.452392	0.0	0.0
