17

C	-0.493871	-0.06298	-1.455582
C	0.0	0.0	0.0
Br	-0.201313	1.687614	-2.308399
H	1.097642	0.0	0.0
C	0.33943	-1.079454	-2.22172
H	1.402322	-0.835074	-2.160667
H	0.177604	-2.060422	-1.765154
H	0.022191	-1.114309	-3.267568
N	-1.919988	-0.304559	-1.453698
H	-2.04649	-1.184902	-0.961828
H	-2.241587	-0.425272	-2.408519
N	-0.407109	-1.256161	0.668039
H	0.41895	-1.651831	1.098542
H	-1.0783	-1.066398	1.398934
C	-0.516777	1.160295	0.726972
N	-0.983244	2.010652	1.390091
Br	3.491253	0.0	0.0
