14
Coordinates from ORCA-job run
  C   0.97052634183825     -0.38271147934485      0.10854561592125
  C   -0.54810894659006     -0.30234749250140     -0.25815129454275
  Br  1.46814825504092     -2.24333884537373      0.44113558762598
  H   -0.70633462026265     -1.05929638343533     -1.03883682110634
  C   1.21870042242690      0.40053887486874      1.31498647944936
  N   1.37443509204097      1.02393680343431      2.29880394631858
  C   1.78113033844529      0.10696527772584     -1.00362312826930
  N   2.36790057588179      0.50063357459829     -1.94330100521319
  N   -0.79343367958857      1.06967420962539     -0.67196465653734
  H   -0.38886147954769      1.27251843918050     -1.57937857145640
  H   -1.79186595235312      1.23011423639888     -0.72608726645070
  N   -1.30962043544238     -0.67317181423350      0.89728037369713
  H   -1.43679260778002      0.12413485555188      1.50992494128890
  H   -2.20582330410965     -1.06765025649502      0.65066579927483
