14
Coordinates from ORCA-job run
  C   0.94306192688496     -0.24720482897630      0.38686584319420
  C   -0.60389059287932     -0.02999107910394      0.30474067605530
  Br  1.34298851417685     -1.62677056611306      1.71240140060439
  H   -0.94253956743614      0.09425772410427      1.34265444974945
  C   1.60040441177906      0.98655788173072      0.81060295455622
  N   2.05737402034029      2.00891255978680      1.16869209116848
  C   1.44058632410742     -0.67851039574771     -0.91582423757790
  N   1.79889238568454     -1.04358592542424     -1.97369086622796
  N   -1.19716654702136     -1.21988092347683     -0.22874351216324
  H   -2.14928182886993     -1.34207217463311      0.08451454007328
  H   -1.16256110527488     -1.21045853499063     -1.24155255208431
  N   -0.80633747252592      1.12726246215222     -0.55180317078579
  H   -1.78568325400871      1.19193334307135     -0.80184147582570
  H   -0.53684721495687      1.99155045762046     -0.09501614073643
