14
Coordinates from ORCA-job run
  C   0.93544321399981     -0.08537003453314      0.33015212906564
  C   -0.49358033442817      0.16610817972484     -0.24467900762876
  Br  0.84309643506499     -0.91164471774637      2.10349770976419
  H   -0.31044809421256      0.72874218537744     -1.17456517986673
  C   1.63748195919876      1.18940546358155      0.45024043144547
  N   2.20430900924095      2.21709293200290      0.50549684393353
  C   1.67199806643540     -0.98653161226444     -0.55384848394022
  N   2.20098194371698     -1.70885679689265     -1.31592640730999
  N   -1.19689333434554      1.03480312983739      0.65363351798353
  H   -1.89775695828634      1.57969244127326      0.17131504583125
  H   -1.62856407650805      0.49676240585654      1.39516320997616
  N   -1.14815754341709     -1.11299451017644     -0.43989722218128
  H   -2.11200153702574     -0.95238039002948     -0.70562114009965
  H   -0.70590874943337     -1.65582867601142     -1.17396144697313
