14
Coordinates from ORCA-job run
  C   0.91547088847895     -0.20588964394871      0.33327058627515
  C   -0.46726091737226      0.11520365168725     -0.31561016234004
  Br  0.70865555206873     -1.40243330186109      1.86995472537806
  H   -0.20893060856194      0.68893003193120     -1.22051092075566
  C   1.54021172097466      1.03011622495779      0.80003618187333
  N   1.97945044550051      2.06570980932673      1.14218375103072
  C   1.76952013615152     -0.86291544400438     -0.65216236606571
  N   2.45899701583100     -1.35548964756572     -1.46629475634229
  N   -1.27282338243366      0.84501506810097      0.64419073606520
  H   -2.20886347616134      0.95340192737992      0.27341381013766
  H   -0.89790015427328      1.76981672780170      0.82679705031727
  N   -1.06449422901129     -1.11661831771059     -0.74220547351181
  H   -1.56048558421664     -1.55034019018961      0.02698933071614
  H   -1.69354740697495     -0.97450689590546     -1.52005249277803
