14
Coordinates from ORCA-job run
  C   0.91670056486824     -0.14770236704097      0.35879539907547
  C   -0.47513861115738      0.20255093487329     -0.25459742360665
  Br  0.71561516427902     -1.04752737562336      2.08654787905315
  H   -0.22877981539676      0.79658962201302     -1.14972975702194
  C   1.67700145338366      1.08187332720513      0.56437339877851
  N   2.29315179785692      2.07464814401953      0.68894639896779
  C   1.64019622170035     -1.04465768207667     -0.54004224620118
  N   2.16018929227318     -1.75880942662102     -1.31602700560562
  N   -1.16841212160963      1.06446172213344      0.65763091133160
  H   -1.82567837420596      1.66286632206677      0.17719812062744
  H   -1.65008052188563      0.51688788262590      1.36047863056593
  N   -1.18341880720458     -1.03172996559192     -0.53376318670888
  H   -2.12901254032873     -0.81089401422159     -0.82087835841259
  H   -0.74333370257271     -1.55955712376155     -1.27993276084303
