14
Coordinates from ORCA-job run
  C   0.93739896295447     -0.22846402236248      0.43871044015017
  C   -0.60390740655369     -0.01045756221502      0.33309716498020
  Br  1.35383976924174     -1.74484532624764      1.60091466357547
  H   -0.95176800435966      0.14562107861631      1.35826939523473
  C   1.58183908112332      0.95581138956834      1.00133727551915
  N   2.10660887563546      1.88764713377228      1.48809063904173
  C   1.45211562666969     -0.50525604850931     -0.90131702021066
  N   1.77082873314642     -0.72019011989311     -2.01248845865566
  N   -1.20983736295640     -1.21962172234413     -0.17192272823894
  H   -1.07091957836766     -1.30668111492750     -1.17269277658242
  H   -2.20377331470708     -1.22462573448271      0.01587091459367
  N   -0.77472905978593      1.23257004120128     -0.39624155672091
  H   -0.71768267851260      1.07929550160279     -1.39681093676162
  H   -1.66801364352808      1.65819650622090     -0.18581701592491
