15

C	0.0	0.0	0.0
C	-0.632509	-0.067657	-1.363585
Br	2.009124	0.0	0.0
H	-1.767952	-0.179414	-0.927045
H	-0.27676	-0.888241	0.562301
N	-0.427526	1.213349	0.640644
H	-0.857457	1.040073	1.537931
H	0.319395	1.889018	0.708869
N	-0.20236	-1.284556	-2.049991
O	-0.21022	-2.326621	-1.373605
O	0.133792	-1.244382	-3.241216
N	-0.573973	1.082606	-2.197336
H	0.370987	1.453935	-2.247002
H	-1.176714	1.772404	-1.761301
H	-2.844677	0.0	0.0
