15

C	0.0	0.0	0.0
C	-0.580266	-0.056236	-1.398192
Br	1.944075	0.0	0.0
H	-1.67076	-0.228515	-1.170475
H	-0.249923	-0.938509	0.497887
N	-0.553599	1.175268	0.618838
H	-0.317708	1.162346	1.606777
H	-1.583738	0.988583	0.548154
N	-0.132446	-1.275217	-2.134858
O	0.028767	-2.308106	-1.484405
O	-0.056101	-1.207871	-3.359947
N	-0.299234	1.12804	-2.156605
H	-1.078975	1.314657	-2.77648
H	-0.253454	1.881373	-1.477118
H	-2.999602	0.0	0.0
