15

C	0.0	0.0	0.0
C	-0.548822	0.196074	-1.409411
Br	2.013789	0.0	0.0
H	-0.328535	-0.67231	-2.033346
H	-0.240417	-1.003619	0.353425
N	-0.497352	0.989355	0.872468
H	-0.096802	0.915986	1.797092
H	-0.300224	1.889112	0.423197
N	0.014022	1.358761	-2.091135
O	-0.222731	2.492552	-1.401422
O	-0.086275	1.332484	-3.396559
N	-1.994037	0.343948	-1.227757
H	-2.435244	0.207758	-2.13627
H	-2.068979	1.343784	-1.014464
H	-3.16123	0.0	0.0
