7
Coordinates from ORCA-job run
  C   0.14246297230037     -0.16823220763780      0.44249521511774
  C   -1.04590377091584      0.09370457098760     -0.12336222763574
  H   0.21234752255427     -0.54011439512200      1.45998322635692
  H   -1.12108949109531      0.46402110213427     -1.13956751543736
  H   -1.96430486751674     -0.06302234863979      0.42977266656857
  C   1.37868821059044      0.02775301354633     -0.25426660304308
  N   2.39879942408281      0.18789026473140     -0.81605476192705
