7
Coordinates from ORCA-job run
  C   0.14560771549014     -0.46472852258035      0.08451385468193
  C   -1.04303513231847      0.12233538170647     -0.12384227458650
  H   0.22370794054048     -1.53430850447919      0.25279726814391
  H   -1.95268057856120     -0.46624031735701     -0.12715315810432
  H   -1.12701392460342      1.18984358262783     -0.29232806017953
  C   1.37110081850208      0.27692409967986      0.09662877830663
  N   2.38231316095040      0.87617428040239      0.10838359173788
