7
Coordinates from ORCA-job run
  C   0.15348345133740     -0.31726031014459      0.34739143626073
  C   -1.04555349789083      0.15390252713362     -0.02850898463460
  H   0.24901366682090     -1.02889268569137      1.16145755518739
  H   -1.94650104448557     -0.17029048640458      0.47823207856787
  H   -1.14712131992411      0.86465391064958     -0.84067382707367
  C   1.36743699412688      0.08584747920519     -0.29748079514087
  N   2.36924175001533      0.41103956525215     -0.81941746316687
