7
Coordinates from ORCA-job run
  C   0.16815867081335     -0.29200616299284      0.36191565099165
  C   -1.04774587079983      0.14412904649149     -0.00178097664414
  H   0.29926934823350     -0.94651282387031      1.21792589242623
  H   -1.92734779414900     -0.15203436349834      0.55719840962799
  H   -1.18398023587411      0.79778590082522     -0.85569733339891
  C   1.35509999744082      0.07680387524986     -0.35029362877448
  N   2.33554588433528      0.37283452779491     -0.92726801422833
