7
Coordinates from ORCA-job run
  C   0.12723168816029     -0.46036034229418      0.12538800254942
  C   -1.03773514819272      0.15165574823423     -0.13751537065708
  H   0.16354811716788     -1.51285822957809      0.38862529499904
  H   -1.96960344448098     -0.39906207965523     -0.09151077784069
  H   -1.08038203875197      1.20207242617323     -0.40069923108157
  C   1.38069902855799      0.23130126616079      0.07621462972901
  N   2.41524179753950      0.78825121095925      0.03849745230187
