15
Coordinates from ORCA-job run
  C   -0.71070798173929     -0.46375747183272     -0.29247240579309
  C   0.74768910750355     -0.05422904693334     -0.02232834406969
  Br  -0.93546542275945     -1.06037337070940     -2.12495143357516
  H   1.36477454802144     -0.91982919852128     -0.28087558407767
  N   -1.05650164570582     -1.67637073031996      0.59787314016651
  O   -2.15332499213422     -1.67171666570958      1.13535652015393
  O   -0.19507788444308     -2.53995458772806      0.65869971896574
  C   -1.64068671766955      0.61654086451625     -0.01332654488493
  N   -2.33416741990227      1.54407539510668      0.19328959260414
  C   0.87776051604281      0.18825114708567      1.41795196727781
  N   0.97172387008276      0.40662205362466      2.56839921781395
  C   1.17894279832652      1.18071756581359     -0.81626594315932
  H   0.56302715015698      2.04387678516668     -0.55883593481461
  H   2.21686508417770      1.41487149343531     -0.57543196329602
  H   1.10614899004192      0.99227576700549     -1.88708200331159
