15
Coordinates from ORCA-job run
  C   -0.55787264904914     -0.76379069275995     -0.40661700526994
  C   0.78803777453184     -0.00986726201971     -0.29992095701879
  Br  -0.29567115654635     -2.62316193969410     -0.85000724586041
  H   1.22203547689611     -0.04926220998346     -1.30600262218834
  N   -1.26400355921682     -0.65112569771627      0.95837979759036
  O   -0.84444318011697     -1.36975509645892      1.84993143494408
  O   -2.12591973255388      0.21603130636322      1.03650214714141
  C   -1.39849034200383     -0.14849063564665     -1.42194702673964
  N   -2.01728776141941      0.35645094842029     -2.28523498529136
  C   1.71233848645328     -0.69097624969910      0.60748862448395
  N   2.50445715228084     -1.16684837927360      1.33242815590695
  C   0.59583289687443      1.45282483693448      0.12046187886041
  H   -0.11249413639155      1.95506403102422     -0.54028975780780
  H   1.55597537087869      1.96699890376427      0.05791585364190
  H   0.23750535938276      1.52590813674528      1.14791170760720
