15
Coordinates from ORCA-job run
  C   -0.55570740395771     -0.74790862508446     -0.07016676730018
  C   0.50116970547447      0.34157822077837     -0.37586255206497
  Br  0.14244003695397     -2.17541652334470      1.01081956567190
  H   0.00025112294012      1.04225687739686     -1.05480825993801
  N   -1.69902079927414     -0.00018631250340      0.66528097418782
  O   -2.27490460799616      0.81145559036204     -0.04853308164386
  O   -1.88492424034598     -0.21738787848281      1.84819976351208
  C   -1.11302001657311     -1.29709293669172     -1.29659116333629
  N   -1.53732656629396     -1.73118918823927     -2.30407172656795
  C   1.62047135714688     -0.26310867781528     -1.09547497631026
  N   2.54234884122543     -0.71800567086785     -1.66366076191960
  C   0.97335528274430      1.09180607891894      0.87101384294251
  H   0.14327254631459      1.62263753315505      1.33993532706421
  H   1.72260589280363      1.82875739669518      0.57856088956690
  H   1.41998884883766      0.41080411572307      1.59535892613569
