15
Coordinates from ORCA-job run
  C   -0.67233992118463     -0.49574286965932     -0.32912407464427
  C   0.74877556324551      0.00310116231105     -0.01503295515158
  Br  -0.83642367849107     -0.98990975245268     -2.19797046664503
  H   1.43099587506924     -0.79671376328194     -0.31816202335070
  N   -0.93335001121627     -1.78470026261598      0.47920331815408
  O   -0.01116248482662     -2.58543278614205      0.49383328468050
  O   -2.03017098962411     -1.89395818934596      1.00539665709350
  C   -1.68323665960297      0.49243815805305      0.00457939220988
  N   -2.44777972862410      1.35045969065572      0.25582155958971
  C   0.84969005411068      0.16476042021581      1.43877831503705
  N   0.92386406130429      0.31877403591289      2.60108194389692
  C   1.09388534243531      1.31310010928721     -0.72670255783435
  H   0.40746151202678      2.10921981783136     -0.43294540561818
  H   1.05372956746554      1.18319608926736     -1.80811600110754
  H   2.10606149791242      1.61240813996347     -0.45064098630998
