15
Coordinates from ORCA-job run
  C   -0.70387856523339     -0.46539123310237     -0.30963913947809
  C   0.74715446282290     -0.04776871137095     -0.01315965011743
  Br  -0.89752319423065     -1.03303509018869     -2.15491235621779
  H   1.37524744247399     -0.90261684629263     -0.28080779383780
  N   -1.05052621298950     -1.69481272875401      0.55609571498890
  O   -0.18404252845765     -2.55386374689102      0.61034390944636
  O   -2.15186492715633     -1.70564183666250      1.08426345539166
  C   -1.64692523930828      0.60278723690585     -0.02672585673731
  N   -2.35165709009807      1.52154814865549      0.18052332694302
  C   0.85989240242187      0.16839155389556      1.43264917812575
  N   0.94768089946999      0.36643628742508      2.58732589309322
  C   1.17686212719806      1.20563414796972     -0.77845734788125
  H   1.12100811013448      1.03574022348096     -1.85352761073495
  H   0.54867238975197      2.05801905762207     -0.51448323489081
  H   2.20889992320061      1.44557353730745     -0.51848848809348
