15
Coordinates from ORCA-job run
  C   -0.49006498937513     -0.77906633770852     -0.15384150421884
  C   0.42756244324178      0.45185734276509     -0.35078994313841
  Br  0.43948246490578     -2.28558348084983      0.59502724930596
  H   -0.19990516700637      1.19977962482641     -0.85058980102329
  N   -1.61560395813338     -0.29141208436986      0.79542441618375
  O   -2.33313849005198      0.56077201128365      0.28647942860602
  O   -1.65885584444054     -0.71990545189732      1.93373914123122
  C   -1.11799165725418     -1.17218938875654     -1.40602887480627
  N   -1.60764942340886     -1.47642852875738     -2.43128717500798
  C   1.51727881941143      0.09694010008217     -1.25835690761098
  N   2.41294430132244     -0.15865634019674     -1.97384799451683
  C   0.95554831411680      1.02807781748485      0.96459304013832
  H   0.13381647418106      1.38798771861359      1.58612449571027
  H   1.52666151595743      0.28313568044081      1.51881480657295
  H   1.60891519653371      1.87369131703963      0.74453962257413
