15
Coordinates from ORCA-job run
  C   -0.57038126325154     -0.74676798174804     -0.42054917546665
  C   0.78992614256736     -0.02131404281882     -0.29686493710527
  Br  -0.34360669384323     -2.60495014327332     -0.88750489652999
  H   1.22828945565788     -0.05486757649633     -1.30125683349421
  N   -1.28105674637521     -0.63787684982128      0.94257364777830
  O   -2.12420926652540      0.24679523965645      1.02844697559732
  O   -0.88276344620481     -1.37856531439130      1.82577249736828
  C   -1.39330241283090     -0.10117352054898     -1.43151499516562
  N   -1.99571028130827      0.42824221766364     -2.29174880680683
  C   1.69438590167619     -0.73367018580828      0.60634275411604
  N   2.46723431372034     -1.23754974468482      1.33304968968982
  C   0.62422284206127      1.43894245661669      0.14323128906336
  H   -0.07388452536549      1.96355250987747     -0.51106673883765
  H   0.26615938510032      1.50387654936608      1.17140402615810
  H   1.59369659492148      1.93632638641082      0.08868550363501
