15
Coordinates from ORCA-job run
  C   -0.59099291982234     -0.72039006183662      0.04776229726415
  C   0.60198176895498      0.18844729915261     -0.33538277690285
  Br  -0.28530183760206     -1.70011627879038      1.67293805875650
  H   0.33219518866070      0.62008814510235     -1.30693278891407
  N   -1.79690133353239      0.24396243432188      0.19761402348847
  O   -2.25960199297033      0.44781009100337      1.30463543834397
  O   -2.12420518116798      0.76637080687950     -0.86071151244868
  C   -0.90933697066289     -1.65035746871014     -1.02483894663490
  N   -1.14032799343029     -2.39944289918203     -1.90175487544938
  C   1.79334392189621     -0.63743649378285     -0.52314766609211
  N   2.77120512712554     -1.27157611966937     -0.66855952933320
  C   0.85022652551269      1.31464409946317      0.67005593661655
  H   -0.00968427788501      1.98472555708047      0.71909173021215
  H   1.05356712698563      0.91675761331701      1.66428159239545
  H   1.71383284793756      1.89651327565102      0.34494901869794
