15
Coordinates from ORCA-job run
  C   -0.59473386082728     -0.74568152139211     -0.38790567893445
  C   0.78112600504298     -0.04443467130625     -0.31372443566670
  Br  -0.41404761123265     -2.61903971443951     -0.81336016323017
  H   1.19616796871388     -0.11290831467489     -1.32630145202235
  N   -1.27096846567373     -0.59041027667609      0.98862395411228
  O   -0.86456955295728     -1.31647532958803      1.88018133028914
  O   -2.09463388309671      0.31259985071067      1.07241265570126
  C   -1.42976318847194     -0.10971153386671     -1.39486393138382
  N   -2.04444950542893      0.41015992380735     -2.25221826763914
  C   1.69428085965522     -0.75026546172076      0.58602285431221
  N   2.47916023415855     -1.24744228956191      1.30454035886571
  C   0.65452130783958      1.42986870812037      0.09084790720632
  H   0.31741774515787      1.52931412307247      1.12325455675592
  H   1.63311900781620      1.90452648627266      0.00574214606885
  H   -0.04462706069576      1.95190002124275     -0.56425183443505
