15
Coordinates from ORCA-job run
  C   -0.55591294029334     -0.74295403982733     -0.44635986190427
  C   0.79247177576288     -0.00258458573954     -0.28738111683487
  Br  -0.29727632452617     -2.58421275396339     -0.96166974936086
  H   1.24196748833073     -0.00299046863348     -1.28746316168899
  N   -1.28310821033013     -0.68264219033519      0.91100294829727
  O   -0.88305035677637     -1.44130981986037      1.77792179055872
  O   -2.14003871027113      0.18691895651615      1.01201304441888
  C   -1.37649230406413     -0.08076416377985     -1.44844365817676
  N   -1.97634909685901      0.46451279956844     -2.30049899201253
  C   1.69834006973874     -0.72655947292288      0.60532573274040
  N   2.47411719348712     -1.23778359940570      1.32384890079416
  C   0.60262513948199      1.44308366060623      0.18895804022773
  H   1.56802848829834      1.95055802790613      0.16968038858119
  H   0.22189109457657      1.47735942338397      1.21015576738720
  H   -0.08621330655609      1.97836822648681     -0.46609007302726
