15
Coordinates from ORCA-job run
  C   -0.56350291460289     -0.74139025918332     -0.43785994531311
  C   0.79291560971661     -0.01422360893943     -0.28952277929765
  Br  -0.32772759959171     -2.59161454314158     -0.93086002335847
  H   1.24124621611139     -0.02953968254903     -1.28994160199660
  N   -1.28806556364768     -0.65597408595234      0.91979353779319
  O   -0.88694042639213     -1.40117377007727      1.79799227977116
  O   -2.14524495802460      0.21479149089283      1.00829464557385
  C   -1.37943927557305     -0.08230123615585     -1.44587729496308
  N   -1.98185888115576      0.46177370846148     -2.29677604624769
  C   1.69339444799783     -0.73853165006924      0.60838625193170
  N   2.46709875574554     -1.25272526537224      1.32702477846017
  C   0.61807224192629      1.43787550362644      0.17342510579032
  H   1.58666022103709      1.93871695267105      0.13775994275695
  H   -0.07479771193178      1.97094304584384     -0.47960168359187
  H   0.24918983838486      1.48437339994467      1.19876283269113
