15
Coordinates from ORCA-job run
  C   -0.55723620340901     -0.71824584413593     -0.20801589505662
  C   0.46753883071000      0.43688268489519     -0.31701754040331
  Br  0.22972215923615     -2.34979451727332      0.43485876294626
  H   -0.08845637160928      1.27174348220705     -0.76133806708750
  N   -1.64176253639394     -0.20010755077945      0.77182945260026
  O   -2.28448564951743      0.73910818857402      0.31958624578956
  O   -1.72241522839589     -0.69213724670580      1.88214085921858
  C   -1.20771625544424     -0.96665263390431     -1.48514904715902
  N   -1.70981356155436     -1.15765912717558     -2.53140980201772
  C   1.52553972718698      0.05138750515911     -1.24960517730891
  N   2.39539613759593     -0.23638816646536     -1.98441134587998
  C   1.03893932844414      0.86714395521710      1.03547649443297
  H   0.24902316993296      1.24386002844251      1.68700304318358
  H   1.75871946800526      1.67125278661610      0.87715180154314
  H   1.54700698521273      0.03860645532869      1.52890021519869
