15
Coordinates from ORCA-job run
  C   -0.59537811724835     -0.71115409257794     -0.35793798502971
  C   0.78702917766791     -0.03573338369031     -0.29927717923453
  Br  -0.44869763062720     -2.60295430437424     -0.75714644048534
  H   1.16933345244863     -0.09799966045644     -1.32594562719137
  N   -1.33356322769432     -0.60284372626583      0.98803309894102
  O   -2.55306184400182     -0.53653263492916      0.93339464462564
  O   -0.63145643835201     -0.62964749439420      1.98749988793059
  C   -1.41592614032133     -0.07364886220023     -1.37760654336645
  N   -2.00786390811191      0.47651928231522     -2.23204036107338
  C   1.73593461301394     -0.75960735037933      0.54783782906555
  N   2.56730417250554     -1.28654832684522      1.18804937198256
  C   0.68892767899861      1.44109466207420      0.10532265139045
  H   0.37774075251783      1.54147311899032      1.14472887826734
  H   1.67065363528327      1.90453982680418     -0.00300292450179
  H   -0.01197617607880      1.97204294592899     -0.54190930132058
