15
Coordinates from ORCA-job run
  C   -0.57835868128959     -0.70667828089049     -0.39506373907117
  C   0.79175636519210     -0.01199310259356     -0.29010910203907
  Br  -0.39619999697119     -2.58048977104130     -0.85866644081142
  H   1.18821867360735     -0.02467658010154     -1.31316935444172
  N   -1.33587179500863     -0.65695517893468      0.94365960468662
  O   -0.64833057768088     -0.74294477689923      1.94990935344935
  O   -2.55362787951425     -0.57185738023381      0.87623536668365
  C   -1.39382282103558     -0.04599382727784     -1.40387578663674
  N   -1.98246637251179      0.52297499319312     -2.24824130392424
  C   1.74217484199076     -0.75344613094537      0.53963712150792
  N   2.57429937751664     -1.28862916334707      1.17199833304846
  C   0.66138758510757      1.44443828751815      0.17465487948668
  H   -0.03771154322218      1.99067800641268     -0.46144229319000
  H   0.33109656464218      1.49513434145357      1.21176722435565
  H   1.63645625917749      1.92843856368738      0.10370613689603
