15
Coordinates from ORCA-job run
  C   -0.58664518472136     -0.74478195160006     -0.40209228807567
  C   0.78292087362524     -0.03236601483530     -0.31208187985635
  Br  -0.38772130973713     -2.60868890491677     -0.85805314050095
  H   1.20090254884548     -0.07991683878484     -1.32459298407528
  N   -1.26864843686728     -0.61746721253135      0.97422818662485
  O   -0.85960712027642     -1.35457615570454      1.85547601209921
  O   -2.10098549520295      0.27639932701145      1.06966219331635
  C   -1.42330203701344     -0.09875681152794     -1.40151165716198
  N   -2.03869760095919      0.43066812237482     -2.25247709193723
  C   1.69908704758264     -0.74554343852593      0.57879049032033
  N   2.48456818883179     -1.24880735922810      1.29237386389401
  C   0.64183618978403      1.43354352414748      0.11740108266377
  H   1.61611451891241      1.91861360054196      0.04210985202774
  H   -0.06103630190958      1.96021041611392     -0.52997976794992
  H   0.30221411910577      1.51246969746518      1.15074712861113
