15
Coordinates from ORCA-job run
  C   -0.69288369663288     -0.50543646599681     -0.26648089891472
  C   0.74854307684228     -0.03227845515466     -0.01044918363874
  Br  -0.87495991431173     -1.23450528025313     -2.05545031834707
  H   1.39521397093518     -0.89314019037164     -0.20450184713352
  N   -1.01191417167284     -1.66339655109384      0.70256964793364
  O   -0.12719485966204     -2.49610246538177      0.82736303003249
  O   -2.11224677707186     -1.65283531967538      1.23295329094408
  C   -1.65964587257164      0.56163685861082     -0.07488113896142
  N   -2.38567516653904      1.47877662640665      0.05055663866053
  C   0.85607858457828      0.31041268391558      1.41110620540540
  N   0.93470850207052      0.60955004693164      2.54439463175162
  C   1.15061409702286      1.15942717445039     -0.88220069518656
  H   2.17753768951364      1.44266149381682     -0.64663599156575
  H   1.09741830686389      0.89641860157370     -1.93852359917098
  H   0.50440623063539      2.01781124222161     -0.69081977180898
