15
Coordinates from ORCA-job run
  C   -0.56731147420647     -0.71329426759133     -0.40669324756726
  C   0.79306852732555     -0.00086029868412     -0.28640970204435
  Br  -0.36079626621388     -2.58400262369090     -0.86925148102529
  H   1.19512854211092      0.00786844978710     -1.30722969155187
  N   -1.33058797379997     -0.66691938055625      0.92813972822515
  O   -0.65299259373648     -0.82351120129787      1.93226441368696
  O   -2.54095460357362     -0.50515744262371      0.86103384588384
  C   -1.37902138796231     -0.06152176731335     -1.42433103428136
  N   -1.96062672064299      0.49606013587018     -2.28100869953482
  C   1.75105511249889     -0.73783778398211      0.53850278332436
  N   2.59037587300207     -1.26644121732557      1.16692599261566
  C   0.63442102374112      1.44548057316214      0.20012021289705
  H   1.60150154229066      1.94735904147801      0.14543374887863
  H   0.29543731883749      1.47375261768446      1.23568176196654
  H   -0.06969691967098      1.99002516508333     -0.43217863147324
