15
Coordinates from ORCA-job run
  C   -0.57918390075978     -0.71036704938456      0.17639516502647
  C   0.60420017973042      0.13332725540779     -0.35683980582140
  Br  -0.28375433242850     -1.35764415590590      1.96174207586027
  H   0.34304294765586      0.36696975453210     -1.39613720665641
  N   -1.80369683687227      0.24070159921185      0.12434504125497
  O   -2.12249569800968      0.54583295122572     -1.01814656722309
  O   -2.28747168329639      0.64241387419861      1.16634226539946
  C   -0.86296584405638     -1.83279372828608     -0.70467661525942
  N   -1.06493249272344     -2.73833108125729     -1.42757920291416
  C   1.81255298922752     -0.68913282372610     -0.36856055259701
  N   2.80306285224521     -1.32025529517665     -0.37991952194699
  C   0.81582179757472      1.43475025090428      0.41915475476859
  H   1.00895718598616      1.23742920367621      1.47362544850419
  H   -0.05600200343030      2.08473974794739      0.32822980609540
  H   1.67486483915685      1.96135949663261      0.00102491550912
