15
Coordinates from ORCA-job run
  C   -0.58978779275940     -0.71482979792330     -0.37031238531573
  C   0.78750100820729     -0.02855237231675     -0.30086820141735
  Br  -0.43164092394532     -2.60366217546998     -0.77492937918689
  H   1.17037677303918     -0.06702570450349     -1.32836806705933
  N   -1.32601123725896     -0.60986077862718      0.97666326635262
  O   -2.53606129858159     -0.44013763153501      0.92651657933435
  O   -0.63111842061897     -0.73637438871471      1.97333543403560
  C   -1.40816921763001     -0.07750804115306     -1.39180620041537
  N   -1.99424833335915      0.47230092945907     -2.25048196743439
  C   1.74474909825676     -0.75569696331971      0.53347041569516
  N   2.58460028102673     -1.28002187554741      1.16472182250730
  C   0.66894555520128      1.43814450190011      0.13290584874356
  H   1.64557153741494      1.91605561476144      0.04405309262683
  H   -0.03314807769627      1.97427155120608     -0.50863000190820
  H   0.34744104870351      1.51289713178392      1.17172974344185
