15
Coordinates from ORCA-job run
  C   -0.62202170975645     -0.57086310552356     -0.30573857557270
  C   0.74703203146404      0.03722192220714      0.04503625434457
  Br  -0.60147794519409     -1.34485857956959     -2.08446432883587
  H   1.48178973900423     -0.76386008889319     -0.07928938471043
  N   -0.90684426905180     -1.73691418179158      0.66537324656094
  O   0.03811993683194     -2.48198151664110      0.87433644505383
  O   -2.03974573647449     -1.81840985044309      1.11454643064724
  C   -1.69358373882741      0.40496371941871     -0.21077241928687
  N   -2.51062642396181      1.24929789922080     -0.15398291392447
  C   0.71426378434705      0.41314081354180      1.46201800746623
  N   0.67759588880984      0.73949374656882      2.59002111881581
  C   1.10524595426167      1.24518383821405     -0.82322612959687
  H   1.15287145204218      0.96003317934911     -1.87422213877100
  H   2.08358601731508      1.62283777230426     -0.52182410425956
  H   0.37379501919003      2.04571443203741     -0.69881150793085
