15
Coordinates from ORCA-job run
  C   -0.55675861646860     -0.73877425675622     -0.12382816739396
  C   0.55106595544888      0.32528028245596     -0.31691935368833
  Br  -0.02983106981082     -2.14932910318665      1.07096332679712
  H   0.15511453021275      1.01672119316001     -1.07069673371290
  N   -1.76995149723142      0.04481863101935      0.44090167256542
  O   -2.23790236153591      0.84303467073939     -0.36158960992422
  O   -2.10650306089661     -0.13497521579885      1.59658412552757
  C   -0.96263446534272     -1.31176828564146     -1.39799504854089
  N   -1.26123213892343     -1.77000454031755     -2.43931658531821
  C   1.74085585576007     -0.31660093552651     -0.87283965760486
  N   2.71823017241624     -0.80547964295408     -1.30320036972680
  C   0.87502883234351      1.09863500115705      0.96271214707149
  H   0.00380880273551      1.65852434121939      1.30670460516373
  H   1.67384978524310      1.81153619770574      0.75369303390317
  H   1.20685927604946      0.42738166272446      1.75482661488169
