15
Coordinates from ORCA-job run
  C   -0.55092493942168     -0.74741135241875     -0.44542569846809
  C   0.79438007370348     -0.00222679310912     -0.28346787009658
  Br  -0.28421690648472     -2.59082491417531     -0.94803941075066
  H   1.25000448057067     -0.00822845886915     -1.28070102929331
  N   -1.28625015612302     -0.68000045761533      0.90727266371670
  O   -2.14627974939678      0.18784099727177      0.99744136467656
  O   -0.88931328768225     -1.43203468056522      1.78146745309160
  C   -1.36773040171117     -0.09379767381196     -1.45626998522331
  N   -1.96543544992019      0.44505590086072     -2.31389414531223
  C   1.69655212650964     -0.71755482335560      0.61985931238436
  N   2.46902757449409     -1.22145670482069      1.34704888190160
  C   0.59745803795427      1.44577632605051      0.18319753640312
  H   0.21743470897606      1.48435622189921      1.20471527676250
  H   -0.09501289640102      1.97336154912748     -0.47457151021796
  H   1.56030678493264      1.95814486353143      0.15936716042571
