13

C	-0.56524	-0.006278	-1.424279
C	0.002709	0.017028	-0.001957
Cl	-0.017668	-1.538278	-2.18627
H	1.095675	0.018906	-0.006563
H	-0.308771	-0.900621	0.508876
N	-2.017462	0.032596	-1.549615
H	-2.338642	0.908905	-1.14655
H	-2.392844	-0.721048	-0.981826
C	-0.036035	1.115981	-2.214724
N	0.303409	2.042325	-2.851368
C	-0.526863	1.168097	0.707509
N	-0.96818	2.111177	1.255154
H	2.69822	-0.080935	-0.001963
