13

C	-0.523916	0.050033	-1.424119
C	0.003908	0.004667	0.002118
Cl	0.168693	-1.430694	-2.277734
H	1.095684	0.015532	0.00235
H	-0.298424	-0.947684	0.452005
N	-1.951058	0.069666	-1.476526
H	-2.279973	-0.005219	-2.43276
H	-2.320411	-0.701537	-0.933579
C	-0.023873	1.211697	-2.173008
N	0.28688	2.144401	-2.81527
C	-0.518287	1.106806	0.791879
N	-0.900147	1.993875	1.462349
H	2.696647	-0.025582	-0.009112
