17
Coordinates from ORCA-job run
  C   0.59659906543458      0.41300033621145     -0.40547011298727
  C   -0.85975592314868     -0.05709422616489     -0.42237357059550
  F   0.75715322898493      1.36378410999177     -1.38340494010165
  H   -0.94469574879977     -0.63276476113203     -1.35251252680508
  N   0.90957623957224      1.15483582831480      0.89627197199732
  O   2.07384036957611      1.13270823678380      1.28422720202597
  O   -0.01483431940766      1.76715271880096      1.42282457486364
  C   1.60227356401076     -0.68588836483458     -0.62182480626246
  H   2.59554638593955     -0.24981204464984     -0.70491715628886
  H   1.60618276648071     -1.39577425873476      0.20448357379801
  H   1.35958600646590     -1.20594125649046     -1.54993780845142
  C   -1.80249955201621      1.05725320757552     -0.55274615286972
  N   -2.62261135487339      1.88643078292853     -0.68356775023215
  C   -1.23512107448995     -0.96570860074461      0.75311312294871
  H   -1.19778525868271     -0.41898390050876      1.69456612973335
  H   -0.57012829963561     -1.82891160615136      0.80727912694493
  H   -2.25232609541080     -1.33428620119553      0.61498912228218
