17
Coordinates from ORCA-job run
  C   0.50238345933491      0.43793786314263     -0.16296956122208
  C   -0.64762506280193     -0.56762372096277     -0.03372885492942
  F   0.00009963712692      1.64805999988067     -0.52823930686330
  H   -0.21320837321108     -1.51035065322099      0.31291794748618
  N   1.07896357312307      0.59850328497676      1.23927743068839
  O   1.53257621252445     -0.43123515193690      1.73095398404845
  O   1.04292959004262      1.70528379589763      1.75631801845560
  C   1.61846046465599      0.04484572962095     -1.09602601609236
  H   2.05285431480396     -0.90766932315444     -0.79495496527217
  H   1.22423621796669     -0.03265532198592     -2.11004990721879
  H   2.38941759278288      0.81762069383022     -1.07723443705496
  C   -1.21947890535641     -0.78795263559724     -1.36274660976060
  N   -1.68517721924125     -0.96197584053158     -2.42634722714003
  C   -1.71965277137711     -0.09611881690372      0.95439365662597
  H   -1.30571043089665     -0.03070065921470      1.96212170121566
  H   -2.10547912568712      0.88102438717083      0.66425912250143
  H   -2.54558917378994     -0.80799363101144      0.97305502453204
