17
Coordinates from ORCA-job run
  C   0.66117881144864      0.36558308384761     -0.39853230827670
  C   -0.82925700479260      0.01221047255704     -0.51176018034604
  F   0.97362288745745      1.15092335593905     -1.46778719293177
  H   -0.92312618142464     -0.41613579441648     -1.51740327002479
  N   0.87589961178437      1.22134351854659      0.84535184977338
  O   0.79824358933970      0.61796760430379      1.91323828461668
  O   1.08912858938643      2.41450588453131      0.69118328222089
  C   1.60151773176767     -0.81084076945716     -0.35101162831935
  H   1.42441235943757     -1.44566030351474     -1.22142107300610
  H   1.47006529190651     -1.38721255421586      0.56129876786729
  H   2.62697070479315     -0.43914278717141     -0.39389694814773
  C   -1.62715200575566      1.24204027812240     -0.49235127745542
  N   -2.29232337807190      2.20838084277385     -0.44783540346844
  C   -1.35835081031885     -0.99457594567159      0.51353289015305
  H   -1.27448204594331     -0.60555662905507      1.52666673658296
  H   -2.40884605029714     -1.19965681695533      0.30177711817136
  H   -0.80850210071736     -1.93417344016399      0.44795035259071
