17
Coordinates from ORCA-job run
  C   0.56860819073119      0.28933770805629     -0.25209035749687
  C   -0.72671078522590     -0.45453658121001      0.09412339158942
  F   0.27109878497062      1.37593155164815     -1.01372924326093
  H   -0.45409536937532     -1.28821556032617      0.74848588966090
  N   1.12063933351363      0.80869140430610      1.07072154727962
  O   1.24030771130724      2.01664881812199      1.21312047829955
  O   1.39297086312346     -0.06184955942433      1.89296256014912
  C   1.63799122603808     -0.53098077068331     -0.92625566754472
  H   1.26768565192487     -0.87373376067774     -1.89327701261121
  H   2.51898765769207      0.09312413543726     -1.08836737998347
  H   1.90921362812670     -1.38759347261720     -0.31026218714276
  C   -1.28554236721933     -1.00433692311484     -1.14168807521772
  N   -1.73770588249235     -1.43994883160746     -2.13373129422352
  C   -1.74096570374253      0.45034774464854      0.80168231988292
  H   -1.35321589679627      0.77085735815348      1.77023790011421
  H   -1.95742413903820      1.33027976096797      0.19605492343836
  H   -2.66984290353795     -0.09502302167872      0.97201220706712
