17
Coordinates from ORCA-job run
  C   0.59089638210280      0.31810831791557     -0.39650128428222
  C   -0.91184488198602      0.17337038855297     -0.13463456924250
  F   0.78055608306718      0.20490352097780     -1.74977695223314
  H   -1.39110481847524      0.95386964886389     -0.73560799083104
  N   0.95058061499391      1.76765385603502     -0.06257394727294
  O   0.43186382557191      2.61726013865959     -0.77835093753140
  O   1.69419291850801      1.96899613576961      0.89216391635106
  C   1.49467217175025     -0.63844853275729      0.32602228995456
  H   1.28860822707899     -1.64949727140862     -0.02686701056277
  H   2.53384068110138     -0.39502801101889      0.10548238180595
  H   1.34436819926777     -0.58613307852974      1.40330251280280
  C   -1.19033253980895      0.44183659853832      1.27617220681354
  N   -1.41364006196805      0.62429695250354      2.41461298721038
  C   -1.44503671838743     -1.19959465946045     -0.55360996740917
  H   -2.53330564792788     -1.20649213084135     -0.47943342642457
  H   -1.16629107250514     -1.40310758250845     -1.58787436866253
  H   -1.05702336238348     -1.99099429129153      0.08847415951398
