17
Coordinates from ORCA-job run
  C   0.59142715366429      0.43583762227511     -0.43550551183503
  C   -0.87252265052775     -0.02923658640853     -0.43377380919747
  F   0.74178398592354      1.29538792728698     -1.48266982005059
  H   -1.02799708536385     -0.41429186775413     -1.44927082871668
  N   0.85777084220947      1.24400352279387      0.83009191904518
  O   0.96638286481793      2.45639836991399      0.72414693392982
  O   0.92426630213581      0.58537535153368      1.86549816510585
  C   1.61773620921153     -0.66243508453596     -0.53934010148151
  H   1.40528983423331     -1.26968269140892     -1.42128548114482
  H   1.62033913748031     -1.28811613257381      0.34963550519137
  H   2.60282521892144     -0.20775006901659     -0.65871436688558
  C   -1.75443498456195      1.13088640390307     -0.27375151915992
  N   -2.48181366230990      2.03836450709348     -0.11251549864957
  C   -1.22586868311171     -1.12329505430564      0.57754883023437
  H   -1.08294648863853     -0.77600640563795      1.59927333818053
  H   -0.61081430193172     -2.00929271546638      0.41502701257403
  H   -2.27142369215217     -1.40614709769232      0.44560523285998
