17
Coordinates from ORCA-job run
  C   0.60812307207733      0.29828976683280     -0.38775575607536
  C   -0.90454038027071      0.12506146007395     -0.21325326818561
  F   0.89514822653602      0.05904794456774     -1.70687327959039
  H   -1.36254308380030      0.82130551629832     -0.92428912440906
  N   0.89867919158988      1.78601718392860     -0.17827752491493
  O   0.40678211777919      2.54093621949521     -1.00978980115610
  O   1.56671248694418      2.10773321173668      0.79910110046954
  C   1.48706015230492     -0.54859833471292      0.48634208086670
  H   1.25862541739336     -0.39784959380482      1.54033841449635
  H   2.53143304081841     -0.28896346777493      0.31423236291496
  H   1.33757446193629     -1.59598205198409      0.22217637539090
  C   -1.29060938535917      0.52783772554429      1.13885222673145
  N   -1.59926661367880      0.81759043589146      2.23420856474751
  C   -1.36583566901927     -1.30234772789567     -0.51956092536292
  H   -1.00194895862811     -2.00816449100853      0.22780997799315
  H   -1.00836392229661     -1.60180334661386     -1.50519967058954
  H   -2.45603015432661     -1.34111045057423     -0.51906175332665
