17
Coordinates from ORCA-job run
  C   0.56238258861590      0.37584541135637     -0.11473737612740
  C   -0.72565297362758     -0.45512057192847     -0.08888496953321
  F   0.24812964713189      1.68406418677677     -0.31474942454140
  H   -0.43794497689988     -1.48676733991577      0.13639774524363
  N   1.15893282234743      0.26807811430161      1.28387133512061
  O   1.45636630493531     -0.87172989001545      1.63063772552084
  O   1.28568692244669      1.29153417894415      1.93966725651995
  C   1.60463773251839     -0.05692276203308     -1.11344626761561
  H   2.48827173727368      0.57531000147265     -1.00671370884515
  H   1.88312270070161     -1.09754050909140     -0.95213741720965
  H   1.20464020259964      0.06644022583172     -2.12050173104223
  C   -1.32004633048717     -0.43042453054702     -1.42629822599806
  N   -1.80098809721582     -0.41288147496066     -2.49705154402740
  C   -1.71664229181844      0.04901841250105      0.96523139875307
  H   -1.30018697544570     -0.07220456305791      1.96683801594397
  H   -1.94805924485939      1.10127603624606      0.80124012478902
  H   -2.64164976821655     -0.52597492588062      0.91163706304902
