17
Coordinates from ORCA-job run
  C   0.56102387783319      0.33274318797254     -0.21391360958698
  C   -0.69547539466743     -0.50702505194904      0.04419004031298
  F   0.23220262377634      1.40731273479825     -0.97977149114484
  H   -0.40285800287880     -1.33000622460242      0.70332031393229
  N   0.99388514689413      0.86890725443293      1.14597881802653
  O   1.27951735576773      0.00699159448538      1.97281265205011
  O   1.01494102164163      2.07983547397234      1.31039408994306
  C   1.72507418025873     -0.39860809602232     -0.83147972257357
  H   2.02114579137337     -1.24255584042711     -0.20950662755840
  H   2.56636836467472      0.28958879945417     -0.93382177529657
  H   1.43822163857203     -0.75257593092852     -1.82252309905699
  C   -1.14204509791182     -1.07259872881462     -1.22954331897848
  N   -1.51016947551058     -1.51784283237070     -2.25150785970334
  C   -1.81247034184744      0.31156697133910      0.70082869206408
  H   -2.70779327960329     -0.30166327449127      0.80880683343001
  H   -1.50668273063034      0.64382972078002      1.69442094887902
  H   -2.05588567774216      1.18310024237126      0.09331511526110
