17
Coordinates from ORCA-job run
  C   0.57608884025894      0.31769068724126     -0.41829114595471
  C   -0.91827466569154      0.13684267245217     -0.13139818206139
  F   0.75436776273810      0.14697002908122     -1.76703546011792
  H   -1.42845092379615      0.87158018276148     -0.76376864867550
  N   0.89072691127883      1.79229372820289     -0.15695644806819
  O   0.33700937317062      2.58975894560345     -0.90587667023931
  O   1.63754699309613      2.06243975210393      0.77790816090631
  C   1.51898178505831     -0.57357507747996      0.33682095748284
  H   1.34233850480710     -1.60627033594490      0.03447691527123
  H   2.54702613306048     -0.30751605076864      0.09172860329966
  H   1.37909933200439     -0.47495724967716      1.41216843331393
  C   -1.19146352077009      0.46446506169037      1.26774957344443
  N   -1.40853987349884      0.69435800013684      2.39876019207512
  C   -1.41078399500436     -1.27107656972343     -0.47781611620616
  H   -2.49728410831571     -1.30954562096337     -0.38749323035215
  H   -0.98863253342429     -2.01807488554222      0.19541157649565
  H   -1.13875601497191     -1.51438326917393     -1.50538851061383
