17
Coordinates from ORCA-job run
  C   0.57443152847938      0.44961832285974     -0.44379338182461
  C   -0.87451487321542     -0.05935162356014     -0.42510013841648
  F   0.68904818952962      1.30563263298878     -1.49833452634873
  H   -1.02672075641408     -0.45925388331103     -1.43531600089530
  N   0.82795336089095      1.27418849366832      0.81369173001433
  O   0.92550139632253      0.62469294658258      1.85250615654239
  O   0.89764646578023      2.48865354317349      0.69912617194670
  C   1.63256088672874     -0.61791087728129     -0.55005049494049
  H   1.43066869918170     -1.23670237044973     -1.42656230342808
  H   1.66198318990986     -1.23780618204777      0.34248617965740
  H   2.60223064753048     -0.13420877448071     -0.68115135791951
  C   -1.79011257507273      1.07524339593452     -0.27020931971360
  N   -2.54498588517937      1.96106632162233     -0.11552390541817
  C   -1.18689371815167     -1.15313506531301      0.59987954949546
  H   -2.22470306063353     -1.46779241137650      0.47952283055236
  H   -0.54705193488362     -2.02187197871662      0.44081674055241
  H   -1.04604156080307     -0.79206249029295      1.61701207014391
