17
Coordinates from ORCA-job run
  C   0.51535498793708      0.37961769844347     -0.44568833169362
  C   -0.91988868693680      0.17710851169265      0.05085971747050
  F   0.46479143405330      0.46104065720435     -1.81328950666781
  H   -1.48972190668020      1.02514192419414     -0.34442170584940
  N   0.94196495290925      1.77307828812752      0.02215379471337
  O   1.84186586118861      1.84859308584724      0.85248538113632
  O   0.31637759823517      2.70723753760764     -0.46702395410208
  C   1.52158433691577     -0.65558232766728     -0.03367127893423
  H   2.51010039175588     -0.36513128260664     -0.38813428629078
  H   1.25075303476632     -1.60778666320474     -0.49046847231180
  H   1.55670152471761     -0.76281694446887      1.04928545260595
  C   -0.94729487104043      0.24564731988000      1.51180814443532
  N   -0.96764089750289      0.26645031892042      2.68577002471902
  C   -1.52931059739714     -1.13396598806572     -0.45367263828759
  H   -1.04421340287315     -1.99911740899575     -0.00041429853267
  H   -1.43353912159439     -1.19191088091668     -1.53830573438931
  H   -2.58888463845400     -1.16660384599178     -0.19627230802119
