14
Coordinates from ORCA-job run
  C   0.81163010601530     -0.52882018234419     -0.28705628921926
  C   -0.40887201329324      0.36638697220494     -0.05789777958161
  Br  0.78268058806562     -2.14073286932422      0.74416551694591
  H   -0.23718398317077      1.25381797074064     -0.67835097620243
  H   0.88288632829969     -0.79698725978360     -1.34099820204795
  N   2.05569619010193      0.30080281191426     -0.00898706696168
  O   2.24528112512380      1.16921688482732     -0.85748382113162
  O   2.71996048413232      0.09596105638228      0.99375922750586
  C   -0.47096458080069      0.80417041068846      1.33793698667809
  N   -0.55086089344423      1.16147758464037      2.45362691419719
  C   -1.71496445658601     -0.30254708420069     -0.49150066238928
  H   -1.64031544066736     -0.62856275407500     -1.53150657073631
  H   -2.53667713983131      0.41058721278800     -0.41083341514810
  H   -1.94029631394503     -1.16477075445855      0.13512613809120
