14
Coordinates from ORCA-job run
  C   0.93941188887425      0.07863096847826     -0.68436360699405
  C   -0.54062056540635      0.39718335696910     -0.42187437257619
  Br  1.14790197423366     -1.30101670916981     -2.00702963005638
  H   -0.96524867284580      0.64305291037841     -1.40202131062856
  H   1.47437726730674      0.95798429422544     -1.03725479756815
  N   1.61567505070564     -0.31016201454275      0.60836317334107
  O   1.47178848204443     -1.45356179509935      1.02090265272887
  O   2.21357458501075      0.60635426428542      1.16745491386460
  C   -0.62170777217894      1.60657321524528      0.40456193000126
  N   -0.70992796871995      2.56799013177025      1.07334211235215
  C   -1.35034347492701     -0.74084577365010      0.20600985208069
  H   -1.01044418369092     -0.95744702761020      1.21802509684740
  H   -2.40035315162025     -0.44754333899645      0.24899741249290
  H   -1.26308345878624     -1.64619248228352     -0.39411342588560
