14
Coordinates from ORCA-job run
  C   0.95543072504569      0.02114918529376     -0.66613096364481
  C   -0.51130478273215      0.41837867373339     -0.43892470388997
  Br  1.11988741930744     -1.38642362680573     -1.96508666648516
  H   -0.90268048685206      0.67351355653004     -1.43046491037207
  H   1.54234088313845      0.86687664635674     -1.01867740042433
  N   1.58458019569760     -0.38285656007975      0.64584891040507
  O   1.37388950709451     -1.51113176615354      1.07099346745959
  O   2.21791358619358      0.50993026199552      1.20451848850340
  C   -0.54663319955587      1.64023197628837      0.37226264095598
  N   -0.59744153385593      2.61202242659899      1.02981736265411
  C   -1.39092069025648     -0.66852210931384      0.18586115985321
  H   -1.33736079523207     -1.58570492281965     -0.40013943562003
  H   -2.42532089596226     -0.32192317760039      0.20244315615658
  H   -1.08337993203044     -0.88754056402391      1.20767889444844
