14

C	-0.036148	0.028347	-0.064424
C	-0.255317	0.313079	-1.568031
Cl	1.801914	0.052104	0.206506
H	0.470795	-0.26935	-2.146141
H	-0.338084	-1.004002	0.112284
N	-0.711579	0.852665	0.850298
H	-1.70637	0.497114	0.832497
H	-0.664276	1.823563	0.562329
C	0.039116	1.733962	-1.841355
N	0.262261	2.868831	-2.044148
N	-1.611271	-0.001902	-2.002055
H	-2.245615	0.001948	-1.168807
H	-1.606017	-0.965701	-2.31523
F	-2.943272	-0.309497	0.295159
