14

C	-0.024095	0.030472	-0.071967
C	-0.285881	-0.087689	-1.591116
Cl	1.812768	0.232645	0.125047
H	0.468026	-0.751904	-2.028334
H	-0.253447	-0.940335	0.367661
N	-0.738052	1.016511	0.627882
H	-0.759532	1.88458	0.104646
H	-1.70821	0.610505	0.732391
C	-0.091967	1.232628	-2.222341
N	0.061245	2.287837	-2.714133
N	-1.624621	-0.584679	-1.88723
H	-2.244802	-0.397932	-1.064404
H	-1.561111	-1.595125	-1.934366
F	-2.906208	-0.36473	0.448053
