16
Coordinates from ORCA-job run
  C   -0.74461919561837     -0.20256035548957     -0.22905504159987
  C   0.55080333150881     -0.23554784128401      0.59526881066036
  Br  -1.48793737192744     -1.99106850452543     -0.42349242168842
  H   0.31034259288751     -0.68196683921392      1.56266313739381
  N   -0.56248590710945      0.37427368415385     -1.49339866961557
  H   -0.17410626298236      1.30866151994339     -1.41166043206226
  H   -1.43004436893123      0.41784658746557     -2.01259970820586
  N   -1.81894712537459      0.54749030953686      0.63724204829382
  O   -1.84510371637128      0.29852013522298      1.83472773365677
  O   -2.55241412349239      1.31847829557273      0.03160903858451
  C   0.94758494189369      1.15767015401600      0.82582800591742
  N   1.25873835038393      2.28408246993285      0.94785136526567
  C   1.67902559303270     -1.00588279314557     -0.09370946970729
  H   1.39333255143996     -2.04921923226608     -0.22382750647191
  H   1.89730883520298     -0.57656490259444     -1.07069233227693
  H   2.57752187545753     -0.96521268732521      0.52424544185574
