16
Coordinates from ORCA-job run
  C   -0.76984378083168     -0.05812037473616     -0.06140806081008
  C   0.76220660065987     -0.13841340679218     -0.17446589471785
  Br  -1.31720412804067     -0.26754052631085      1.85358371656435
  H   0.98548034340978      0.23573788143984     -1.17980880422054
  N   -1.40901615545386     -0.93432208240856     -0.94872182052280
  H   -2.41573863351711     -0.82673244396345     -0.91372447050258
  H   -1.14723836671195     -1.90008908035525     -0.79411598904580
  N   -1.27387607950245      1.33521108653097     -0.45782375272449
  O   -2.48886005415552      1.45996794309782     -0.51350343329537
  O   -0.44141030909721      2.19356851882750     -0.72471829269340
  C   1.13385289798636     -1.55411604647740     -0.13722475695513
  N   1.41908505333483     -2.69269168938833     -0.09676849465054
  C   1.58150586577045      0.64480985805608      0.85561029164457
  H   2.62856977189245      0.63473128999016      0.54640542558478
  H   1.50765784884243      0.18989452167167      1.84164963626990
  H   1.24582912541428      1.67810455081815      0.90503470007497
