16
Coordinates from ORCA-job run
  C   -0.84975468080397     -0.14024134003061     -0.19845300855906
  C   0.48208316412718     -0.25614986993342      0.58864088544417
  Br  -1.64911857484151     -1.90817221958463     -0.34989858836333
  H   0.25509064854233     -0.71255732183526      1.55635985516524
  N   -0.82817464208709      0.45991945540525     -1.47579930799136
  H   -0.52802626310783      1.42628869725560     -1.44208602269256
  H   -0.29637307022464     -0.08129270255711     -2.14207491946384
  N   -1.77477070826852      0.70266451780858      0.70744744636761
  O   -1.98491180877169      0.25466557796046      1.82647178258700
  O   -2.16104862615173      1.77406166958936      0.26042082196258
  C   0.95990171375142      1.10984935218476      0.82081047856439
  N   1.33879890502189      2.21440473132325      0.95145783778668
  C   1.55355119624594     -1.06335698567370     -0.14527006884780
  H   1.80463469069673     -0.60155598694059     -1.10179637668536
  H   1.21410995076319     -2.08481636378166     -0.31435519195935
  H   2.46200810510830     -1.09571121119028      0.45812437668496
