16
Coordinates from ORCA-job run
  C   -0.83515922329264     -0.22873792753617     -0.00574843996757
  C   0.61684807768707     -0.48947462182887      0.41767180421832
  Br  -2.06093077344559     -1.03327789580290      1.35916945230559
  H   0.74318523683581     -1.57430696253532      0.30257165583548
  N   -1.06499815858158     -0.67205537187458     -1.31575567986738
  H   -1.97780685851517     -0.38459309977079     -1.64715415754861
  H   -0.95851371408136     -1.67536453448150     -1.39177432491952
  N   -1.18304652620033      1.25913723712365      0.03054957567848
  O   -2.10235612800440      1.61630805657423     -0.69540276916879
  O   -0.53854004013210      1.96495564180358      0.79394025021057
  C   0.88695279608175     -0.19315303070936      1.82474573397539
  N   1.20470756845053      0.00806157890324      2.93681606954141
  C   1.62777922485330      0.22402846107084     -0.49124503493441
  H   1.59718275387085      1.30096751791581     -0.32981788149263
  H   1.40964904543517      0.00568853941353     -1.53578418932420
  H   2.63304671903869     -0.12818358826540     -0.25378206454214
