16
Coordinates from ORCA-job run
  C   -0.76337480368607     -0.05228091431574     -0.19109914407722
  C   0.51951820302685     -0.25380608863516      0.62185918238940
  Br  -1.67032349898225     -1.85291954564461     -0.35695263018171
  H   0.25171444225634     -0.79642710706805      1.53066057055523
  N   -0.55683980148469      0.61919721619425     -1.39023784043319
  H   -1.42518430550486      0.90844397707400     -1.82270518318420
  H   0.02226995445037      0.10068466167062     -2.03553361231978
  N   -1.78162144388124      0.74908112390430      0.62701093298392
  O   -2.59454960507220      1.40610439709432     -0.00982870690601
  O   -1.72095361828810      0.63579423875054      1.84300834554420
  C   1.02848246090881      1.06456626902349      1.01413356869055
  N   1.47319630632571      2.10704412347366      1.32034205841115
  C   1.59714979700269     -1.01805531363891     -0.15302604038998
  H   1.95868978228520     -0.43469379396537     -1.00172811410684
  H   2.44830915900463     -1.20288266868642      0.50371290195945
  H   1.21351697163882     -1.97785057523094     -0.49961628893495
