16
Coordinates from ORCA-job run
  C   -0.82505224948047     -0.15241746890813      0.08077326637798
  C   0.68385515948537     -0.34668996534176     -0.15599463128909
  Br  -1.33011486196234     -0.49635262457403      1.90769724824461
  H   0.82605500218400     -0.19509600013582     -1.23427534498828
  N   -1.57162608015606     -0.98675884943732     -0.77700841277161
  H   -1.38977989285301     -0.75628655440648     -1.74697385679547
  H   -2.56464693045608     -0.94931749272047     -0.58516280623871
  N   -1.05603097360951      1.36805047359835     -0.22863143238958
  O   -0.96990066902227      1.61862641252130     -1.43000253578743
  O   -1.24088395898559      2.17459323397627      0.66812443664323
  C   1.04256166539596     -1.73066215739907      0.15011535163926
  N   1.39606058387944     -2.82134441399422      0.40280442509462
  C   1.57762243107461      0.63812586024868      0.60066757421141
  H   2.62397040262388      0.39386494096017      0.41234263402397
  H   1.39579454519639      0.58230743547357      1.67435404012537
  H   1.40211582668570      1.66035717013896      0.26217004389970
