16
Coordinates from ORCA-job run
  C   -0.82874278660652     -0.22193181443281     -0.10869987236758
  C   0.56946032301344     -0.51583910183218      0.45205649289518
  Br  -2.19465764328589     -1.09648975530164      1.06756082800932
  H   0.70838665467800     -1.59267643547155      0.28756654692811
  N   -0.91675736950905     -0.58821713474751     -1.45906233481725
  H   -0.80871016034796     -1.58677709529362     -1.58085362762887
  H   -1.78691495014185     -0.27207081552339     -1.86970453588412
  N   -1.17728416035570      1.26344134220851     -0.02278053701606
  O   -0.62428992323344      1.91584023416711      0.85166138295920
  O   -2.00735179399486      1.67115944775074     -0.82548193404499
  C   0.68725793115417     -0.30555471842638      1.89503870951743
  N   0.87624210391764     -0.18984946349660      3.04786835738109
  C   1.67064698089099      0.24438426997136     -0.30057070697279
  H   1.62052790464945      1.31065508711558     -0.08292982439556
  H   1.56676124283474      0.08609935250596     -1.37312428514557
  H   2.64542564633684     -0.12417339919358      0.02345534058247
