19

C	0.0	0.0	0.0
C	-0.268362	0.016826	-1.519021
Cl	1.801027	0.0	0.0
H	0.208397	-0.859182	-1.950943
C	-0.52997	1.166695	0.805915
H	-1.624604	1.087498	0.693943
H	-0.243336	1.013441	1.850818
H	-0.137359	2.118938	0.459575
C	-0.524859	-1.312514	0.549047
H	-0.183266	-2.165569	-0.043609
H	-0.176584	-1.4315	1.578325
H	-1.622091	-1.190803	0.509983
N	0.361673	1.160849	-2.272872
O	0.818874	0.859123	-3.377299
O	0.352337	2.288057	-1.797524
N	-1.688638	-0.040443	-2.058652
O	-2.211362	1.013541	-2.381543
O	-2.088318	-1.170425	-2.297061
F	-2.898661	0.0	0.0
