19

C	0.0	0.0	0.0
C	-0.26928	-0.158157	-1.509546
Cl	1.806357	0.0	0.0
H	0.243491	0.65128	-2.02274
C	-0.514677	1.361334	0.42808
H	-0.180695	2.15259	-0.24825
H	-0.148882	1.576963	1.436121
H	-1.612697	1.242691	0.414397
C	-0.524858	-1.083348	0.915835
H	-0.11998	-2.062465	0.675481
H	-1.619597	-1.025888	0.788245
H	-0.249051	-0.818744	1.940932
N	-1.686374	-0.081373	-2.057067
O	-2.242543	-1.127127	-2.349992
O	-2.046584	1.05286	-2.337075
N	0.318974	-1.394569	-2.132878
O	0.184046	-2.477036	-1.578241
O	0.881029	-1.214459	-3.215391
F	-2.889234	0.0	0.0
