19

C	0.0	0.0	0.0
C	-0.661137	-0.007193	-1.369334
Cl	1.789576	0.0	0.0
H	-1.765963	0.090896	-1.108515
C	-0.473896	1.243558	0.748823
H	-0.10205	1.186071	1.774513
H	-1.567467	1.195251	0.727008
H	-0.108525	2.163329	0.294036
C	-0.498585	-1.22869	0.76271
H	-1.591987	-1.172632	0.708263
H	-0.167579	-1.15211	1.801552
H	-0.108389	-2.151533	0.338677
N	-0.493941	-1.247377	-2.187771
O	0.404469	-2.045677	-1.933763
O	-1.304369	-1.362815	-3.107609
N	-0.182363	1.094218	-2.25306
O	-0.650054	2.211504	-2.04599
O	0.659669	0.827841	-3.109895
F	-2.968765	0.0	0.0
