19

C	0.0	0.0	0.0
C	-0.671826	-0.002927	-1.363505
Cl	1.789758	0.0	0.0
H	-1.77915	0.070699	-1.09576
C	-0.469877	1.245915	0.747114
H	-0.096623	1.194224	1.773091
H	-1.563623	1.201302	0.724973
H	-0.103121	2.164173	0.288933
C	-0.500016	-1.223666	0.766543
H	-0.121283	-2.150908	0.338757
H	-0.157958	-1.149505	1.802697
H	-1.594177	-1.157261	0.721061
N	-0.481864	-1.224997	-2.205657
O	-1.28181	-1.332745	-3.135311
O	0.422541	-2.018631	-1.956328
N	-0.234775	1.128922	-2.232143
O	-0.773526	2.217041	-2.034301
O	0.642909	0.91367	-3.068059
F	-2.974487	0.0	0.0
