19

C	0.0	0.0	0.0
C	-0.662499	0.022079	-1.367639
Cl	1.789754	0.0	0.0
H	-1.768547	-0.076648	-1.102603
C	-0.496318	1.213013	0.787211
H	-0.158578	1.11708	1.822085
H	-1.590484	1.159231	0.737425
H	-0.108822	2.144079	0.377847
C	-0.462686	-1.262043	0.728076
H	-1.55667	-1.227492	0.713467
H	-0.089596	-2.169784	0.254545
H	-0.086446	-1.2226	1.753318
N	-0.186358	-1.074334	-2.260535
O	-0.678839	-2.18602	-2.084235
O	0.679654	-0.806738	-3.094066
N	-0.491864	1.267613	-2.176454
O	0.394037	2.072873	-1.901697
O	-1.28506	1.380447	-3.110383
F	-2.96387	0.0	0.0
