19

C	0.0	0.0	0.0
C	-0.283062	-0.355842	-1.472895
Cl	1.806541	0.0	0.0
H	0.287348	0.325984	-2.097371
C	-0.523429	1.4011	0.259664
H	-1.620117	1.27219	0.276664
H	-0.142578	1.74769	1.225408
H	-0.216489	2.100808	-0.521258
C	-0.529551	-0.963266	1.038762
H	-1.622419	-0.930613	0.892343
H	-0.26962	-0.569669	2.02432
H	-0.119512	-1.96404	0.932558
N	-1.697888	-0.224551	-2.035817
O	-1.958775	0.91196	-2.40718
O	-2.335186	-1.239122	-2.256686
N	0.212416	-1.711445	-1.882393
O	0.973209	-1.72731	-2.855249
O	-0.173212	-2.702255	-1.270365
F	-2.911456	0.0	0.0
