19

C	0.0	0.0	0.0
C	-0.685172	0.169027	-1.345728
Cl	1.789781	0.0	0.0
H	-1.793859	0.06595	-1.066329
C	-0.496184	1.112719	0.923505
H	-0.142002	0.908019	1.937246
H	-1.589612	1.054843	0.881523
H	-0.124878	2.087616	0.614508
C	-0.456296	-1.336928	0.585934
H	-0.07961	-2.185115	0.014574
H	-0.078387	-1.410935	1.608436
H	-1.550004	-1.31092	0.577287
N	-0.266803	-0.852573	-2.344886
O	-0.825188	-1.946901	-2.289679
O	0.622731	-0.552454	-3.141546
N	-0.496838	1.479059	-2.038307
O	0.371332	2.263531	-1.66345
O	-1.264986	1.672637	-2.980717
F	-2.975698	0.0	0.0
