19

C	0.0	0.0	0.0
C	-0.268133	0.002785	-1.518168
Cl	1.801187	0.0	0.0
H	0.202785	-0.881127	-1.9404
C	-0.532028	1.174157	0.793966
H	-0.241724	1.034531	1.840022
H	-0.144198	2.123898	0.43565
H	-1.62705	1.089143	0.684969
C	-0.525977	-1.308083	0.559877
H	-1.623493	-1.186197	0.520254
H	-0.186356	-2.165728	-0.027434
H	-0.175798	-1.42109	1.589674
N	0.37129	1.133339	-2.286047
O	0.383989	2.264584	-1.818678
O	0.815036	0.8153	-3.391815
N	-1.686279	-0.047157	-2.055934
O	-2.094882	-1.174537	-2.29263
O	-2.203582	1.01049	-2.376378
F	-2.903946	0.0	0.0
