19

C	0.0	0.0	0.0
C	-0.277655	0.028389	-1.51633
Cl	1.802091	0.0	0.0
H	0.263916	0.87359	-1.934129
C	-0.509795	1.300923	0.594062
H	-0.139137	1.389109	1.619231
H	-1.606918	1.186736	0.569898
H	-0.176089	2.168101	0.018091
C	-0.519863	-1.184929	0.78542
H	-1.614047	-1.120734	0.663203
H	-0.107571	-2.128473	0.436754
H	-0.24596	-1.035689	1.834383
N	-1.692281	0.230591	-2.046855
O	-2.020106	1.404229	-2.133938
O	-2.268475	-0.733715	-2.521071
N	0.264701	-1.146233	-2.281292
O	0.076892	-2.281615	-1.863592
O	0.849211	-0.861371	-3.328972
F	-2.876198	0.0	0.0
