19

C	0.0	0.0	0.0
C	-0.270018	0.013673	-1.517519
Cl	1.801308	0.0	0.0
H	0.196677	-0.869246	-1.946893
C	-0.532393	1.167509	0.803134
H	-1.627864	1.080598	0.69205
H	-0.145381	2.120443	0.452223
H	-0.242166	1.01966	1.848058
C	-0.524114	-1.31263	0.552005
H	-0.182834	-2.165977	-0.04042
H	-0.173798	-1.431111	1.581359
H	-1.622094	-1.190867	0.512531
N	0.37053	1.147573	-2.277252
O	0.373014	2.276718	-1.80701
O	0.827156	0.835258	-3.378251
N	-1.691421	-0.030691	-2.053834
O	-2.207295	1.029255	-2.369573
O	-2.099183	-1.156567	-2.298834
F	-2.901661	0.0	0.0
