15

C	-0.564195	0.004147	-1.423459
C	0.0	0.0	0.0
F	-1.991497	-0.026765	-1.283168
H	1.09424	0.0	0.0
N	-0.130241	1.144001	-2.108927
H	-0.198043	1.940055	-1.485638
H	-0.638518	1.281797	-2.970785
C	-0.248074	-1.223165	-2.177989
N	-0.054086	-2.192303	-2.810391
C	-0.485435	-1.179892	0.726889
N	-0.901198	-2.077168	1.361939
N	-0.390657	1.258381	0.636025
H	-1.274823	1.168786	1.119667
H	0.333044	1.51464	1.295796
Cl	3.257939	0.0	0.0
