15

C	-0.530405	-0.004124	-1.438951
C	0.0	0.0	0.0
F	-0.249206	-1.218215	-2.029011
H	1.094475	0.0	0.0
N	-1.952578	0.177056	-1.428123
H	-2.287772	0.370618	-2.364103
H	-2.138598	0.982332	-0.839409
C	0.156625	1.041414	-2.242257
N	0.57222	1.929561	-2.889175
C	-0.494113	-1.188182	0.693399
N	-0.907331	-2.100154	1.307364
N	-0.450612	1.242498	0.652947
H	0.380132	1.758401	0.924293
H	-0.974458	1.034257	1.494008
Cl	3.255401	0.0	0.0
