15

C	-0.54404	-0.007743	-1.430157
C	0.0	0.0	0.0
F	-1.974444	-0.019938	-1.308093
H	1.093439	0.0	0.0
N	-0.08514	1.115563	-2.119861
H	-0.553958	1.242535	-3.004278
H	-0.149245	1.926312	-1.515837
C	-0.234085	-1.247976	-2.165404
N	-0.041669	-2.227892	-2.782629
C	-0.491464	-1.175736	0.731197
N	-0.892973	-2.072828	1.374797
N	-0.403171	1.26491	0.613556
H	-1.323371	1.188217	1.026951
H	0.270497	1.498497	1.331899
Cl	3.288255	0.0	0.0
