15

C	-0.537172	-0.012748	-1.434548
C	0.0	0.0	0.0
F	-0.292431	-1.242687	-2.008756
H	1.094392	0.0	0.0
N	-1.956704	0.197536	-1.419115
H	-2.119185	1.053312	-0.899909
H	-2.298028	0.319705	-2.365722
C	0.165834	1.002966	-2.260858
N	0.594701	1.878617	-2.915508
C	-0.48639	-1.189615	0.700586
N	-0.882507	-2.097111	1.332355
N	-0.439799	1.245018	0.648711
H	-1.07454	1.048259	1.412768
H	0.382531	1.700797	1.027917
Cl	3.249699	0.0	0.0
