15

C	-0.571155	-0.004162	-1.431499
C	0.0	0.0	0.0
F	-0.15279	-1.154787	-2.060548
H	1.099129	0.0	0.0
N	-2.010248	0.031486	-1.513595
H	-2.317745	0.862053	-1.016171
H	-2.368101	-0.784496	-1.023566
C	-0.046694	1.171776	-2.162708
N	0.310053	2.122173	-2.751658
C	-0.498401	-1.191488	0.683013
N	-0.981758	-2.123822	1.211086
N	-0.47411	1.235348	0.650598
H	-0.933484	1.028512	1.528504
H	0.347126	1.793721	0.858194
Cl	3.257583	0.0	0.0
