15

C	-0.481849	0.022847	-1.461816
C	0.0	0.0	0.0
F	0.092939	-1.051452	-2.138628
H	1.094157	0.0	0.0
N	-1.905181	-0.016973	-1.521908
H	-2.232789	-0.880519	-1.101821
H	-2.226699	0.03202	-2.481785
C	-0.029985	1.260719	-2.130992
N	0.291919	2.22872	-2.71183
C	-0.509319	-1.241544	0.597021
N	-0.991216	-2.226046	1.019432
N	-0.447398	1.151428	0.761426
H	0.240792	1.887605	0.669305
H	-1.350655	1.470995	0.43137
Cl	3.283177	0.0	0.0
