17

C	0.0	0.0	0.0
C	-0.407987	-0.031735	-1.489635
Cl	1.788841	0.0	0.0
H	0.281188	-0.733296	-1.975612
N	-0.563358	1.164994	0.61748
H	-0.351604	1.137794	1.611723
H	-1.594116	0.960004	0.51199
C	-0.394902	-1.313075	0.672177
H	-1.48764	-1.346723	0.685016
H	0.011755	-2.174214	0.133161
H	-0.009105	-1.327902	1.696318
N	-0.207348	1.286745	-2.083037
H	-0.753224	1.339312	-2.935158
H	-0.572985	1.96546	-1.422738
C	-1.767689	-0.595385	-1.791121
N	-2.423899	-1.148954	-2.613387
H	-2.846996	0.0	0.0
