17

C	0.0	0.0	0.0
C	-0.507069	-0.031338	-1.450817
Cl	1.80553	0.0	0.0
H	-1.609776	-0.076599	-1.282865
N	-0.502588	1.135361	0.718877
H	-1.531579	0.99516	0.70786
H	-0.304634	1.987674	0.201034
C	-0.448925	-1.261397	0.713237
H	-0.060756	-2.147183	0.212668
H	-1.546059	-1.256093	0.68802
H	-0.099162	-1.219459	1.746026
N	-0.063283	-1.200372	-2.19729
H	-0.623498	-1.291213	-3.035916
H	0.904801	-1.081639	-2.473275
C	-0.202199	1.235502	-2.137786
N	0.055809	2.211658	-2.741271
H	-3.111117	0.0	0.0
