17

C	0.0	0.0	0.0
C	-0.350142	0.059058	-1.51992
Cl	1.80126	0.0	0.0
H	0.365447	0.768451	-1.953614
N	-0.459697	1.228897	0.597303
H	-0.360473	1.140448	1.604441
H	-1.461869	1.289003	0.403104
C	-0.50057	-1.254401	0.693174
H	-1.595634	-1.229945	0.644023
H	-0.114326	-2.165967	0.23391
H	-0.189265	-1.231707	1.74239
N	-1.693067	0.533478	-1.765604
H	-1.995464	0.272612	-2.696775
H	-2.422012	0.199952	-1.070595
C	-0.046588	-1.253034	-2.138673
N	0.146485	-2.285654	-2.667103
H	-3.479931	0.0	0.0
