17

C	0.0	0.0	0.0
C	-0.526686	0.043705	-1.445026
Cl	1.795834	0.0	0.0
H	-1.628641	0.105535	-1.278952
N	-0.50758	1.182289	0.641888
H	-0.26933	1.145951	1.629374
H	-1.538844	1.067029	0.571787
C	-0.437199	-1.292839	0.677603
H	-0.11304	-1.277358	1.722121
H	-0.013098	-2.180029	0.201589
H	-1.534127	-1.300672	0.63339
N	-0.250254	-1.11238	-2.284981
H	0.714732	-1.402594	-2.162635
H	-0.855817	-1.868775	-1.990329
C	-0.081161	1.261696	-2.129373
N	0.243241	2.225013	-2.718001
H	-3.087942	0.0	0.0
