17

C	0.0	0.0	0.0
C	-0.507691	-0.059967	-1.448904
Cl	1.805605	0.0	0.0
H	-1.611387	-0.101109	-1.277257
N	-0.504969	1.149237	0.695207
H	-1.533421	1.004828	0.680449
H	-0.303693	1.990969	0.160799
C	-0.446887	-1.246821	0.739162
H	-0.055957	-2.142212	0.258321
H	-0.09766	-1.181135	1.771057
H	-1.543544	-1.244027	0.713197
N	-0.065052	-1.24293	-2.174076
H	-0.626214	-1.349168	-3.010658
H	0.903022	-1.128491	-2.452951
C	-0.202643	1.194237	-2.159104
N	0.055794	2.158627	-2.780869
H	-3.096131	0.0	0.0
