17

C	0.0	0.0	0.0
C	-0.348326	0.016674	-1.521321
Cl	1.800879	0.0	0.0
H	0.363126	0.717858	-1.97516
N	-0.459569	1.246639	0.559176
H	-1.46366	1.297014	0.372119
H	-0.350977	1.191432	1.566433
C	-0.499234	-1.231259	0.733872
H	-1.594516	-1.208574	0.685164
H	-0.187132	-1.172014	1.781019
H	-0.109351	-2.155627	0.304954
N	-1.695261	0.473192	-1.772387
H	-2.420326	0.153806	-1.063833
H	-2.005187	0.199511	-2.697324
C	-0.027272	-1.308101	-2.104529
N	0.177464	-2.351243	-2.608129
H	-3.474728	0.0	0.0
