8
Coordinates from ORCA-job run
  C   0.52349937168512     -0.73032067393741     -0.44405591525521
  C   -0.74071096686062     -0.45602785538839     -0.05440145978193
  H   0.85939530257171     -1.76120028759880     -0.49458063839970
  H   -1.41203608478269     -1.26845692294881      0.20517319655631
  C   1.46358786533686      0.28202383551589     -0.80192247568488
  N   2.25380759179759      1.10123085165275     -1.10108353070051
  C   -1.25416972848037      0.87242352450839      0.03532110531360
  N   -1.69337335126759      1.96132752819638      0.11454971795231
