8
Coordinates from ORCA-job run
  C   -0.56387146564860     -0.22546215474430      0.35717145467167
  C   0.69066566458031     -0.52278321489592     -0.04635861627463
  H   -0.96475268641244     -0.68863578380028      1.25323879693979
  H   1.28879406019349     -1.22314139033790      0.52799121771593
  C   -1.41082615690634      0.68450068694569     -0.34361007214423
  N   -2.12560466356616      1.43139205032817     -0.90599840221365
  C   1.28730446183836      0.04433721992661     -1.21204487142817
  N   1.79829078592138      0.49979258657792     -2.16938950726672
