8
Coordinates from ORCA-job run
  C   0.62146031854349     -0.25047866436463     -0.23407811288246
  C   -0.62150332445674      0.25048265161300     -0.40110709704512
  H   0.91265064039180     -0.72537747509681      0.69821179114343
  H   -0.91226909075447      0.72623682313796     -1.33317419274207
  C   1.59955969474467     -0.17492950839056     -1.27081811834065
  N   2.41484540143290     -0.11922125769084     -2.11731752596890
  C   -1.59930179623222      0.17462982421773      0.63579505647746
  N   -2.41444184366944      0.11765760657414      1.48248819935832
