15
Coordinates from ORCA-job run
  C   0.78302744101153      0.14543900233392      0.25740806635078
  C   -0.69096676814456      0.53303305106249      0.28111006831108
  H   1.11093658561322     -0.22595199652508      1.22943294141595
  H   -0.78625639656610      1.36690123051367      0.98467026884898
  H   -0.94976208303616      0.91467085094587     -0.71232718346501
  N   1.70510402685084      1.14336501138994     -0.21021621850899
  H   1.97922523078450      1.75709319657408      0.54358386270138
  H   1.30121615733079      1.68709154104029     -0.96146607469739
  N   0.90527853786440     -1.04316623097006     -0.66268577989305
  O   1.11655267065765     -2.14366803774383     -0.15939767470354
  O   0.73631822086862     -0.81623577648788     -1.85758939999246
  C   -1.62170824905675     -0.61064116247466      0.67185152762267
  H   -1.62116671072413     -1.39819898425572     -0.08408365276614
  H   -1.32214217354906     -1.05945689953654      1.62216731112835
  H   -2.64765648990478     -0.25227479586648      0.77554193764738
