15
Coordinates from ORCA-job run
  C   0.84081946764245      0.14623755283451      0.27139668181062
  C   -0.42366740046713     -0.11227790363354      1.07827470137906
  H   1.72614309708190      0.04798611098592      0.91781029495553
  H   -0.52502831526436      0.71732218674209      1.78778735859100
  H   -0.27803241587830     -1.01907392161395      1.66732906360139
  N   0.75036530854536      1.37962120595839     -0.46505836983609
  H   1.55855400562909      1.50724799202090     -1.05968995647380
  H   0.69699949923360      2.14975413943219      0.18959857236006
  N   1.03499973354972     -0.98699149343924     -0.71785995990928
  O   1.32052367336219     -0.70605783171985     -1.87726539290980
  O   0.93652723943818     -2.12224683644904     -0.26121674268703
  C   -1.67138187245748     -0.22445136549472      0.20899143747786
  H   -2.56280193882065     -0.30763210121950      0.83420451420725
  H   -1.62677243613309     -1.11621659150474     -0.41963396314563
  H   -1.77724764546149      0.64677885710060     -0.43666823942113
