15
Coordinates from ORCA-job run
  C   0.85621996968319      0.18624200357327      0.42501723416996
  C   -0.47661726180389     -0.16509659222487      1.07509564122032
  H   1.66566570733787      0.09530796358198      1.15212459772168
  H   -0.63131059074616      0.56276026317729      1.87594768196887
  H   -0.37956507363326     -1.15096048223251      1.53569389580304
  N   0.86912245765656      1.47577846972809     -0.16504965756894
  H   0.22484521962427      1.52474466364865     -0.94277899551130
  H   1.79063293443840      1.71053010531052     -0.50976312299131
  N   1.15738484444274     -0.94552300016928     -0.57715042909248
  O   1.03197524224567     -0.70040338348231     -1.77514416310157
  O   1.46347869731188     -2.03253932418429     -0.09600367243257
  C   -1.65749691726941     -0.14343105125847      0.10910900026005
  H   -2.57010376898996     -0.43976863375192      0.62969588572522
  H   -1.51501700871223     -0.83389800791906     -0.72506256863133
  H   -1.82921445158566      0.85625700620291     -0.29573132753965
