15
Coordinates from ORCA-job run
  C   0.65604668222395      0.11312824164918      0.28768875617714
  C   -0.68279337582472     -0.58659170038341      0.09884988884417
  H   0.89791361360492      0.21238784792351      1.34804427255493
  H   -0.84695721007203     -0.71947037729358     -0.97735887967359
  H   -0.61408452012830     -1.58370453797475      0.54188872381608
  N   0.69863172858569      1.37699386201817     -0.35465385022394
  H   0.58687358580562      1.26901944994706     -1.35507165948216
  H   1.57271963383551      1.85519055665625     -0.18011654814013
  N   1.72139605326758     -0.86653142986058     -0.22958160867755
  O   2.09849728457282     -0.72787557141597     -1.39099423224095
  O   2.08276188525988     -1.74837298545547      0.54438236412561
  C   -1.82596981363530      0.20342235950227      0.72427950063376
  H   -1.66838836734659      0.32640260480398      1.79887333367545
  H   -2.77497297911651     -0.31819997170115      0.58277448462775
  H   -1.90267420103253      1.19520165158449      0.27999545398342
