16
Coordinates from ORCA-job run
  C   -0.44286620840564      0.12101679920898     -0.07062278782007
  C   1.04989586138909      0.23475158956273     -0.36883558572677
  Br  -1.38254080513296     -0.01230074603257     -1.81427292174363
  H   1.21392250153538      1.15299318076830     -0.95257317144677
  H   1.54820507031672      0.36938941612676      0.59950129917433
  C   -0.77016359868978     -1.12656768993018      0.72904435634668
  H   -1.84473777273557     -1.20481050677397      0.90530813480456
  H   -0.41608590308039     -2.01880630838185      0.21648036050226
  H   -0.26166454009489     -1.06490627513489      1.69790852278514
  C   -0.94538958337115      1.38316080570620      0.61025212212235
  H   -0.72669867952556      2.27124315088782      0.01366928730853
  H   -2.02341513087136      1.33531685268457      0.77414179309732
  H   -0.45281944314778      1.48546357587464      1.58348892194977
  N   1.58576735676913     -0.97187262412702     -0.98407504764986
  H   1.27255763070360     -1.02442571769698     -1.94597785820780
  H   2.59703324434115     -0.92864550274254     -0.99343742549603
