16
Coordinates from ORCA-job run
  C   -0.45757121988640     -0.01556421755118     -0.07832235354233
  C   0.98039277566954     -0.40990286170001     -0.40535535823128
  Br  -1.32653020846067      0.50797991015710     -1.78472795007428
  H   0.95254063345985     -1.27105763675733     -1.08979521127984
  H   1.42707631627595     -0.75448913940069      0.53583934820032
  C   -1.22491352603988     -1.20997774986585      0.46360239596081
  H   -1.19281776914389     -2.05204279732949     -0.23089127332899
  H   -2.27003147716270     -0.95273777691291      0.64482860797213
  H   -0.77699761923775     -1.52249084836734      1.41333103594087
  C   -0.52183054853187      1.17593598616673      0.85937547073350
  H   -0.04964795790747      0.89999407208648      1.80909535795729
  H   0.01983202664342      2.02404491635536      0.44525938615042
  H   -1.55726787763607      1.46055799484656      1.05625437901047
  N   1.76776446173369      0.71622513895655     -0.88860210257407
  H   1.48424590440715      0.94119983686966     -1.83471465049231
  H   2.74675608581710      0.46032517244635     -0.91517708240270
