16
Coordinates from ORCA-job run
  C   -0.43326574897548      0.14356031572958     -0.08561021882365
  C   1.07628472128068      0.21011626624131     -0.30181477488874
  Br  -1.28568854353434      0.14943668717286     -1.87793225940382
  H   1.52776076062871      0.26987555145378      0.69651553709085
  H   1.30731162790067      1.15101612505988     -0.82334158652435
  C   -0.85101249586444     -1.13193538073957      0.62278114379656
  H   -1.93548272539860     -1.17326555782874      0.74166028606777
  H   -0.39037013440280     -1.14716417034956      1.61701406889758
  H   -0.50809444000407     -2.00853226091508      0.07682432735656
  C   -0.91944818362454      1.38551190947769      0.64272087155502
  H   -0.47445498680088      1.41105641742261      1.64346450667833
  H   -2.00558787234363      1.37482407753895      0.74970006543386
  H   -0.63465508221536      2.29575461371881      0.11099350071275
  N   1.59536527432957     -0.98305343361685     -0.95734649819207
  H   2.60704173354066     -0.97663589036450     -0.92247798718800
  H   1.32329609548385     -0.97156527000119     -1.93315098256864
