16
Coordinates from ORCA-job run
  C   -0.45263386011259     -0.03797587708783     -0.09552202061812
  C   1.01100829494028     -0.39821851520169     -0.33581707001678
  Br  -1.26551902881498      0.33694968647148     -1.86709590409126
  H   1.04371510717251     -1.30359777890844     -0.96022488576281
  H   1.42775930836165     -0.66163384785591      0.64449833651442
  C   -1.19983113998160     -1.22201703751430      0.49520510530657
  H   -2.25970117401836     -0.99226756373534      0.61828939883657
  H   -0.78063578664517     -1.45479198407373      1.48023590964131
  H   -1.11039077778314     -2.10597048541366     -0.13959077748280
  C   -0.59919783736679      1.21002554650549      0.75547427528890
  H   -0.16031528453990      1.01556583633308      1.74062514897761
  H   -1.65150146421500      1.46829124294953      0.88903010309687
  H   -0.06958201421269      2.04849210428123      0.30758407059889
  N   1.77878209881111      0.72256639483043     -0.86205010403439
  H   1.52235602957589      0.87714920992331     -1.82984808252390
  H   2.76568752882878      0.49843306849637     -0.83979350373105
