16
Coordinates from ORCA-job run
  C   -0.40046330488005      0.16725987638184     -0.08145906795222
  C   1.08492057214115      0.29005843823301     -0.45945010815164
  Br  -1.43766461280852      0.06151623840955     -1.76489363624313
  H   1.21282238820740      1.20364800101555     -1.04777644693518
  H   1.63249509366949      0.43794948349280      0.48048053716542
  C   -0.69142368947208     -1.09254680699054      0.71522810944128
  H   -0.43214434240228     -1.99166265432443      0.15500313486827
  H   -0.10544453763719     -1.07470813667334      1.64135070315015
  H   -1.74908749980333     -1.15305862999240      0.97783854083106
  C   -0.85751691223734      1.41421414174140      0.65759093456613
  H   -0.66624645764104      2.31323153026929      0.06804846948376
  H   -0.30813980010020      1.49475043499402      1.60201074545088
  H   -1.92468820009442      1.37093270957502      0.88315494302476
  N   1.71300516265764     -0.80262674674387     -1.17435414138842
  H   1.71502076716110     -1.64812315042445     -0.61970167814288
  H   1.21355537323967     -0.98883472896347     -2.03507103916824
