16
Coordinates from ORCA-job run
  C   -0.42575821822616     -0.06812136657471     -0.09460827938165
  C   1.00409355018597     -0.46072278404416     -0.50168478159294
  Br  -1.39641605878508      0.44261521417776     -1.74321025518186
  H   1.49636001841182     -0.82543540393790      0.40926932192832
  H   0.94210804631423     -1.30918642484836     -1.18972523080523
  C   -1.14615550372164     -1.26398507801503      0.50616207588175
  H   -1.14309433578430     -2.11163310484295     -0.18221266194748
  H   -0.63788695084736     -1.56418255353038      1.42907844895739
  H   -2.18242950134047     -1.02043199586776      0.74787476015903
  C   -0.45205206965711      1.12784272225257      0.84104988757035
  H   -1.47581190727873      1.38195757115268      1.12144402406701
  H   0.10557033666150      0.88276259224285      1.75230500721279
  H   -0.00097925165292      2.00810795508947      0.38153612220108
  N   1.85854772496868      0.54634906602432     -1.09771917081543
  H   2.03340537558219      1.30486829004292     -0.45228789156721
  H   1.42049874516937      0.92919530067867     -1.92627137668592
