16
Coordinates from ORCA-job run
  C   -0.54232726267654      0.07303666830566     -0.25789060759394
  C   0.77554669742560     -0.02427216859551     -1.04866864648481
  Br  -1.96138823488931      0.30274175622742     -1.61427890743984
  H   0.88716600407549      0.88228431707098     -1.65067018080733
  H   0.69931747477387     -0.86099766660624     -1.74923413410292
  C   -0.84742703959945     -1.20401465081408      0.50868505396940
  H   -1.82713368258238     -1.14805273622271      0.98660348651633
  H   -0.83776233176871     -2.07221523035823     -0.15418069695549
  H   -0.09964455086078     -1.35193874669623      1.29415691555493
  C   -0.57836147065102      1.29211211377420      0.64993307423992
  H   -0.37636617476329      2.20680748624018      0.08798329174728
  H   0.17419028104841      1.18917550681472      1.43802850041511
  H   -1.55331394509312      1.39267444353400      1.13026072212895
  N   1.98564119601855     -0.19912755810321     -0.26212883060160
  H   1.96343656848037     -1.05532269969005      0.27464535585421
  H   2.13942647106231      0.57710916511910      0.36675560355981
