14

C	0.0	0.0	0.0
C	-0.215603	-0.114605	-1.535555
F	1.409018	0.0	0.0
H	0.390364	-0.971794	-1.851598
H	0.255143	0.774566	-1.965323
N	-0.492637	1.252464	0.467137
H	-1.517399	1.110006	0.328148
H	-0.343834	1.241818	1.473517
N	-0.471083	-1.093113	0.789194
H	-1.499677	-0.960108	0.698907
H	-0.217104	-1.970153	0.344938
C	-1.530092	-0.267972	-2.16503
N	-2.403724	-0.400901	-2.939623
F	-2.754785	0.0	0.0
