14

C	0.0	0.0	0.0
C	-0.442065	-0.30236	-1.439256
F	1.429019	0.0	0.0
H	-0.095913	0.496528	-2.098042
H	-1.542537	-0.300272	-1.364233
N	-0.482429	1.305881	0.317999
H	-1.507673	1.162555	0.239172
H	-0.285425	1.434514	1.30687
N	-0.432117	-0.973279	0.962951
H	-0.147948	-1.900005	0.659648
H	-1.458484	-0.897679	0.879788
C	0.061353	-1.583078	-1.913067
N	0.469914	-2.619882	-2.284502
F	-2.818006	0.0	0.0
