14

C	0.0	0.0	0.0
C	-0.463176	-0.053684	-1.467421
F	1.38441	0.0	0.0
H	-1.56333	-0.065732	-1.379008
H	-0.123511	0.847779	-1.982864
N	-0.484863	1.239404	0.53352
H	-1.508926	1.117039	0.440013
H	-0.279724	1.204717	1.5286
N	-0.451829	-1.116325	0.786558
H	-1.477253	-1.015129	0.714967
H	-0.177694	-1.984206	0.33577
C	0.034626	-1.23394	-2.156626
N	0.436442	-2.195634	-2.698559
F	-2.832971	0.0	0.0
