16
Coordinates from ORCA-job run
  C   0.63836382973552     -0.71496323945386      0.21743493551925
  C   -0.45846787732327      0.19194208381371     -0.33881964918324
  Cl  0.56092964549423     -0.74413844907396      2.02118974584699
  H   -0.31675714385913      0.15975469589438     -1.42778395377096
  H   0.42885755726441     -1.74348527562390     -0.08744152347437
  C   2.03095239906036     -0.30130137310110     -0.21198019424950
  H   2.09631227436689     -0.33334389258473     -1.30383067542623
  H   2.78164963591279     -0.97723281721332      0.20033600837190
  H   2.23522294939898      0.71646417448896      0.11587029018182
  N   -0.21290702171549      1.57091117017716      0.07263693365969
  H   -0.42574491110032      1.66860468949746      1.05942657430368
  H   -0.83360143252895      2.19126272777706     -0.43318511102133
  C   -1.86164500141631     -0.32642877585548     -0.02873587585567
  H   -1.99700474729405     -1.35591404407243     -0.37484772763285
  H   -2.60884546939720      0.29801079474329     -0.52585839275043
  H   -2.05531468659848     -0.29914246941323      1.04558861548127
