16
Coordinates from ORCA-job run
  C   0.62569992721190     -0.76790465218178      0.13869386517197
  C   -0.51546859884707      0.15946162821198     -0.28208491041671
  Cl  0.58400720305750     -1.11004116715021      1.89928708967576
  H   -0.48959801351221      0.13121014926628     -1.38661816029581
  H   0.46716018117164     -1.73549576562718     -0.34647952233449
  C   1.99173491388274     -0.21651837722600     -0.22267726923538
  H   2.03121164370679      0.01195862515803     -1.29301772433518
  H   2.77621091767816     -0.93976218438795      0.00361678201801
  H   2.18943683295956      0.69173360640346      0.34779126186085
  N   -0.29737605265917      1.50350511220023      0.24265262451720
  H   -1.16960923633325      2.01708431975417      0.25025087903512
  H   0.34998170367927      2.01645641313499     -0.34242913945563
  C   -1.87774176507745     -0.34725781284353      0.16356504828713
  H   -1.98282280032870     -0.23476781835147      1.24332888555124
  H   -2.00966356899558     -1.40169362926090     -0.08878123397219
  H   -2.67216328759416      0.22203155289986     -0.32709847607190
