16
Coordinates from ORCA-job run
  C   0.98399978948658     -0.04002988853568     -0.36367719493003
  C   -0.52808412234845      0.14529799055296     -0.49123114027861
  Cl  1.68140352234093     -0.35040620907233     -1.98761822764619
  H   -0.90828790257644     -0.70440958707117     -1.06982862998837
  H   1.42436721196487      0.90759718708177     -0.03584124917353
  C   1.40653241676652     -1.16372922532849      0.56594849989129
  H   2.48812682394669     -1.29812176798216      0.52935259678769
  H   0.93769785355632     -2.10454897542740      0.26713093920399
  H   1.12746922729152     -0.94073979925879      1.59757963037965
  N   -0.79109583904363      1.34910188937230     -1.27559258065837
  H   -1.75077704891652      1.34775309600526     -1.59859394117126
  H   -0.67323927289438      2.16821888720166     -0.68837153711085
  C   -1.21127336389011      0.15879979327539      0.87937077027165
  H   -1.14053394156775     -0.79838301152083      1.39951442236459
  H   -2.27117069018921      0.39192117089711      0.75111706644412
  H   -0.77513466392694      0.93267844981040      1.52074057561423
