16
Coordinates from ORCA-job run
  C   0.60655366188499     -0.67723050979018      0.17324995726278
  C   -0.57193463571672      0.17542234455136     -0.32603591294912
  Cl  0.62434370034791     -0.72690921616855      1.97362361602704
  H   -0.49772895325781      0.13513065063284     -1.42173532847290
  H   0.44471695658057     -1.71254331034463     -0.13954412815325
  C   1.95763249647412     -0.19250055670024     -0.31548109236569
  H   2.75395654208350     -0.86121475017220      0.01386686400397
  H   2.17712157402997      0.80405019418618      0.07104507225332
  H   1.96444597524600     -0.15791055671131     -1.40920148036011
  N   -0.53831199154936      1.58165903700296      0.04614929748828
  H   -0.51549204823221      1.66888052858874      1.05583589400647
  H   0.28376828055800      2.04011152837856     -0.32571140206671
  C   -1.91703664091551     -0.41345077557831      0.07466812683170
  H   -1.99363776893221     -1.46498642314725     -0.21421786780260
  H   -2.71518360087471      0.14843414618881     -0.41159819339686
  H   -2.06221354772653     -0.34794233091680      1.15508657769370
