16
Coordinates from ORCA-job run
  C   0.95090741223542      0.01134636698809     -0.31504237234579
  C   -0.56229384502008      0.18516645469236     -0.38058111348529
  Cl  1.58955399608524     -0.13367158476911     -1.99962176900669
  H   -0.96185534555016     -0.67940456629264     -0.93710671770194
  H   1.37883380428213      0.93885489480376      0.07331639415584
  C   1.41667932042387     -1.19308995523537      0.47870271108556
  H   2.49625541998579     -1.31653849874005      0.38489175440155
  H   0.93586975525435     -2.10488465480684      0.11630573425600
  H   1.18169254204629     -1.06483015204247      1.53711447598408
  N   -0.86026191633109      1.46412295575738     -1.02099463463761
  H   -0.50667338125066      1.46354590673100     -1.97051695750240
  H   -1.86470970160754      1.58704880893056     -1.07462775475204
  C   -1.17311419017479      0.20047078919733      1.01527504582952
  H   -2.23874735377116      0.43715469234788      0.95002887208671
  H   -0.69827735115662      0.97189268946104      1.62686693686465
  H   -1.08285916545099     -0.76518414702291      1.51398939476787
