16
Coordinates from ORCA-job run
  C   0.71718243530353     -0.43546951405498     -0.67119999608152
  C   -0.68608258258036      0.18370792638006     -0.54837924553427
  Cl  0.57516898512049     -2.15608829340635     -1.18502761501233
  H   -1.21622306540282     -0.06375702357467     -1.47471715387304
  H   1.22917188392245      0.05896673649123     -1.50204988351926
  C   1.57026012539854     -0.36077500546770      0.58036718397888
  H   1.14364528230325     -0.96278749064096      1.38332718133905
  H   1.65522481867523      0.67492474274526      0.92018006039745
  H   2.57596687687348     -0.73197817745828      0.37820731154173
  N   -0.65460885005654      1.64033956373619     -0.45765948167252
  H   -0.13261619733204      2.04357177400888     -1.22701576378282
  H   -0.22225559169460      1.93789037736615      0.40861492798389
  C   -1.48370354086478     -0.36189581626904      0.62543403581261
  H   -1.05039344422382     -0.03961739284170      1.57671461500660
  H   -2.50190612649514      0.02594331096645      0.57684945165341
  H   -1.51883100894687     -1.45197571798054      0.61535437176213
