16

C	0.0	0.0	0.0
C	-0.69642	0.162729	-1.33011
Br	1.956316	0.0	0.0
H	-1.839363	0.058523	-0.912981
C	-0.470201	1.086625	0.957941
H	-0.164159	2.058205	0.571674
H	-0.060343	0.922737	1.955664
H	-1.567751	1.012021	0.969351
C	-0.338256	-1.325384	0.542638
N	-0.537411	-2.393672	0.99322
C	-0.396465	-0.905846	-2.27164
N	-0.1742	-1.715753	-3.098937
N	-0.516582	1.49153	-1.884715
H	0.291339	1.519195	-2.491673
H	-1.334341	1.733311	-2.428016
H	-2.992294	0.0	0.0
