11

C	0.0	0.0	0.0
C	-0.568123	-0.511818	-1.308491
F	1.380014	0.0	0.0
H	-0.317917	-1.566646	-1.447636
H	-0.359199	1.012562	0.176511
H	-1.699728	-0.370253	-1.045274
C	-0.43202	-0.85861	1.119193
N	-0.571245	-1.570429	2.042464
C	-0.112648	0.272633	-2.436385
N	0.220127	0.921299	-3.360345
F	-2.653056	0.0	0.0
