11

C	0.0	0.0	0.0
C	-0.452602	-0.230605	-1.453325
F	1.37688	0.0	0.0
H	-1.230351	-0.987334	-1.474076
H	-0.359843	0.947938	0.383443
H	0.425334	-0.540915	-2.034867
C	-0.449497	-1.081739	0.887599
N	-0.534531	-1.987133	1.632586
C	-1.013157	0.973986	-2.057937
N	-1.388112	1.928277	-2.62962
F	-2.354099	0.0	0.0
