12
Coordinates from ORCA-job run
  C   0.07836257083536     -0.19068132510304      0.35138014209447
  C   -1.10557644370837     -0.59214434875504     -0.52012852376034
  Cl  -0.39409011367389     -0.38630261254647      2.07980168057576
  H   -0.83477194458198     -0.49394951757968     -1.57431871628619
  H   -1.95183142205563      0.06282846551272     -0.30546611319950
  H   -1.39869216741261     -1.62372034562596     -0.32378831594408
  C   1.21239339786631     -1.08439953507620      0.10256633938856
  N   2.12231707631104     -1.78550994590750     -0.14264962836580
  C   0.49520961101223      1.25796555699871      0.12690528610338
  H   -0.34970303918644      1.91498855253287      0.34058824076293
  H   0.80131425441688      1.39461127956979     -0.91324551145382
  H   1.32606822017710      1.52731377597980      0.77935512008464
