12
Coordinates from ORCA-job run
  C   0.09409538808189     -0.18668698788192      0.34994201397262
  C   -1.10898502132153     -0.61945107345921     -0.47954394459035
  Cl  -0.31588024492762     -0.38207275266749      2.09397597014105
  H   -0.87499116035237     -0.52329261206483     -1.54264726736459
  H   -1.37328454003450     -1.65551974796704     -0.26676731758411
  H   -1.96140494596749      0.01911762833462     -0.24129489977931
  C   1.23861691412776     -1.05711219212973      0.06792173849709
  N   2.15495858811582     -1.73976976233376     -0.20403835823238
  C   0.47108898058376      1.26928965592062      0.10348652976428
  H   1.31731137956214      1.56068317205124      0.72603301500710
  H   0.73887235703732      1.40584111411005     -0.94714852734903
  H   -0.38039769490516      1.90897355808744      0.34208104751762
