18
Coordinates from ORCA-job run
  C   -0.73043974538782     -0.48272742679937     -0.04545008230529
  C   0.50235581412635      0.02168392461564      0.70877875051199
  F   -1.74536335154553     -0.60431733229427      0.92820909320455
  H   0.72027354334374     -0.72400623830691      1.47935514983944
  N   -0.38034580576042     -1.77020098601674     -0.55924911334233
  H   -0.18323817828785     -2.41002999995779      0.20227626208451
  H   -1.15236650687038     -2.14761303454052     -1.09495821887978
  C   -1.26399548677697      0.38267641784639     -1.16536233335517
  H   -0.49725715989694      0.54161765189532     -1.92343467093403
  H   -1.61866694011713      1.33427619218227     -0.78383765847420
  H   -2.10508984223096     -0.13825361677666     -1.63011249357879
  N   0.26181869155773      1.27240546592981      1.51403525102319
  O   1.10514847818482      1.48163451926743      2.38466901812400
  O   -0.70084159758389      1.99402989286219      1.27096536101875
  C   1.72377212748369      0.26610595477460     -0.16156018654102
  H   1.54695042618575      1.10234270935609     -0.84205803619253
  H   2.58090259354174      0.50675729682372      0.46564395724468
  H   1.93538294003407     -0.62538139086119     -0.74891004944797
