18
Coordinates from ORCA-job run
  C   -0.36847774826858     -0.33252215627036     -0.65442090722808
  C   0.41374639135493      0.53269780792092      0.36695860593803
  F   0.54537554862535     -1.31683639219440     -1.05460999334340
  H   -0.17701668915698      1.42881648545823      0.57035439411742
  N   -0.80942316177176      0.35258272214741     -1.82179849973613
  H   -1.75320724951292      0.69669330758045     -1.72694926531771
  H   -0.18972219101973      1.10333542643421     -2.09488258604107
  C   -1.53878090095046     -1.03871780958139      0.00000792094006
  H   -2.09815257887650     -1.55923142302281     -0.77902907810387
  H   -1.18598449331120     -1.77581767249589      0.71911255706566
  H   -2.20022985443197     -0.33127208227539      0.50668510061261
  N   1.64470291431744      1.04456501682532     -0.32973384210885
  O   2.71406830421820      0.48760994484463     -0.10954545699149
  O   1.48235495043146      1.98816670792104     -1.10861299335651
  C   0.80706088222414     -0.18922215643300      1.63849314047070
  H   -0.08074122498724     -0.38907867866420      2.23979806416590
  H   1.30856044138899     -1.12715092620664      1.40609921856317
  H   1.48586665972684      0.42538187801187      2.23107362035354
