18
Coordinates from ORCA-job run
  C   -0.44593866506001     -0.34466829353324     -0.53573339898338
  C   0.37714293292531      0.49076672434449      0.45765511874946
  F   0.24228669170614     -1.55810831403033     -0.76198443065364
  H   -0.28968894421180      1.22221236199374      0.91559328315074
  N   -0.64788909683022      0.37073197299769     -1.74475565327414
  H   0.22318217009980      0.45650465686701     -2.25454541115509
  H   -1.31969388486781     -0.11048112375487     -2.32908013980916
  C   -1.78059391016369     -0.72260924047488      0.07854034429197
  H   -2.39826206093839      0.16393789980828      0.22415209572240
  H   -1.64137481934864     -1.23278898557288      1.03164140854317
  H   -2.29552042490622     -1.41116719499406     -0.59512669827672
  N   1.39557041441356      1.32783000439103     -0.25432606918099
  O   1.45269214362255      2.51837360356026      0.04150642224692
  O   2.13165092800283      0.75484159277111     -1.05763887351194
  C   1.11441362135162     -0.33026354611869      1.50134776291781
  H   0.41285451215640     -0.93990805050582      2.07189187681187
  H   1.83301404790034     -0.98818435294051      1.01583261681798
  H   1.63515434414822      0.33298028519168      2.19502974559274
