18
Coordinates from ORCA-job run
  C   -0.69585431659831     -0.49163982370486     -0.08956719427559
  C   0.49650709406596     -0.00148066210757      0.74360029216454
  F   -1.79571431630750     -0.49318707611046      0.80252972168039
  H   0.70363072717486     -0.76174325757115      1.49994034827924
  N   -0.38978335336103     -1.81017314668166     -0.52424522415228
  H   -0.32756322703507     -2.44040312869921      0.26684732689676
  H   -1.10253725536936     -2.15299505861718     -1.15633065695766
  C   -1.08882949756935      0.37935898528112     -1.26106066079730
  H   -0.31103299831647      0.37869921002721     -2.02413963074358
  H   -1.27667765093952      1.39925904948355     -0.93294473010356
  H   -2.00884440122351     -0.02171285555265     -1.69299808960008
  N   0.08724725598662      1.19476103600976      1.55009273901882
  O   -0.06460665131121      2.25697588806054      0.94839911603633
  O   -0.06151537497980      1.03246304504494      2.75807342780140
  C   1.72957921817963      0.32546627214433     -0.07312700063671
  H   2.56682774629911      0.56404711923718      0.58599677574756
  H   1.99282412295174     -0.54008266356768     -0.68101140289395
  H   1.54634287835323      1.18238706732378     -0.72005515746433
