18
Coordinates from ORCA-job run
  C   -0.53372010173706     -0.49412428120320     -0.25077112354030
  C   0.42297781149875      0.27662659404470      0.69213144905364
  F   -0.51429228268957     -1.81802240424698      0.19155415847477
  H   -0.12806468579734      0.61497849831118      1.57615996968317
  N   0.04875980295776     -0.52723802453833     -1.57501475191512
  H   -0.19896332156162      0.31297410092516     -2.08358390243473
  H   -0.33680998328268     -1.32365810082011     -2.06899607289731
  C   -1.98454049664862     -0.05966621480428     -0.16787526900031
  H   -2.58084992507922     -0.70668308749516     -0.81525096723450
  H   -2.35037835270785     -0.16526000578564      0.85632285937082
  H   -2.09731095238125      0.97515751789949     -0.48377108185675
  N   0.84180866597013      1.55707141083983      0.00689077807253
  O   2.01504024483203      1.90247981253389      0.07606180366758
  O   -0.04364062097807      2.19939750701215     -0.55971396576729
  C   1.63934187692678     -0.53394883295944      1.08126299838085
  H   2.16081141293383     -0.86970981970464      0.18541673060009
  H   2.31807431218541      0.06352150917964      1.68701102257038
  H   1.32175659555858     -1.40289617918828      1.65516536477246
