18
Coordinates from ORCA-job run
  C   -0.30351375784462     -0.38231679630439     -0.62564029618600
  C   0.42789286967144      0.60048323995646      0.30684156467343
  F   0.60074107918170     -1.43315068631817     -0.85992728250091
  H   -0.09367368237224      1.56076483503975      0.30877003111739
  N   -0.58298182505101      0.22923702908746     -1.88119527913777
  H   -1.35944737918600     -0.21023949101988     -2.35309984353373
  H   -0.68269983008079      1.23046915621547     -1.85947257851825
  C   -1.51161745843186     -1.02877918505909      0.02892874237191
  H   -1.95752030816417     -1.71993070002903     -0.69104490061956
  H   -1.24012900263006     -1.60281025554209      0.91388516493341
  H   -2.25522888031284     -0.27360750155339      0.29399365882975
  N   1.75230904718661      0.92126110903517     -0.33736061956809
  O   2.75002326589834      0.33317496336209      0.06265883866985
  O   1.72058921370453      1.75538979315406     -1.24001829181224
  C   0.64073015041944      0.09375433985169      1.71658850942460
  H   1.15832730027789     -0.86461731199053      1.70391707056891
  H   -0.31539269055844     -0.01039167672023      2.22981563027880
  H   1.25059188829208      0.80130913883464      2.28035988100851
