15

C	-0.578525	0.032916	-1.404919
C	0.0	0.0	0.0
F	0.090654	-0.838915	-2.2588
H	1.092812	0.0	0.0
H	-0.39066	1.040694	-1.777571
N	-1.988776	-0.211172	-1.389329
H	-2.13603	-1.199908	-1.223398
H	-2.385562	0.022086	-2.290454
N	-0.397189	-1.299337	0.706482
O	-0.484337	-1.263396	1.932105
O	-0.582253	-2.310479	0.027383
N	-0.460183	1.146684	0.709503
H	-1.453375	1.075939	0.89221
H	0.0486	1.240473	1.577305
Cl	3.348264	0.0	0.0
