15

C	-0.590644	-0.005957	-1.393881
C	0.0	0.0	0.0
F	-2.0087	-0.18168	-1.21552
H	1.090681	0.0	0.0
H	-0.270342	-0.873469	-1.96611
N	-0.285265	1.192903	-2.049238
H	-0.762145	1.273213	-2.934161
H	-0.473691	1.979578	-1.442439
N	-0.39452	-1.331266	0.64117
O	-0.136813	-2.350143	0.008815
O	-0.929331	-1.307574	1.749134
N	-0.473684	1.125626	0.73423
H	0.124204	1.286761	1.532889
H	-1.420447	0.967755	1.053049
Cl	3.349204	0.0	0.0
