15

C	-0.387709	-0.066067	-1.475703
C	0.0	0.0	0.0
F	-0.193324	1.240322	-1.996986
H	1.091557	0.0	0.0
H	-1.452351	-0.26692	-1.621665
N	0.408541	-1.044546	-2.096156
H	1.391698	-0.91063	-1.869655
H	0.269745	-1.075671	-3.096458
N	-0.520776	-1.265411	0.620195
O	0.26536	-2.082721	1.081032
O	-1.750424	-1.380133	0.62924
N	-0.514471	1.105495	0.751189
H	-1.368785	1.461869	0.344208
H	0.183575	1.836141	0.75248
Cl	3.384869	0.0	0.0
