15

C	-0.435846	0.056882	-1.453896
C	0.0	0.0	0.0
F	-1.839166	0.101186	-1.465468
H	1.091772	0.0	0.0
H	-0.134571	-0.849525	-1.977238
N	0.072863	1.208526	-2.125803
H	0.055922	1.977531	-1.463579
H	1.046931	1.033458	-2.348001
N	-0.446111	-1.329851	0.590475
O	-1.055871	-1.317799	1.660503
O	-0.165912	-2.343349	-0.043182
N	-0.480701	1.127333	0.721977
H	0.042413	1.236772	1.57936
H	-1.462182	1.023007	0.940847
Cl	3.313245	0.0	0.0
