15

C	-0.441602	-0.008778	-1.467714
C	0.0	0.0	0.0
F	-0.497209	1.335832	-1.859615
H	1.098704	0.0	0.0
H	-1.452706	-0.40929	-1.573271
N	0.452095	-0.695758	-2.339978
H	1.410158	-0.549545	-2.027557
H	0.254978	-1.685389	-2.286742
N	-0.37852	-1.307896	0.636295
O	-0.628953	-2.276359	-0.086469
O	-0.374938	-1.341786	1.862822
N	-0.625636	1.04886	0.77266
H	-0.504207	1.901691	0.242384
H	-0.105121	1.150329	1.635535
Cl	3.342123	0.0	0.0
