15

C	-0.436046	-0.217015	-1.445928
C	0.0	0.0	0.0
F	-0.173594	0.965877	-2.152483
H	1.089156	0.0	0.0
H	-1.517001	-0.370319	-1.5296
N	0.270637	-1.333873	-1.944683
H	1.266441	-1.226428	-1.766194
H	0.104969	-1.466212	-2.932655
N	-0.467412	-1.249133	0.736992
O	-1.685485	-1.313896	0.952186
O	0.347348	-2.098158	1.073146
N	-0.528301	1.184251	0.584202
H	-1.501081	1.055489	0.830968
H	0.012893	1.432632	1.400977
Cl	3.392496	0.0	0.0
