15

C	-0.47426	0.060072	-1.448792
C	0.0	0.0	0.0
F	-0.21451	-1.187874	-2.0373
H	1.089852	0.0	0.0
H	0.158936	0.779494	-1.97194
N	-1.839104	0.438252	-1.583862
H	-2.416541	-0.259683	-1.132212
H	-2.086335	0.512773	-2.561329
N	-0.516433	-1.283364	0.612966
O	-1.73332	-1.487881	0.521095
O	0.267602	-2.019849	1.194563
N	-0.475913	1.091343	0.796502
H	0.294635	1.697977	1.035985
H	-1.213275	1.592964	0.321724
Cl	3.39732	0.0	0.0
