15

C	-0.412732	-0.073544	-1.485011
C	0.0	0.0	0.0
F	-0.381836	1.237604	-1.961353
H	1.091487	0.0	0.0
H	-1.449011	-0.420029	-1.589513
N	0.455056	-0.876671	-2.277379
H	0.187092	-1.848651	-2.230743
H	1.411589	-0.787475	-1.940585
N	-0.495645	-1.30502	0.570369
O	-1.65856	-1.322919	0.977757
O	0.242676	-2.286716	0.511372
N	-0.510515	1.082374	0.776251
H	-1.344358	1.479015	0.369826
H	0.205061	1.792268	0.827953
Cl	3.364283	0.0	0.0
