15

C	-0.451788	0.032164	-1.449259
C	0.0	0.0	0.0
F	-1.856491	0.063918	-1.441265
H	1.09152	0.0	0.0
H	-0.151934	-0.879538	-1.963598
N	0.037571	1.177356	-2.14442
H	0.050471	1.950952	-1.485982
H	1.000878	0.994928	-2.409629
N	-0.44186	-1.320604	0.61725
O	-1.028201	-1.290946	1.699141
O	-0.179768	-2.344433	-0.007594
N	-0.476401	1.138366	0.707515
H	0.04962	1.258183	1.561456
H	-1.457408	1.039591	0.929875
Cl	3.311903	0.0	0.0
