16
Coordinates from ORCA-job run
  C   0.71838948140294      0.09151744319354      0.11987836898728
  C   -0.77588517161206     -0.19636476028289      0.40828955703485
  F   1.33627322640358     -1.12291170103314     -0.15464002867849
  H   -1.24863840814088      0.71287542586650      0.78083555802344
  C   1.28472468152773      0.60388871826687      1.38022528356905
  N   1.69815580005827      1.03121239331415      2.39306304756781
  C   0.98285452354612      1.03819191875174     -1.03157801726272
  H   0.64543056576352      0.57868161454283     -1.96126958466967
  H   0.45511253038838      1.98234516676244     -0.88928599051199
  H   2.05401492939541      1.22959292196243     -1.10352612613597
  N   -1.03151853006961     -1.29218301097313      1.27672630158213
  H   -0.98378598475207     -1.01924518187806      2.24773848127662
  H   -0.41018453689683     -2.06721063437924      1.09089224525020
  N   -1.43015967573130     -0.46403040620901     -0.92497283366376
  O   -1.30649198527874     -1.59509649087814     -1.38005141611720
  O   -1.98729144600443      0.48773658297313     -1.46832484625158
