16
Coordinates from ORCA-job run
  C   0.69851640064757      0.43514806122459      0.31302534805612
  C   -0.50793217557113     -0.50710523578219      0.46328401118824
  F   1.15235655158317      0.79221727020496      1.56917305871716
  H   -0.25534038277206     -1.23914598484558      1.23605142517933
  C   0.28401305821907      1.64826676186580     -0.41511659626956
  N   -0.05819131317511      2.56281735019229     -1.06760860068555
  C   1.84630562702142     -0.25056308984141     -0.40683515118365
  H   1.58973886205531     -0.48288679880810     -1.43749106271781
  H   2.71286352644324      0.41187388899134     -0.37797301792124
  H   2.08780801427015     -1.17860651878463      0.11441059389934
  N   -0.81987280484345     -1.14991143794004     -0.75976714542355
  H   -1.16037142694390     -0.48159620600383     -1.44249137971898
  H   -1.54209124886409     -1.84407777686514     -0.62347577981292
  N   -1.71596970538039      0.25853012919827      1.05957058565667
  O   -2.82217100385321     -0.09635423280205      0.66312381589727
  O   -1.48966197883660      1.12039381999571      1.89911989513911
