16
Coordinates from ORCA-job run
  C   0.70977878257242      0.07535900669159      0.19100785425223
  C   -0.81984766572594     -0.11825788443571      0.33840439567949
  F   1.29321654265453     -1.18544693884452      0.15530840362609
  H   -1.28469821667499      0.84912902298779      0.53150699172281
  C   1.15672869068341      0.73800892149158      1.42917775408096
  N   1.47451613757886      1.28671398620164      2.41762268258263
  C   1.14761620025142      0.84375169348225     -1.03789868748953
  H   0.89378623478457      0.27110497530863     -1.93052340999916
  H   0.65511025726374      1.81594956530668     -1.08653909389760
  H   2.22834795447331      0.98637702874197     -1.00821264488446
  N   -1.22446760963601     -1.07617852796770      1.30776647376059
  H   -0.62435480501159     -1.88946381698957      1.29973267706490
  H   -1.27188242908673     -0.67496655324498      2.23327085036898
  N   -1.33511092742199     -0.54192245032902     -1.01490472550577
  O   -1.21742910135241     -1.72785123756508     -1.30062365586268
  O   -1.78131004535259      0.34569320916447     -1.73909586549946
