16
Coordinates from ORCA-job run
  C   0.77673031719121      0.09422813416595      0.06888857591113
  C   -0.65922783548058     -0.16771044284766      0.55480658829897
  F   1.31201809939177     -1.12953492353075     -0.32078467380635
  H   -1.06833085057886      0.74233486566749      0.99680469781779
  C   1.54372037447018      0.57693733605221      1.22990524600784
  N   2.16074224093620      1.01712251889108      2.12625877223664
  C   0.89891528998514      1.05688029499898     -1.09446932337245
  H   0.42370047857564      2.01105755202696     -0.86370647173273
  H   1.95582269018160      1.22177446140149     -1.30537345339664
  H   0.42648388343397      0.62791632644620     -1.97815839168017
  N   -0.67098449005948     -1.24391423199403      1.46597498963049
  H   -1.58316799281460     -1.38880613174683      1.87599839222662
  H   -0.34877574053751     -2.09512882324268      1.02508315951596
  N   -1.52095678509640     -0.39068183986898     -0.69408440896370
  O   -2.06668511335330      0.60208723359724     -1.17068432482273
  O   -1.58000456624498     -1.53556233001667     -1.13245937387067
