16
Coordinates from ORCA-job run
  C   0.69098710345143      0.50158132692203      0.20206305688673
  C   -0.47132960615639     -0.46312364873082      0.54204787141036
  F   1.24299633334598      0.98748483083648      1.37599258218430
  H   -0.13835174209587     -1.09566394988655      1.37309804283989
  C   0.16136447511022      1.63556238589527     -0.57378084154705
  N   -0.27360682762115      2.50170783595387     -1.24070761336257
  C   1.79008880086702     -0.21381046054108     -0.55696923337741
  H   1.43030946822460     -0.58240430266378     -1.51407936593421
  H   2.14788006134212     -1.05101434378127      0.04784682066152
  H   2.61286955852562      0.48499855916300     -0.70930494642718
  N   -0.89382381303559     -1.18229765588219     -0.62096804086429
  H   -0.74165222011180     -2.17691739116156     -0.52015945758110
  H   -1.87722483919805     -1.00021021859313     -0.81094043700858
  N   -1.62246192943839      0.34965224823416      1.11926088389143
  O   -1.36217008889720      0.98896131078755      2.13387757092027
  O   -2.69887473431255      0.31549347344801      0.53972310730788
