16
Coordinates from ORCA-job run
  C   0.77880501934230      0.23448707556768      0.30217635698581
  C   -0.61281265469370     -0.32963161923507      0.63654204621780
  F   1.63970523976135     -0.51906916730147      1.11154130077323
  H   -0.76596709142450     -0.20684027214697      1.71419133757666
  C   0.85324249258424      1.63187469010627      0.75758211717154
  N   0.90406396368393      2.75072793065676      1.11049534303698
  C   1.24599722012863      0.09262318631245     -1.12999322512449
  H   0.68136426588308      0.74837538980091     -1.78805471855763
  H   2.30447649644383      0.35566277439216     -1.16629134850370
  H   1.11020575914932     -0.93548410079373     -1.46213851814297
  N   -0.74356875070694     -1.66573851450641      0.13196031154253
  H   0.08215215636049     -2.19711232679479      0.38237790922526
  H   -1.54566612689638     -2.12030374311414      0.55299462578093
  N   -1.70102504343524      0.52012581673600      0.02173585447435
  O   -1.64828648900838      0.74360602853504     -1.18223191669426
  O   -2.58368645717202      0.89569685178530      0.79211252423795
