12

C	-0.46319	0.009546	-1.438938
C	0.0	0.0	0.0
Br	-2.425777	0.119384	-1.572575
H	1.093327	0.0	0.0
H	-0.084738	0.900114	-1.940438
H	-0.396757	-0.836276	0.571227
C	-0.038998	-1.193708	-2.140563
N	0.270988	-2.163477	-2.726707
N	-0.428269	1.244972	0.683071
O	-0.773397	1.151186	1.858931
O	-0.370535	2.291161	0.039968
Br	3.395195	0.0	0.0
