12

C	-0.502061	0.005797	-1.434603
C	0.0	0.0	0.0
Br	0.028307	1.688911	-2.267156
H	1.091231	0.0	0.0
H	-0.013702	-0.786	-2.001195
H	-0.391875	0.830563	0.58383
C	-1.952167	-0.126768	-1.532411
N	-3.12105	-0.239253	-1.583975
N	-0.434269	-1.251949	0.675777
O	-0.610462	-1.203411	1.888753
O	-0.546645	-2.26088	-0.020647
Br	3.426097	0.0	0.0
