12

C	-0.471238	-0.026316	-1.433682
C	0.0	0.0	0.0
Br	-2.423604	0.20604	-1.558815
H	1.093695	0.0	0.0
H	-0.051655	0.860432	-1.913112
H	-0.344543	0.906037	0.496125
C	-0.089817	-1.187327	-2.228578
N	0.20074	-2.066717	-2.949906
N	-0.492776	-1.13261	0.81551
O	-0.715032	-2.202196	0.252887
O	-0.616044	-0.924495	2.020616
Br	3.392407	0.0	0.0
