12

C	-0.473224	-0.023354	-1.433336
C	0.0	0.0	0.0
Br	-2.427626	0.203345	-1.553988
H	1.093666	0.0	0.0
H	-0.057945	0.866873	-1.911387
H	-0.346355	0.903729	0.499001
C	-0.091523	-1.180938	-2.233087
N	0.193178	-2.048864	-2.971523
N	-0.493579	-1.137047	0.810565
O	-0.701865	-2.20745	0.243746
O	-0.629687	-0.931481	2.014179
Br	3.392144	0.0	0.0
