12

C	-0.593741	0.016012	-1.396047
C	0.0	0.0	0.0
Br	0.136533	-1.419869	-2.494824
H	1.087914	0.0	0.0
H	-1.666159	-0.175022	-1.351507
H	-0.350329	0.874922	0.55767
C	-0.365451	1.297303	-2.050175
N	-0.258609	2.34316	-2.575582
N	-0.513848	-1.178252	0.764853
O	0.165069	-1.565855	1.707671
O	-1.611127	-1.642809	0.441506
Br	3.476654	0.0	0.0
