12

C	-0.516184	0.020167	-1.424822
C	0.0	0.0	0.0
Br	0.168584	1.50239	-2.48928
H	1.088329	0.0	0.0
H	-0.099973	-0.86978	-1.904497
H	-0.330008	-0.918671	0.492424
C	-1.971049	-0.03404	-1.525756
N	-3.138522	-0.129345	-1.61208
N	-0.509001	1.109098	0.848836
O	-1.179414	1.998821	0.325276
O	-0.217549	1.044761	2.038236
Br	3.428144	0.0	0.0
