19

C	0.0	0.0	0.0
C	-0.562184	0.008228	-1.425449
Cl	1.806027	0.0	0.0
H	-1.654856	0.068573	-1.220189
C	-0.351183	1.261152	0.675485
N	-0.525479	2.286364	1.22272
C	-0.521772	-1.165675	0.820634
H	-1.621963	-1.092382	0.757869
H	-0.162259	-2.110106	0.409001
H	-0.190445	-1.081801	1.858369
C	-0.261261	-1.284798	-2.174741
H	-0.613348	-1.19276	-3.206494
H	0.813254	-1.496467	-2.205138
H	-0.778647	-2.137447	-1.731769
C	-0.116017	1.223961	-2.228605
H	-0.651411	1.243816	-3.182484
H	0.957808	1.19727	-2.441464
H	-0.34208	2.155239	-1.703781
H	-3.252726	0.0	0.0
