19

C	0.0	0.0	0.0
C	-0.592869	0.020792	-1.411196
Cl	1.806197	0.0	0.0
H	-1.681079	0.096233	-1.176565
C	-0.345457	1.255314	0.690089
N	-0.523006	2.274155	1.249757
C	-0.51728	-1.167192	0.82205
H	-1.617148	-1.093404	0.771774
H	-0.166267	-2.111418	0.40363
H	-0.173846	-1.088016	1.85626
C	-0.343887	-1.278409	-2.16812
H	0.723976	-1.518558	-2.231765
H	-0.871578	-2.115504	-1.707051
H	-0.728251	-1.179026	-3.188113
C	-0.154701	1.232603	-2.222993
H	0.912882	1.197342	-2.465253
H	-0.359244	2.164074	-1.689467
H	-0.71683	1.260603	-3.161564
H	-3.263652	0.0	0.0
