19

C	-0.443652	0.014013	-1.468373
C	0.0	0.0	0.0
Br	0.031581	-1.745527	-2.29709
H	1.101107	0.0	0.0
C	-1.93862	0.185576	-1.65958
H	-2.483264	-0.603271	-1.13691
H	-2.209895	0.168436	-2.718735
H	-2.222416	1.151945	-1.232777
C	0.409623	1.052379	-2.179575
H	0.104702	2.037885	-1.81678
H	1.450506	0.879859	-1.885672
H	0.286206	1.008782	-3.265289
N	-0.60162	-1.112293	0.760356
H	-0.07556	-1.142495	1.631066
H	-0.354492	-1.972864	0.280033
N	-0.428995	1.269999	0.594752
H	0.328316	1.590396	1.188199
H	-1.245601	1.087881	1.17115
F	2.733864	0.0	0.0
