19

C	-0.207342	1.9e-05	-1.500728
C	0.0	0.0	0.0
Br	-2.190438	6e-06	-1.941126
H	1.098599	0.0	0.0
C	0.421914	1.247242	-2.092876
H	0.393194	1.225518	-3.188959
H	1.460938	1.226788	-1.731354
H	-0.064271	2.14681	-1.719399
C	0.421901	-1.247196	-2.092896
H	0.393187	-1.225449	-3.188984
H	-0.0643	-2.146767	-1.719431
H	1.460927	-1.226753	-1.731365
N	-0.463292	-1.242829	0.609695
H	0.076918	-1.39161	1.452811
H	-1.441459	-1.158826	0.865234
N	-0.463301	1.242808	0.609722
H	0.076804	1.391508	1.452904
H	-1.441494	1.158845	0.865139
F	2.709226	0.0	0.0
