19

C	-0.185592	0.02715	-1.506817
C	0.0	0.0	0.0
Br	-2.122578	-0.032259	-2.037237
H	1.104646	0.0	0.0
C	0.432413	1.301471	-2.058189
H	-0.120803	2.189169	-1.745913
H	0.466328	1.283761	-3.150512
H	1.452009	1.319567	-1.650352
C	0.521452	-1.183718	-2.089631
H	0.061135	-2.104554	-1.735841
H	0.517619	-1.1576	-3.184047
H	1.54711	-1.123547	-1.701154
N	-0.524817	-1.206885	0.592861
H	-1.502684	-1.060725	0.832273
H	-0.000753	-1.412939	1.435306
N	-0.546333	1.208215	0.658843
H	0.08511	1.975042	0.438947
H	-0.406928	1.050124	1.653241
F	2.738493	0.0	0.0
