19

C	-0.447356	-0.06169	-1.466401
C	0.0	0.0	0.0
Br	-0.014223	1.676235	-2.327844
H	1.094374	0.0	0.0
C	0.404854	-1.111106	-2.166111
H	0.277115	-1.073534	-3.250328
H	0.112907	-2.097924	-1.793444
H	1.446762	-0.931339	-1.888165
C	-1.94258	-0.262798	-1.63465
H	-2.224001	-0.277523	-2.691108
H	-2.217312	-1.222131	-1.181411
H	-2.492333	0.544635	-1.140738
N	-0.356951	-1.298103	0.609354
H	-1.179022	-1.210089	1.1964
H	0.424287	-1.560534	1.197684
N	-0.506905	1.174197	0.703349
H	-1.276353	0.925168	1.313109
H	0.246328	1.530217	1.278588
F	2.701844	0.0	0.0
