19

C	-0.412824	0.057534	-1.479551
C	0.0	0.0	0.0
Br	-0.021355	-1.71079	-2.329674
H	1.101068	0.0	0.0
C	-1.890708	0.310693	-1.702325
H	-2.130158	1.280412	-1.262863
H	-2.490857	-0.457278	-1.210604
H	-2.134847	0.328653	-2.7692
C	0.516558	1.055761	-2.15622
H	0.264254	2.053487	-1.787091
H	0.409523	1.033846	-3.24177
H	1.540031	0.825666	-1.843825
N	-0.63366	-1.105308	0.735546
H	-0.435716	-1.964836	0.2311
H	-0.103981	-1.181773	1.601169
N	-0.402319	1.275998	0.606118
H	-1.209145	1.107322	1.197513
H	0.371708	1.587021	1.180919
F	2.747024	0.0	0.0
