19

C	-0.439462	-2.9e-05	-1.470289
C	0.0	0.0	0.0
Br	-0.043305	1.796273	-2.264705
H	1.105397	0.0	0.0
C	0.461385	-0.985681	-2.198818
H	0.192271	-1.991019	-1.863002
H	1.493155	-0.783348	-1.890648
H	0.344036	-0.920846	-3.284243
C	-1.923842	-0.238535	-1.673579
H	-2.512316	0.515704	-1.146383
H	-2.160269	-1.222386	-1.25909
H	-2.188005	-0.22148	-2.734623
N	-0.3974	-1.298425	0.565716
H	0.396257	-1.640221	1.095256
H	-1.173242	-1.137935	1.200047
N	-0.624014	1.0771	0.786997
H	-0.493095	1.945343	0.277009
H	-0.039113	1.170012	1.614712
F	2.735042	0.0	0.0
