19

C	-0.147752	-0.028713	-1.514829
C	0.0	0.0	0.0
Br	-2.099656	-0.137888	-2.056465
H	1.099616	0.0	0.0
C	0.453632	1.233375	-2.100021
H	0.465718	1.200076	-3.193826
H	1.476959	1.252644	-1.703559
H	-0.078819	2.116389	-1.750896
C	0.573277	-1.250697	-2.063105
H	0.600595	-1.238776	-3.1568
H	1.589239	-1.177939	-1.646248
H	0.108136	-2.182225	-1.737331
N	-0.461009	-1.198419	0.697747
H	0.284278	-1.885233	0.684334
H	-1.27306	-1.59365	0.230106
N	-0.528925	1.228375	0.569397
H	-0.029633	1.370583	1.440528
H	-1.500451	1.063018	0.817812
F	2.721822	0.0	0.0
