19

C	-0.135101	0.012753	-1.516936
C	0.0	0.0	0.0
Br	-2.082233	0.111015	-2.076487
H	1.099168	0.0	0.0
C	0.591012	1.227387	-2.071447
H	0.126221	2.163432	-1.75653
H	1.603661	1.154139	-1.649585
H	0.624486	1.205528	-3.163791
C	0.471371	-1.254203	-2.087909
H	1.493012	-1.266506	-1.686899
H	-0.058308	-2.135378	-1.732932
H	0.489097	-1.232319	-3.181989
N	-0.531777	-1.221371	0.580292
H	-0.029508	-1.359521	1.449624
H	-1.50136	-1.052118	0.831796
N	-0.464977	1.205746	0.68318
H	0.279183	1.891405	0.664971
H	-1.27456	1.596339	0.208965
F	2.723318	0.0	0.0
