19

C	-0.148844	0.039874	-1.517528
C	0.0	0.0	0.0
Br	-2.079099	0.216887	-2.080334
H	1.106099	0.0	0.0
C	0.627162	1.231655	-2.059105
H	0.661205	1.217424	-3.152596
H	0.189513	2.178831	-1.736888
H	1.63684	1.126851	-1.634475
C	0.406675	-1.250591	-2.089574
H	0.417926	-1.235666	-3.181783
H	-0.170372	-2.106497	-1.738655
H	1.432614	-1.306013	-1.705677
N	-0.561844	-1.226613	0.580516
H	0.217287	-1.849806	0.756728
H	-0.923661	-0.950662	1.483091
N	-0.499847	1.169104	0.703449
H	-1.276485	1.579809	0.196571
H	0.246326	1.849749	0.757626
F	2.737134	0.0	0.0
