19

C	-0.381365	-0.042931	-1.493245
C	0.0	0.0	0.0
Br	-0.022225	1.752652	-2.29727
H	1.095382	0.0	0.0
C	0.583431	-1.009343	-2.166811
H	1.593684	-0.7646	-1.818943
H	0.335074	-2.018127	-1.822931
H	0.507118	-0.970968	-3.257388
C	-1.841843	-0.354461	-1.768097
H	-2.057054	-1.329366	-1.325159
H	-2.508543	0.389933	-1.320888
H	-2.041026	-0.386319	-2.84311
N	-0.419308	-1.302765	0.570571
H	-1.061609	-1.08444	1.324999
H	0.418197	-1.691602	0.994831
N	-0.554703	1.10998	0.771228
H	0.220483	1.725632	0.989076
H	-1.199637	1.652455	0.208374
F	2.726035	0.0	0.0
