16
Coordinates from ORCA-job run
  C   -0.67142206797278     -0.30845818555461      0.01141477170257
  C   0.74924694352200     -0.73224040601097      0.36958658039929
  Br  -1.87831380954002     -1.73804135928023      0.87369371661236
  H   0.93265512208825     -1.71781204935483     -0.07211760379747
  H   0.80789231350393     -0.86496379508266      1.45252726127677
  C   -1.10253840529999      1.00352134615318      0.63857431234902
  H   -2.16206816799092      1.19008391985400      0.45182166316321
  H   -0.52363153745170      1.81850569264493      0.19801704577328
  H   -0.94606455765007      0.98606946574009      1.71744172910557
  N   -0.84713859344152     -0.27060782580825     -1.39032058961387
  H   -0.62664990989713     -1.15891487231554     -1.82323095023539
  H   -1.78742617490624     -0.00003089320781     -1.64920286297750
  C   1.80706704727150      0.26248422861242     -0.10710791095660
  H   2.80547221769294     -0.13714211216661      0.08647069763558
  H   1.72948639139433      1.21591717362530      0.41895070952546
  H   1.71243318867742      0.45262967215158     -1.17651856996226
