16
Coordinates from ORCA-job run
  C   -0.57191925845004     -0.09914391293959      0.15262524011996
  C   0.88282410817964      0.35941448481186      0.20457290910656
  Br  -0.92377036845373     -1.30527543561970      1.68771637117903
  H   1.03573982464789      0.90538035221146      1.13999298377736
  H   0.99915945053582      1.09378074556630     -0.60599777275951
  C   -1.52592113937729      1.07919520402635      0.31440915174831
  H   -1.34846429224369      1.61622626840202      1.24833691276217
  H   -2.56375936568897      0.73924602573970      0.30350930598716
  H   -1.37716194413771      1.76986719815081     -0.52316952213175
  N   -0.78955908042962     -0.88580291511692     -1.04232314774527
  H   -0.54146032194466     -0.32623133211820     -1.85303380633424
  H   -1.76621042776033     -1.14617142214637     -1.12112263915970
  C   1.92380804839790     -0.74206043538767      0.05063304302503
  H   1.76760356850850     -1.30295553834994     -0.87046934182692
  H   1.87187650395548     -1.44390488682972      0.88359248263972
  H   2.92721469426082     -0.30956440040037      0.03172782961210
