16
Coordinates from ORCA-job run
  C   -0.58700438385620     -0.01266269673841      0.09421051785089
  C   0.87722700989999      0.37813303301632      0.25498034905786
  Br  -1.00360670565808     -1.33267102187343      1.62678702380269
  H   1.03229052425482      1.23089119161548     -0.41749762478239
  H   1.02215853043570      0.73666062185804      1.27693870113675
  C   -1.52000140168613      1.15978363112692      0.32903559659248
  H   -2.56442903571514      0.84332820472993      0.28765968717278
  H   -1.34468986104047      1.90360881072814     -0.45358671712057
  H   -1.33897252598947      1.60947116203431      1.30517979158165
  N   -0.83297173274031     -0.59547561656631     -1.16749852727790
  H   -1.81246251745912     -0.81697980657114     -1.29425147552831
  H   -0.28574954798526     -1.43233644359276     -1.31879685245635
  C   1.88843788279576     -0.71430403199168     -0.06977175771010
  H   1.70347847064886     -1.61195641402117      0.52305542242067
  H   2.89959983532480     -0.36745446855179      0.15354808548389
  H   1.86769545877025     -0.97703615520244     -1.12999222022402
