17

C	-0.492518	0.005666	-1.435545
C	0.0	0.0	0.0
F	0.248293	-0.703544	-2.272725
H	1.093928	0.0	0.0
N	-1.939094	-0.454292	-1.568621
O	-2.648117	-0.305908	-0.579739
O	-2.276413	-0.893974	-2.658028
N	-0.501153	1.451329	-1.947748
O	-1.569929	2.04879	-1.923088
O	0.580971	1.86296	-2.331665
N	-0.3781	-1.340647	0.615987
O	-0.461875	-2.305186	-0.140572
O	-0.524427	-1.367021	1.832064
N	-0.43882	1.125702	0.729176
H	0.206287	1.316805	1.482208
H	-1.382001	1.020137	1.074905
Br	3.332658	0.0	0.0
