17

C	-0.67834	0.00548	-1.352684
C	0.0	0.0	0.0
F	-2.002552	-0.138851	-1.211739
H	1.089939	0.0	0.0
N	-0.428657	1.355989	-2.02293
O	0.738147	1.596818	-2.288371
O	-1.411728	2.051835	-2.230294
N	-0.194813	-1.009886	-2.372574
O	-1.045684	-1.384932	-3.172701
O	0.986927	-1.303871	-2.33774
N	-0.409554	-1.30315	0.682477
O	-0.581264	-1.263691	1.896361
O	-0.511089	-2.304744	-0.021538
N	-0.420364	1.157304	0.706161
H	-1.344707	1.060036	1.105858
H	0.252811	1.377386	1.428055
Br	3.362175	0.0	0.0
