14
Coordinates from ORCA-job run
  C   0.69025263628950     -0.38030540138199      0.01794739031487
  C   -0.49066933029996      0.50235593350034     -0.43964113015006
  Cl  1.01361518267387     -1.55346951191262     -1.34475633420710
  H   -0.17617260635617      1.07298932672042     -1.31674896400261
  C   0.37178986170212     -1.16857802777354      1.20955511771990
  N   0.20374527244162     -1.79115567263403      2.19175448154718
  N   1.77451004480295      0.48634371755840      0.30763110839506
  H   2.52702748117304      0.00932377417331      0.78783148818552
  H   2.13006909110553      0.93454008652477     -0.52848495702300
  C   -0.92415063648649      1.38299591191672      0.63608289646173
  N   -1.28757914674547      2.09914727259942      1.49330490613898
  N   -1.66457851982672     -0.33298599341360     -0.89614187564250
  O   -2.00185444561846     -0.19582542937222     -2.06566876529529
  O   -2.16700488485536     -1.06437598650537     -0.05266536244268
