14
Coordinates from ORCA-job run
  C   0.72003366827328     -0.49357734509830     -0.00396449912022
  C   -0.43031550315118      0.42585751228316     -0.51181300471682
  Cl  1.04508364158094     -1.66440857100250     -1.31623183339486
  H   -0.09900953327933      0.89811797328685     -1.43936850678370
  C   0.31908298213035     -1.21723122266954      1.20617230730272
  N   0.05487792609367     -1.77182792110157      2.20782794885798
  N   1.92394832737670      0.22810137104426      0.27693198860770
  H   2.23324390073456      0.77611590606603     -0.51660519488049
  H   1.83696483682363      0.80186680697004      1.10745087518059
  C   -0.74748815467291      1.41831523287476      0.50518428283755
  N   -0.94387852605066      2.22288307202530      1.33852537564169
  N   -1.67692926259842     -0.35102415221491     -0.86600867159696
  O   -1.94572893673744     -0.42326697476783     -2.05910797067961
  O   -2.28988536652319     -0.84892168769575      0.07100690274444
