14
Coordinates from ORCA-job run
  C   0.60171883820181     -0.46114868956283      0.16532871683986
  C   -0.60848690460946      0.50706213291143      0.13379297296687
  Cl  0.14881075466761     -1.89532142686690     -0.88597084621681
  H   -0.28597125377864      1.44687432584609      0.59379894404966
  C   0.74018577588936     -0.97731383859434      1.53044536092248
  N   0.88224066190549     -1.37831324638763      2.62574954533169
  N   1.79525375130139      0.20012556337608     -0.19903192627015
  H   2.59611929552063     -0.41468877449139     -0.12606508724358
  H   1.73376743612308      0.60724282254523     -1.12361228214714
  C   -1.77142109390638     -0.03624051667007      0.81653892980989
  N   -2.69638336123807     -0.44901944795181      1.41145013687388
  N   -0.96825669984810      0.85707885878113     -1.30259020062200
  O   -0.06666411635728      1.37712617615915     -1.95210136807359
  O   -2.10091308387143      0.61553606090584     -1.68773289622106
