14

C	-0.268595	-0.050599	-1.452603
C	0.0	0.0	0.0
Br	-2.184043	-0.25707	-2.003342
H	1.092959	0.0	0.0
H	0.251895	-0.865049	-1.950371
H	-0.403136	0.915771	0.43535
N	0.192464	1.197058	-2.155332
O	0.820554	1.037992	-3.199653
O	-0.105038	2.278128	-1.659202
C	-0.447355	-1.256123	0.726659
H	-0.07903	-1.221637	1.75514
H	-1.534314	-1.391817	0.745021
H	0.005236	-2.136577	0.260255
F	2.60464	0.0	0.0
