14

C	-0.548463	0.093439	-1.398645
C	0.0	0.0	0.0
Br	0.299164	1.492288	-2.451002
H	1.091676	0.0	0.0
H	-1.618557	0.287459	-1.459013
H	-0.368976	-0.950198	0.409668
N	-0.378963	-1.225604	-2.106837
O	-1.396199	-1.925376	-2.130756
O	0.718506	-1.547847	-2.534332
C	-0.477203	1.164437	0.857029
H	-0.112981	1.023956	1.877176
H	-0.042433	2.096942	0.490984
H	-1.569199	1.275195	0.891889
F	2.645904	0.0	0.0
