14

C	-0.384867	0.094888	-1.449232
C	0.0	0.0	0.0
Br	0.128419	-1.449992	-2.507239
H	1.093039	0.0	0.0
H	0.091402	0.953429	-1.916142
H	-0.318843	0.952656	0.447616
N	-1.868542	0.324283	-1.620101
O	-2.643813	-0.624841	-1.554287
O	-2.207935	1.506632	-1.714027
C	-0.563935	-1.181204	0.769169
H	-0.160346	-1.152508	1.784736
H	-0.233716	-2.120003	0.319976
H	-1.657651	-1.196435	0.829798
F	2.637381	0.0	0.0
