14

C	-0.589038	0.01121	-1.385397
C	0.0	0.0	0.0
Br	0.118673	1.448162	-2.486842
H	1.092082	0.0	0.0
H	-1.673352	0.117512	-1.418566
H	-0.342453	0.925236	0.48003
N	-0.343966	-1.307819	-2.076873
O	0.76623	-1.562448	-2.517676
O	-1.313509	-2.074408	-2.081198
C	-0.467628	-1.217236	0.79519
H	-1.554965	-1.36414	0.808959
H	-0.002802	-2.123556	0.400445
H	-0.113996	-1.108626	1.823671
F	2.644606	0.0	0.0
