18

C	-0.449731	-0.028875	-1.457199
C	0.0	0.0	0.0
Br	-0.347813	1.653686	-2.442318
H	1.091331	0.0	0.0
C	0.382376	-1.055736	-2.19041
H	1.431914	-0.797885	-2.01562
H	0.186646	-2.034019	-1.753062
H	0.147086	-1.067934	-3.252496
N	-1.933757	-0.394394	-1.511054
O	-2.311614	-1.156589	-2.395474
O	-2.655359	0.114118	-0.657049
N	-0.406434	-1.237879	0.5991
H	-1.239983	-1.090908	1.155057
H	0.348205	-1.532936	1.21159
N	-0.410784	1.185832	0.803198
O	-1.06721	0.997334	1.834789
O	0.025115	2.281374	0.449177
H	2.613222	0.0	0.0
