18

C	-0.461037	0.041237	-1.436021
C	0.0	0.0	0.0
Br	0.432191	1.451266	-2.45015
H	1.090857	0.0	0.0
C	-0.141198	-1.274149	-2.12401
H	-0.381816	-1.206621	-3.186036
H	0.927077	-1.45996	-1.987991
H	-0.698085	-2.077113	-1.642131
N	-1.976276	0.24177	-1.550575
O	-2.449672	0.571253	-2.630873
O	-2.632596	-0.066047	-0.556392
N	-0.28543	-1.237905	0.662607
H	-1.149219	-1.178531	1.185276
H	0.486971	-1.417073	1.29915
N	-0.437484	1.17122	0.777886
O	-0.866539	2.172203	0.189781
O	-0.280475	1.100138	2.003754
H	2.513373	0.0	0.0
