18

C	-0.489394	0.067716	-1.439458
C	0.0	0.0	0.0
Br	-2.402878	0.594261	-1.544919
H	1.090975	0.0	0.0
C	0.338698	0.946269	-2.349624
H	0.138582	1.991057	-2.13046
H	1.390927	0.734047	-2.1327
H	0.106212	0.732517	-3.395455
N	-0.383308	-1.373089	-1.953877
O	0.760411	-1.70965	-2.242195
O	-1.375522	-2.08224	-2.021256
N	-0.417476	-1.174101	0.67787
H	0.295908	-1.403592	1.36165
H	-1.299388	-1.035223	1.15414
N	-0.32841	1.255421	0.720667
O	-0.78318	1.164631	1.868845
O	-0.030562	2.323398	0.178479
H	2.533997	0.0	0.0
