18

C	-0.43416	-0.029918	-1.464354
C	0.0	0.0	0.0
Br	-0.30305	1.653822	-2.443769
H	1.091348	0.0	0.0
C	0.397294	-1.06711	-2.183035
H	1.447265	-0.815311	-2.00071
H	0.190207	-2.041877	-1.742603
H	0.172468	-1.083501	-3.24752
N	-1.919382	-0.381627	-1.533488
O	-2.29261	-1.152809	-2.412009
O	-2.647005	0.146345	-0.696506
N	-0.426535	-1.228728	0.601776
H	0.314474	-1.529719	1.226618
H	-1.266352	-1.06681	1.143467
N	-0.413605	1.197831	0.787666
O	-1.107676	1.02619	1.79835
O	0.049746	2.283976	0.440256
H	2.629256	0.0	0.0
