18

C	-0.49453	0.07477	-1.436772
C	0.0	0.0	0.0
Br	-2.422984	0.561852	-1.5246
H	1.090964	0.0	0.0
C	0.304897	0.984202	-2.340463
H	1.364667	0.804044	-2.131279
H	0.073567	2.020335	-2.113144
H	0.07508	0.771239	-3.387498
N	-0.36678	-1.356135	-1.969663
O	-1.339739	-2.093014	-2.001711
O	0.773388	-1.658271	-2.307766
N	-0.406505	-1.18066	0.674067
H	0.307063	-1.403644	1.360959
H	-1.294533	-1.051875	1.144477
N	-0.332456	1.250653	0.733894
O	-0.818303	1.15175	1.868191
O	-0.016225	2.320372	0.209522
H	2.543368	0.0	0.0
