18

C	-0.556898	-0.010593	-1.439596
C	0.0	0.0	0.0
Br	-0.02255	-1.688533	-2.29165
H	1.089827	0.0	0.0
C	-2.063954	0.11122	-1.530304
H	-2.390404	1.054882	-1.094871
H	-2.388135	0.072327	-2.571115
H	-2.529777	-0.713864	-0.989372
N	0.087749	1.106461	-2.27301
O	1.262987	0.986855	-2.577955
O	-0.640221	2.061044	-2.548856
N	-0.372256	-1.094189	0.819243
H	-1.239761	-1.549998	0.582377
H	0.400603	-1.748788	0.83276
N	-0.460963	1.287407	0.598287
O	-1.350017	1.281709	1.455717
O	0.101369	2.302304	0.174028
H	2.617568	0.0	0.0
