19
Coordinates from ORCA-job run
  C   -0.64657459347126      0.32831496402954     -0.00644705083471
  C   0.68748223052130     -0.39990033196905     -0.24449198647771
  Cl  -0.41928259435637      2.09017159651174     -0.39105553803158
  H   0.45332092319868     -1.45980041593764     -0.07160978671193
  C   -1.09468351332229      0.24331983917028      1.44423275688068
  H   -0.40904360480752      0.76115401215957      2.11430433244292
  H   -2.08204310883268      0.69530858820692      1.55667637530232
  H   -1.15902703860464     -0.80697264788054      1.74737889941757
  C   -1.72517818925162     -0.19909180826304     -0.93895122698969
  H   -2.65399283815704      0.35736096237104     -0.79827192739049
  H   -1.40450200154806     -0.12327037523645     -1.97549605939495
  H   -1.91324975512883     -1.25313274522022     -0.70927667629333
  C   1.79970523229202      0.00403846378968      0.72413943197800
  H   1.99922096316246      1.07624575728599      0.65780146528896
  H   2.71740758448006     -0.52775605026034      0.45895766861798
  H   1.56539023909379     -0.24327313939162      1.76172920365819
  N   1.06288613629802     -0.28850356396986     -1.65288771082695
  H   1.38190543746793      0.65665330034186     -1.83751154329800
  H   1.84025849096604     -0.91086640573787     -1.84022062733728
