19
Coordinates from ORCA-job run
  C   -0.63631000740133      0.08849659107125      0.49697024863067
  C   0.75791773552963     -0.45823128781106      0.12442020350529
  Cl  -0.58129417346893      0.60436379785648      2.23368717013954
  H   0.93263657614357     -1.30814336901108      0.79465957081989
  C   -1.68454723497224     -1.00828718395317      0.39866744072701
  H   -1.41416568294538     -1.85442895528177      1.03497023221968
  H   -2.65676427441948     -0.63302283195827      0.72480972492912
  H   -1.75008314727330     -1.35181689396742     -0.63348153150137
  C   -1.03278503546324      1.29743110895399     -0.33343396532759
  H   -1.05956901164161      1.01847703077374     -1.39030491651044
  H   -0.34180448297340      2.13019960336466     -0.19589789570291
  H   -2.02889025506597      1.63846117092426     -0.04482523816416
  C   1.90508636355348      0.53496206815484      0.29743012517281
  H   1.96103110306845      0.93950056172353      1.30802551413961
  H   1.80551366687554      1.36959994231009     -0.40256178347691
  H   2.84962861008553      0.03088618314773      0.07664374339100
  N   0.67927010387711     -0.98618766951535     -1.24459009012141
  H   0.98867332152461     -0.27821161868431     -1.90086553673256
  H   1.30545582496696     -1.77504824809813     -1.34432301613727
