19
Coordinates from ORCA-job run
  C   -0.76564317559511     -0.25445087726307     -0.02170273774669
  C   0.73338923151210     -0.56305221778368     -0.17896039946442
  Cl  -1.65441354221200     -1.64804740830838     -0.79153515940897
  H   0.88548603193963     -1.54959770853876      0.28999216390245
  C   -1.19822799942988      1.00830739852219     -0.74580282349671
  H   -0.72844948029290      1.87980711462970     -0.28194804013812
  H   -0.90266953542898      0.97341567023579     -1.79267374606734
  H   -2.28141726380926      1.12707951278562     -0.67657859200731
  C   -1.18895927542686     -0.23563538471326      1.43833495170968
  H   -2.27726208800991     -0.20075264052909      1.51297565969198
  H   -0.83839575788193     -1.12889857665143      1.96104398700773
  H   -0.78689719705521      0.64875382083438      1.93787014708044
  C   1.61803259636039      0.44722133487504      0.54362460685481
  H   1.42981573938523      0.46871804694069      1.61743389651902
  H   2.66756047563220      0.17079778555778      0.40548412703185
  H   1.48472241595848      1.44813556343464      0.12954384840652
  N   1.09816248632314     -0.55485075200442     -1.59359447006187
  H   2.09190142530319     -0.73275778889017     -1.68122916100242
  H   0.61426491272769     -1.30519289313358     -2.07327825881061
