19
Coordinates from ORCA-job run
  C   -0.64429386593641      0.33648804157225      0.05898038541644
  C   0.73978963010676     -0.30119990244572     -0.17424092233953
  Cl  -0.52254356627310      2.13030106714044     -0.09060922350692
  H   0.60193922076936     -1.35595914633061      0.12407310217562
  C   -1.17208602995975      0.02970288426967      1.45384989772680
  H   -0.52274758840419      0.42901563195641      2.23298312195943
  H   -2.16070648516866      0.47365105404372      1.58415520348378
  H   -1.25989145345302     -1.05296928702683      1.58887309211985
  C   -1.63423163466377     -0.13484901125179     -0.99600571213827
  H   -1.70515049119936     -1.22852355675710     -0.97639025795462
  H   -2.62570985540821      0.27670106833469     -0.79800879550577
  H   -1.31863268022052      0.18943398525915     -1.98699693848900
  C   1.85142822168570      0.28619484819773      0.68389033449235
  H   2.09173381750428      1.29294619825075      0.33958958864510
  H   2.74776763239663     -0.33471899945664      0.59647947308453
  H   1.58364987450967      0.33346765370583      1.73917937687813
  N   1.12446872419273     -0.17885635896080     -1.57853847255075
  H   2.12773007406586     -0.27986999441200     -1.66937382791825
  H   0.69748645545599     -0.91095617608915     -2.13188942557893
