19
Coordinates from ORCA-job run
  C   -0.59643949038087      0.29758622665341     -0.00749151286532
  C   0.78579622660469     -0.38020650653291     -0.18397695561642
  Cl  -0.43483672695132      2.06285134266011     -0.38839721232092
  H   0.59378585003836     -1.44481234000166      0.01224519750280
  C   -1.10905093240539      0.18513400875390      1.42053728467282
  H   -2.12362277147001      0.58256515087209      1.49177784620375
  H   -1.12810334898185     -0.86748960130704      1.72200996945748
  H   -0.48168866171155      0.73752309960705      2.11888485159638
  C   -1.61761344200074     -0.27234799168800     -0.98099777193074
  H   -2.58763969810795      0.20756373836847     -0.83915047752546
  H   -1.73322434287353     -1.34692413820092     -0.80491618071038
  H   -1.31796590288989     -0.11394474219991     -2.01710458596649
  C   1.83374625606980      0.09853727872669      0.81371575887797
  H   1.55359829449854     -0.11312894839338      1.84626388882337
  H   2.77095864730510     -0.41477069051222      0.59677631350008
  H   2.00170729736503      1.17375695141420      0.71505679463176
  N   1.35979190300575     -0.30494540157016     -1.52049806615763
  H   1.46886124021496      0.66602034409542     -1.79121816257335
  H   0.76193960267086     -0.75296778074514     -2.20251697959969
