19
Coordinates from ORCA-job run
  C   -0.69509687856631     -0.30013744916937      0.04822370689182
  C   0.79955590870221     -0.45424392670423     -0.33571548065523
  Cl  -1.25898506000006     -1.91802446114148      0.64244843534325
  H   0.84761140385309     -1.32585388554682     -0.99945829127123
  C   -1.54715373318355      0.02946801723148     -1.16931540043774
  H   -2.60724795974918     -0.03914153610708     -0.91923484823977
  H   -1.34429925686005     -0.66738165605099     -1.98675432149469
  H   -1.34818194299764      1.04819936647730     -1.51074229372409
  C   -0.93285512236876      0.70411851207385      1.16394856168033
  H   -0.54742231116878      1.68648576019572      0.87340597704568
  H   -2.00249211959085      0.80609342096909      1.35817876227443
  H   -0.44876310563942      0.39709889362215      2.09098768419041
  C   1.71033255602427     -0.70571623881879      0.85858672064219
  H   2.70567674264804     -0.96260217126322      0.49410548515747
  H   1.34320957271727     -1.51463280658792      1.49023331756344
  H   1.80611123732693      0.19646092965832      1.46975337074537
  N   1.34725426164464      0.67093355657028     -1.08515683936395
  H   1.32903750792336      1.52101041520156     -0.53483625722314
  H   0.84270829928480      0.83086525939016     -1.94665828912456
