19
Coordinates from ORCA-job run
  C   -0.73244307377915     -0.28517732649066     -0.01971974990949
  C   0.77313796744933     -0.63224873490338     -0.12742484469019
  Cl  -1.63029114301770     -1.68060406638272     -0.76545176418811
  H   0.88702432447716     -1.60670966779243      0.36309452035370
  C   -1.12658798640445      0.95930293145524     -0.79623460997873
  H   -0.62375650863731      1.83814087065019     -0.38345975250421
  H   -2.20400684673444      1.12054748303869     -0.72714129238787
  H   -0.86971778330523      0.86700247058900     -1.85212974449653
  C   -1.19181588552062     -0.20009122745848      1.42761201000539
  H   -2.28128329351703     -0.15497967502646      1.47933342716254
  H   -0.79206868001331      0.69982137207560      1.90060048534674
  H   -0.85892297463835     -1.07387548078909      1.99318288027240
  C   1.65494218668759      0.37307987772469      0.60728956601144
  H   2.69422239239153      0.06401005057270      0.48676910418514
  H   1.43262280606475      0.42326530823343      1.67332553247392
  H   1.55608741154028      1.37794611164976      0.18578373641374
  N   1.29291765049419     -0.78397385157936     -1.47827607143579
  H   1.30984737600618      0.11014194630714     -1.95435145282419
  H   0.71109206045657     -1.41659839187385     -2.01380197980991
