17

C	0.0	0.0	0.0
C	-0.419674	0.000117	-1.459678
Cl	1.740258	0.0	0.0
H	0.046398	-0.856585	-1.944842
N	-0.519148	1.140521	0.942858
O	0.270711	1.800377	1.579525
O	-1.749293	1.217424	0.970583
N	-0.566426	-1.271334	0.618001
O	-0.513022	-1.284745	1.873104
O	-0.516635	-2.292734	-0.115338
N	0.01073	1.254685	-2.162227
O	0.032295	2.282988	-1.492983
O	0.217715	1.151047	-3.36837
N	-1.905237	-0.115892	-1.811661
O	-2.188266	-1.1542	-2.417259
O	-2.647287	0.859796	-1.621826
H	-1.560162	0.0	0.0
