16

C	-0.508702	-0.00922	-1.487103
C	-0.108514	0.195136	-0.045729
F	-0.463758	1.205641	-2.159953
H	0.9194	0.569781	-0.05784
H	-0.772303	0.956702	0.372315
C	0.312823	-1.027724	-2.216416
H	0.016633	-1.07699	-3.265609
H	0.18537	-1.997374	-1.742489
H	1.362217	-0.746902	-2.115043
N	-1.992832	-0.379822	-1.52814
O	-2.332616	-1.427449	-2.072133
O	-2.767232	0.430172	-1.023061
N	-0.188528	-1.083594	0.641628
H	0.82181	-1.379866	0.717022
H	-0.505369	-0.92084	1.590673
H	2.459002	-1.253573	0.593889
