16

C	-0.407621	-0.006096	-1.376936
C	-0.071958	-0.008882	0.091043
F	-0.079169	1.216414	-1.910022
H	1.02034	-0.031081	0.13928
H	-0.459166	-0.934409	0.521567
C	0.278537	-1.095561	-2.15269
H	1.350745	-1.02442	-1.904785
H	0.10157	-0.95375	-3.22251
H	-0.097425	-2.070267	-1.840039
N	-1.925457	-0.118322	-1.540821
O	-2.529291	0.767435	-2.134084
O	-2.435988	-1.132205	-1.070069
N	-0.732365	1.13474	0.736956
H	-0.542753	1.079172	1.730825
H	-0.266931	1.972921	0.407391
H	2.958205	-0.560016	-0.515828
