16

C	-0.381483	0.011449	-1.406076
C	-0.025183	0.022915	0.056755
F	-0.119061	1.247991	-1.942835
H	1.074538	0.049184	0.087787
H	-0.36339	-0.91994	0.49118
C	0.344844	-1.04401	-2.192209
H	0.023524	-2.035839	-1.872745
H	0.144147	-0.913049	-3.259187
H	1.41583	-0.918139	-1.961811
N	-1.894897	-0.172282	-1.548891
O	-2.349491	-1.211786	-1.076566
O	-2.549035	0.686818	-2.127802
N	-0.725998	1.13533	0.714404
H	-0.509438	1.092529	1.703544
H	-0.307565	1.993129	0.372026
H	3.017182	-0.360997	-0.588686
