16

C	-0.557117	0.103804	-1.549641
C	0.18209	0.129643	-0.213721
F	-0.054733	-0.87814	-2.352826
H	1.260578	0.1239	-0.431329
H	-0.065084	1.0837	0.267359
C	-2.048629	-0.075629	-1.441667
H	-2.493665	-0.133984	-2.438267
H	-2.199523	-1.010029	-0.902289
H	-2.494703	0.749064	-0.887147
N	-0.276898	1.416926	-2.270658
O	-0.772888	2.424599	-1.764983
O	0.428151	1.405118	-3.27404
N	-0.152974	-1.043297	0.562684
H	0.786202	-1.472419	0.83504
H	-0.585077	-0.750748	1.431671
H	2.279539	-1.717659	1.165819
