16

C	-0.466912	0.113759	-1.487449
C	-0.069833	0.186101	-0.032421
F	-0.241341	1.343161	-2.094269
H	0.999653	0.406558	-0.011617
H	-0.624881	1.014826	0.415487
C	0.219198	-0.970614	-2.260421
H	-0.043868	-1.935492	-1.835057
H	-0.066815	-0.929682	-3.312777
H	1.295377	-0.838457	-2.139272
N	-1.986811	-0.044297	-1.564308
O	-2.650633	0.839815	-1.027206
O	-2.458199	-1.007154	-2.163947
N	-0.34733	-1.100016	0.58645
H	-0.666208	-0.940223	1.53524
H	0.608857	-1.539565	0.667861
H	2.250955	-1.639727	0.581133
