11

C	0.0	0.0	0.0
C	-0.577561	-0.184465	-1.39691
Cl	1.782119	0.0	0.0
H	0.164794	-0.665638	-2.040399
H	-0.330489	0.947704	0.417132
H	-0.307734	-0.806135	0.662685
H	-1.45041	-0.83712	-1.304518
N	-0.930021	1.122394	-1.960577
H	-1.133657	0.999464	-2.946926
H	-1.822093	1.362268	-1.52782
Br	-3.763407	0.0	0.0
