11

C	0.0	0.0	0.0
C	-0.582557	0.182823	-1.392128
Cl	1.782122	0.0	0.0
H	0.119871	0.747536	-2.012367
H	-0.333479	-0.944159	0.423216
H	-0.307753	0.809358	0.659208
H	-1.505389	0.75853	-1.280408
N	-0.831473	-1.127749	-2.002824
H	-1.707425	-1.445654	-1.591981
H	-1.032832	-0.985314	-2.9848
Br	-3.800591	0.0	0.0
