11

C	0.0	0.0	0.0
C	-0.449181	-0.182278	-1.43612
Cl	1.792511	0.0	0.0
H	-0.121076	-1.176717	-1.776755
H	-0.347424	-0.808087	0.638638
H	-0.334813	0.961759	0.380138
H	-1.539763	-0.159864	-1.422293
N	0.052587	0.90723	-2.276866
H	0.992054	0.70487	-2.594012
H	-0.539444	1.001453	-3.090193
Br	-3.770633	0.0	0.0
