16

C	-0.494183	-0.001262	-1.431667
C	0.0	0.0	0.0
Br	0.215908	-1.476827	-2.481032
H	1.090299	0.0	0.0
N	-2.029207	-0.111868	-1.562262
O	-2.575639	0.579502	-2.408281
O	-2.558355	-0.919598	-0.811912
C	-0.063102	1.223298	-2.092298
N	0.306739	2.206086	-2.620876
N	-0.442807	-1.163692	0.81676
O	-0.00511	-2.253306	0.475617
O	-1.151271	-0.952096	1.799092
N	-0.487393	1.223304	0.683548
O	0.10332	1.551589	1.704535
O	-1.454505	1.815152	0.189634
F	2.413901	0.0	0.0
