16
Coordinates from ORCA-job run
  C   0.78647713693137     -0.07540442920126      0.21731270883671
  C   -0.66968795717735      0.34791145717122      0.42739748227080
  F   1.60277767460912      0.67234512096318      1.06211376318957
  H   -0.92564631596888      0.13179873430986      1.47696143433732
  N   0.91017340608702     -1.47261520499742      0.54589601463201
  H   1.83592654040668     -1.79910929471059      0.29292610908561
  H   0.80401619902866     -1.59003405651220      1.54857229211904
  N   1.17752102260036      0.24489850027577     -1.12025869883447
  H   0.58938762736160     -0.26921156157169     -1.76294814322667
  H   2.15488443842923      0.02953087233899     -1.27224069385793
  N   -1.45693753360191     -0.44151704020468     -0.52988580599395
  H   -2.43287052013406     -0.17847380409420     -0.46118893938103
  H   -1.37229609648796     -1.42538628042159     -0.29898330244687
  N   -0.78925258824255      1.76860349816124      0.23695555296099
  H   -0.45912957743581      1.99587483411512     -0.69336303415395
  H   -1.75434345640552      2.05978865437825      0.32973326046280
