16
Coordinates from ORCA-job run
  C   0.71125292379228     -0.05276177358333      0.22984545934586
  C   -0.78704456874372      0.26048620455445      0.32696039682241
  F   1.36915491528981      0.80747000298953      1.13269111322361
  H   -1.09399098563344      0.02635223276918      1.36044672778565
  N   0.93991849974954     -1.41493592892794      0.61665958787817
  H   1.91223791139431     -1.66296753244665      0.47282802701362
  H   0.73103000790624     -1.52866638951920      1.60302898451736
  N   1.18351413905235      0.28201345860728     -1.07207767930932
  H   2.16391644750900      0.05499889807838     -1.18178525387736
  H   0.62208582217843     -0.21686855339124     -1.75084945689476
  N   -1.45467861859539     -0.53750461221056     -0.68740533689917
  H   -2.43156079897031     -0.27331112202712     -0.70789261417088
  H   -1.37097019879526     -1.52057195121401     -0.46191954032690
  N   -1.11838105549851      1.64663289881640      0.08542229134220
  H   -0.70883609810937      2.21145929330817      0.81978457965533
  H   -0.66764834252596      1.91817487419667     -0.78273728610582
