16
Coordinates from ORCA-job run
  C   0.75443223712725     -0.10860690913371      0.24530607763112
  C   -0.71482989991328      0.10132548860830     -0.15578999322778
  F   0.88694389326773      0.41883690136741      1.52219868216027
  H   -0.83527041338006     -0.37386055159856     -1.14378783660647
  N   1.15027341305527     -1.48556782704439      0.35328114745217
  H   0.41202406592111     -1.98418907565031      0.84011322131944
  H   1.24319912739676     -1.88526121312944     -0.57207355846250
  N   1.61658819304190      0.66122605274638     -0.60814099023865
  H   2.57637546596628      0.47722283014519     -0.33805224895192
  H   1.49364212071583      0.38951078850404     -1.57616063145079
  N   -1.02344170763443      1.52217149184631     -0.15396532304766
  H   -1.75737612171371      1.73248450611954     -0.81766346829718
  H   -0.19540625269380      2.05304642534516     -0.39646579055530
  N   -1.53581877482375     -0.66121668765036      0.77264595573291
  H   -1.59573000218989     -0.10887016027567      1.62188230457351
  H   -2.47560534414321     -0.74725206019989      0.40567245196884
