16
Coordinates from ORCA-job run
  C   0.66887831436324     -0.25198811584090      0.16663171611784
  C   -0.70878223984490      0.39287059364359      0.35222550739741
  F   1.57198315720935      0.61035694663120      0.89801489793717
  H   -0.90828590372048      0.38963717327309      1.43543679052902
  N   0.70211792506276     -1.54989636361245      0.75093308830549
  H   0.82922222699885     -1.46901646502257      1.75163830909644
  H   1.45580839358653     -2.10463319272996      0.36653110038219
  N   1.01751268309899     -0.28786949912311     -1.20013562711129
  H   0.81127522202984      0.62217244154460     -1.59726153761578
  H   2.00225414876855     -0.49350118166339     -1.31548268663288
  N   -1.78389655567307     -0.32590752021037     -0.29532421898024
  H   -1.54192901317702     -0.42065326827572     -1.27657034787596
  H   -1.80933876243258     -1.26366862193323      0.08809313935002
  N   -0.65943735943285      1.72499278153865     -0.22965304871388
  H   -0.05252542736806      2.31796274872981      0.32207117320743
  H   -1.59685680946915      2.10714154305076     -0.21614825539299
