16
Coordinates from ORCA-job run
  C   0.71359368336693     -0.06802538869739     -0.15752147599293
  C   -0.66568111823677      0.58103679948548     -0.00094413011392
  F   1.63633476403281      0.91496892037139      0.36827535023780
  H   -0.64388146671750      1.50276943873698     -0.60351858317715
  N   0.78508266152890     -1.26283431708518      0.58963193332729
  H   1.74443826427307     -1.57355073788365      0.68126705718032
  H   0.39819720567619     -1.07802928925343      1.50864997268639
  N   1.01486696290751     -0.28933585127322     -1.53131139341433
  H   1.73687564039239     -0.98980462449127     -1.63899077477689
  H   1.32811331083569      0.57505371026484     -1.95417718790250
  N   -0.89022477725338      0.81419788566950      1.41707014123224
  H   -1.84449067983028      1.13124616001183      1.53467945758415
  H   -0.25965538274201      1.53215577648067      1.75065381927042
  N   -1.75594893572368     -0.23612261399891     -0.48615135959896
  H   -1.59388598007060     -0.42327685594261     -1.46889155970228
  H   -1.70473415243927     -1.13044901239503     -0.00872126683966
