16
Coordinates from ORCA-job run
  C   0.77092724019259     -0.23480215031228      0.19338719265628
  C   -0.62848909831189      0.07324480288909     -0.35304429324171
  F   0.76248385898811      0.42761870931436      1.46934989529322
  H   -0.70558119408951     -0.41336360387046     -1.32931697696241
  N   1.04819248639678     -1.60303022214375      0.47577453654368
  H   1.28744890631399     -2.06825455086002     -0.38915092108017
  H   0.22142373602646     -2.03235746930888      0.87197500380830
  N   1.76482221852389      0.27937801201051     -0.66070401254138
  H   1.54375574164732      1.23349458323343     -0.91121240474742
  H   2.66987118885680      0.21464675522782     -0.21337782977195
  N   -0.72388687896098      1.51367152854923     -0.56818079499818
  H   -0.71393572194610      1.98057537458674      0.33154748445779
  H   -1.58938230731016      1.74651462948640     -1.03914303378837
  N   -1.59776347806307     -0.55556848153594      0.53538634436309
  H   -1.57823931345185     -0.08601341623549      1.43334559523291
  H   -2.53164738481242     -0.47675450103076      0.15336421477630
