16
Coordinates from ORCA-job run
  C   0.72472809038681     -0.05825666441775     -0.09993964956466
  C   -0.67126616454924      0.57141660861383     -0.04724997025532
  F   1.58806811412231      0.92819071388713      0.51494288726387
  H   -0.61371056972107      1.50216653921812     -0.63356029862103
  N   0.75128169532137     -1.26304567090776      0.63327133962083
  H   0.29398810459610     -1.09608235042660      1.52274170018435
  H   1.70304461626073     -1.56978862585278      0.79194000469844
  N   1.13963637400339     -0.25363486255221     -1.44731157749415
  H   1.89572970207966     -0.92379688673830     -1.50326749406964
  H   1.45279593255823      0.62687333854304     -1.83598076756348
  N   -1.01274454411598      0.78128648672247      1.35070621952102
  H   -0.42051086415053      1.50151522443262      1.74415123521274
  H   -1.97748401973121      1.08497470309522      1.39521970513184
  N   -1.70798618774130     -0.25204781796247     -0.63007608274502
  H   -1.68574125952746     -1.15071024191612     -0.15844633670603
  H   -1.46082901979181     -0.42806049373848     -1.59714091461376
