16
Coordinates from ORCA-job run
  C   0.86095685759873     -0.11209777416316      0.02164474791255
  C   -0.50882899101330      0.55207038254134     -0.15793641761055
  F   1.65618228261330      0.87959806848839      0.66041714963332
  H   -0.34608474852621      1.44843076523651     -0.77471817492599
  N   0.71852834587718     -1.27650417763663      0.79992751177607
  H   1.61801057385425     -1.71714045595602      0.93574313934570
  H   0.26131358923394     -1.06366382561487      1.67643481573582
  N   1.56060108782571     -0.43556649667893     -1.18531816270220
  H   1.79206610860593      0.42314085760410     -1.67010380828538
  H   0.92700369268207     -0.96959382917952     -1.76844484015824
  N   -1.03707383886205      0.86048006156069      1.17435496639366
  H   -1.95483233844777      1.28120883257228      1.08679015294877
  H   -0.42787439699376      1.53745779625276      1.62116356629798
  N   -1.34851871008604     -0.34921087518781     -0.91144474676358
  H   -2.21759006914761      0.09834125986183     -1.17412048563270
  H   -1.55285944521436     -1.15695058970097     -0.33438941396523
