16
Coordinates from ORCA-job run
  C   0.84379531983714     -0.16736223153960      0.11983478404525
  C   -0.61048555056113      0.22161833954858      0.40768756703899
  F   1.61665199218590      0.75762132966379      0.87449856631814
  H   -0.75328514343278      0.12736482386481      1.49448672394101
  N   1.24603696180713     -1.46150396514802      0.58339003134647
  H   0.56970752310591     -2.13094187244674      0.23533047922327
  H   1.21196417020494     -1.47173647457445      1.59568106927919
  N   1.08819815501452     -0.07534601314468     -1.26388298399550
  H   2.04808872781325     -0.32053296156743     -1.46449193327202
  H   0.85064411738241      0.84631051091376     -1.60555922588636
  N   -1.46851911765190     -0.74872793055487     -0.23079063025707
  H   -2.43377774831719     -0.61513952371539      0.04313988960866
  H   -1.39039947151293     -0.63578049033370     -1.23495523619237
  N   -0.81591780227458      1.58844433823886     -0.08111002179584
  H   -1.77805232638943      1.86445060501239      0.07738621039972
  H   -0.22264980721125      2.21926151578271      0.44735471019846
