16
Coordinates from ORCA-job run
  C   0.71789878978888     -0.04947983961659      0.20701947210442
  C   -0.77637052239925      0.26559815611957      0.34830671181940
  F   1.40543423104118      0.82227150177420      1.07528617868577
  H   -1.04978387293177      0.04681965613034      1.39449630405918
  N   0.95891428511916     -1.40694106533537      0.60442747503759
  H   1.92693727464559     -1.65571808786062      0.43472593866103
  H   0.78098685955202     -1.50676970072526      1.59843915776093
  N   1.14786419897926      0.26698773736847     -1.11446036896859
  H   2.12584832366077      0.04296939031341     -1.24956117271584
  H   0.56946226407123     -0.24681768164495     -1.76731742500088
  N   -1.47672870531483     -0.54713439899422     -0.63181781435504
  H   -1.38676387161303     -1.52664007525152     -0.39351369588256
  H   -2.45353354824648     -0.28188855436179     -0.62439930582133
  N   -1.11502189499134      1.64819221019698      0.09686471511783
  H   -0.69201300478188      1.90658465305837     -0.78903212592769
  H   -0.68313080657951      2.22396609882896      0.80953595542578
