16
Coordinates from ORCA-job run
  C   0.50115867733209     -0.55648752032904      0.00992193276153
  C   -0.78761717245317      0.19299972298599      0.37038753276925
  F   0.22743767803731     -1.93268891239874      0.14618806125308
  H   -1.00829151101165     -0.04390101184223      1.42504475310976
  N   0.81120359038074     -0.33610793627081     -1.36335000118645
  H   1.67334951393125     -0.79605906332514     -1.62772318479551
  H   0.87497544684001      0.66226864835297     -1.51790151923527
  N   1.54112130681654     -0.18395665862214      0.92483125593930
  H   1.31470603935823     -0.52279857520423      1.85404236533523
  H   2.42134246951631     -0.60228222653256      0.64579044613737
  N   -1.93959830415210     -0.20305633024166     -0.40778965137835
  H   -2.16141470206733     -1.16778135148101     -0.19305385870593
  H   -1.66828773505683     -0.17227538374447     -1.38556820634939
  N   -0.54433530579084      1.60270654383984      0.11453660645135
  H   0.15625547078710      1.95293996208045      0.75541440688600
  H   -1.41300546246765      2.10448009273279      0.24922906100805
