16
Coordinates from ORCA-job run
  C   0.77364140379266     -0.22679830763690      0.19283353959987
  C   -0.61528117733573      0.10066331976104     -0.36911646141965
  F   0.73277177626039      0.37364785351464      1.49869084184160
  H   -0.65860753143643     -0.31619010736549     -1.37921020417976
  N   0.97078842847622     -1.61872797966615      0.25757456816464
  H   1.81707045481608     -1.82363690150163      0.77236657972534
  H   0.16516116587222     -2.06351940517430      0.67575760522588
  N   1.87992443915830      0.37861767997121     -0.46981261161729
  H   2.08554795655070     -0.15387410436057     -1.30413760896267
  H   1.63071702907479      1.32524822942909     -0.72834525137834
  N   -0.71597674259564      1.55021032287263     -0.48097355885892
  H   -0.72791211739972      1.95432403155439      0.44841433499200
  H   -1.57223291745328      1.81017545880892     -0.95380476151364
  N   -1.60778493170602     -0.59892570319567      0.44085736976453
  H   -1.62400002328876     -0.18625969666596      1.36665030354155
  H   -2.52982721278578     -0.50495469034523      0.03325531507485
