16
Coordinates from ORCA-job run
  C   0.73935097308783     -0.28613779151468     -0.04053711543833
  C   -0.58754691963213      0.31097288094099      0.42054700545090
  F   0.50493047671063     -0.50884201110623     -1.48210771644320
  H   -0.48894973953605      0.50467310750845      1.49066148764341
  N   1.79643899725178      0.62771687622228      0.12484820991153
  H   1.53689779469007      1.51227831683442     -0.29040154245889
  H   2.65303991216548      0.27888419418523     -0.28507685899372
  N   0.99079429982929     -1.51987258097279      0.58762439464073
  H   0.17718241917036     -2.11222375695135      0.49065456267508
  H   1.80891276118509     -1.97122966415011      0.19975358876331
  N   -1.61881451408254     -0.70318938499880      0.23560589916546
  H   -1.78379827262082     -0.82784815429684     -0.75657989507736
  H   -2.48383929159453     -0.41116150627528      0.67197241921285
  N   -0.75874188290756      1.58985580936570     -0.25871734946775
  H   -0.94103586108717      1.41912256144215     -1.24096745503811
  H   -1.54382115262976      2.09500110376686      0.13172036545408
