16
Coordinates from ORCA-job run
  C   0.71946965574512     -0.54013065827000     -0.02165055956074
  C   -0.69029625256210     -0.08263212563182      0.38007663572955
  F   0.70053656134964     -1.94165127557868     -0.02283039407000
  H   -0.96333770850091     -0.65366707603020      1.27238317062952
  N   1.01500364410985     -0.01554818367188     -1.30983107151421
  H   1.99614425091731     -0.17074186332596     -1.50406397390402
  H   0.44534336686979     -0.49284803211602     -1.99790416075125
  N   1.76837765620069     -0.17025711857724      0.89276078918755
  H   1.74860012877599     -0.82299382498536      1.66649818982384
  H   1.55740803014112      0.75186057163738      1.25598974172484
  N   -1.62732305198479     -0.43382152528946     -0.68590714839131
  H   -2.55038754999962     -0.60598271897437     -0.31025918321747
  H   -1.69798220907908      0.33688519344340     -1.33969813170955
  N   -0.60021824065486      1.32497756348094      0.74409688063399
  H   -0.32296480822922      1.84982583134374     -0.07927965247719
  H   -1.49937347309895      1.66772524254561      1.05861886786650
