16
Coordinates from ORCA-job run
  C   0.63541418091168     -0.28319504542300     -0.08418677240984
  C   -0.63013877661524      0.41779950231249      0.41290646393980
  F   0.43524169064419     -0.40458810901209     -1.51960623945091
  H   -0.49180182545311      0.55749502393835      1.48797386105580
  N   1.78004778177745      0.48729493532203      0.19801032947242
  H   1.57038352890365      1.46090104776198      0.01522869296582
  H   2.56499925968704      0.18811284974510     -0.36736863371327
  N   0.74808377838965     -1.59841475904016      0.45755389235281
  H   1.71833460646316     -1.87518829611782      0.52196756479887
  H   0.25089423063111     -2.25702940239419     -0.12589356461008
  N   -1.84566614305695     -0.36161404979118      0.22525051136443
  H   -1.82463809491095     -1.17862039675139      0.82458845986631
  H   -1.89856741648481     -0.67462413247128     -0.73824899739988
  N   -0.69072072672123      1.72347756773257     -0.21868676644472
  H   -0.81061938406709      1.59166829032431     -1.21723311902272
  H   -1.51224669009856      2.20552497386428      0.12574431723518
