16
Coordinates from ORCA-job run
  C   0.78693136335505     -0.24436373540759      0.08947862721923
  C   -0.67218446339668      0.07269689200650     -0.26068262396545
  F   0.97850264005342      0.47514017497538      1.31886276319795
  H   -0.90092193354541     -0.45644773692512     -1.18994267439127
  N   1.07953670456588     -1.60491794414131      0.39496438752282
  H   1.16880657321754     -2.11686225855733     -0.47216177124736
  H   0.31683412012052     -1.99208903269328      0.93663360340092
  N   1.65281808743869      0.20422312166127     -0.92573403865904
  H   2.61287655226514      0.13392185146086     -0.61465224878202
  H   1.41697730104271      1.15176314078947     -1.18739040331033
  N   -0.77242962820388      1.50380170877071     -0.53016492907814
  H   -1.69406269704305      1.73618227809942     -0.87912550211732
  H   -0.62120163995821      2.01076094401787      0.33459808849480
  N   -1.51090673566077     -0.48969841379466      0.79019683515068
  H   -2.48931749213939     -0.40534897521746      0.54529030890411
  H   -1.35125875211156      0.02123798495528      1.65082957766044
