16
Coordinates from ORCA-job run
  C   0.88018801162364     -0.16205825878894      0.08609997547095
  C   -0.38257618912750      0.68256495828104     -0.13732025492130
  F   1.82391404304103      0.67833025656261      0.69151227453707
  H   -0.05759349302763      1.61603076238258     -0.60610193481290
  N   0.54553090664411     -1.26498765563464      0.91999346058096
  H   1.32187346823486     -1.91445433696688      0.92146411713605
  H   0.37485901287279     -0.92818562588250      1.85982885159830
  N   1.51053504685198     -0.64936891774690     -1.11332289795491
  H   2.06674477075893      0.10392312801354     -1.49822228588720
  H   0.78315565891532     -0.87507183772480     -1.78170014636026
  N   -0.97194356344326      1.01130782098831      1.15907116451648
  H   -1.62143002320163      0.28103513629648      1.42693048426784
  H   -1.48901138345130      1.87913694370461      1.10649427307199
  N   -1.22342800840984     -0.03966318932975     -1.08368839325008
  H   -1.50394022913082     -0.91554035828738     -0.65387809082349
  H   -2.05587802915069      0.49600117413259     -1.29616059716949
