16
Coordinates from ORCA-job run
  C   0.79028474758055      0.08873387769888     -0.04983260412021
  C   -0.63019395519636      0.61634441654754     -0.28006899322251
  F   1.53009875517905      1.16155467783990      0.49444301675647
  H   -0.52768142170151      1.45875226154180     -0.96976425532754
  N   0.76305307662041     -0.98210872585926      0.91403869648274
  H   0.67230505693447     -0.59842729033175      1.84739068146378
  H   1.62987271391488     -1.50442574747106      0.87996752288945
  N   1.37583154453073     -0.24826887275969     -1.29710801265165
  H   2.24239452058320     -0.76009332627600     -1.19578901191714
  H   0.70496971190070     -0.76609589149548     -1.84870823524421
  N   -1.29145664760247      1.11468247833136      0.91890487922488
  H   -0.73210323800478      1.84257789762470      1.34903066452002
  H   -1.41481274617566      0.36186234994765      1.58672531514066
  N   -1.37621782944824     -0.43688444990827     -0.93498714367383
  H   -2.32116293136774     -0.11370468125702     -1.10323086504306
  H   -1.41518135774722     -1.23549897417336     -0.31001165527782
