16
Coordinates from ORCA-job run
  C   0.86613342972014     -0.07348371148817     -0.03393042071194
  C   -0.55554907090813      0.49677194814777     -0.16584837523865
  F   1.58311664099561      0.96758287238031      0.62994366848880
  H   -0.51207449547087      1.32331239327687     -0.89315835888279
  N   0.98766617946756     -1.22214799993262      0.80442229811814
  H   0.46345740317848     -1.06960098612741      1.65762641742257
  H   0.61581901234121     -2.02114272702304      0.30813430987392
  N   1.44001571136307     -0.36992049377567     -1.28657782035160
  H   1.37983040537034      0.41818771661905     -1.91607796276706
  H   2.40875513795551     -0.62962307149995     -1.15034635247135
  N   -0.97645762934427      0.92309857134553      1.16784005758233
  H   -1.90389928865444      1.32644690286124      1.11361914953668
  H   -0.34161651947972      1.62807802243521      1.52217324374714
  N   -1.44230228838657     -0.51246002986681     -0.70109541950590
  H   -1.75520441403473     -1.09963427745305      0.06362614454712
  H   -2.25769021411321     -0.08546512989927     -1.12035057938744
