16
Coordinates from ORCA-job run
  C   0.81266361949415     -0.15615399095537      0.30937311472240
  C   -0.63983284092947      0.29208623878048      0.48650215350374
  F   1.60643879278581      0.65231610972042      1.13352720802696
  H   -0.82671766112546      0.28984798510275      1.56285732790600
  N   0.96880699792699     -1.49185328420120      0.77473784173736
  H   1.87667415130183     -1.86836741768522      0.53495957971369
  H   0.22467827238145     -2.06815332784514      0.40785438696872
  N   1.18330861516044      0.06277811959811     -1.06351444716100
  H   1.25811142534353      1.06475798625038     -1.20539315510830
  H   2.09037622391339     -0.35015775595536     -1.24699332079283
  N   -1.48611938969785     -0.71375369065661     -0.13903130053857
  H   -1.29633906543603     -0.71278964466550     -1.13607976186863
  H   -2.46370393705056     -0.49569997783151      0.00769382210482
  N   -0.77060507361436      1.66219280631018     -0.00780745270817
  H   -1.10343306009591      1.64877113505333     -0.96400371560613
  H   -1.43530707035794      2.18317870898026      0.54731771909992
