16
Coordinates from ORCA-job run
  C   0.79508347495534     -0.14938238625240      0.10431618120837
  C   -0.63310952560534      0.22231255982201      0.52927266559123
  F   1.64116548893669      0.72675703534143      0.81965422831457
  H   -0.66521221175413      0.10843055609986      1.61869063755898
  N   1.20737979462616     -1.47795766637775      0.46734573114177
  H   1.38420491106327     -1.49134813666343      1.46452190793769
  H   0.42913346407924     -2.10041345116839      0.27906986608689
  N   0.95212273968792      0.00622998270145     -1.29914618103977
  H   1.82914925020806     -0.41714188174339     -1.57449691711724
  H   0.95231299643359      0.98482335818299     -1.55416921122518
  N   -1.52094979612586     -0.75432029466934     -0.06117373194306
  H   -1.42877178384486     -0.70837630841009     -1.07032555851933
  H   -2.47592541294747     -0.52958082894330      0.18943315345702
  N   -1.03021691973815      1.59628145069264      0.23496788440848
  H   -1.08155995905881      1.73549828177214     -0.76793717236393
  H   -0.35480651091561      2.24718772961562      0.61997651650354
