16
Coordinates from ORCA-job run
  C   0.63583575719732     -0.51008878780473     -0.00945384760588
  C   -0.72117603575826      0.03611231047429      0.45752190870337
  F   0.48040361970846     -1.91228411601335     -0.06371021825048
  H   -0.92667232265315     -0.44356285129531      1.42111081650741
  N   0.97565179588049      0.02488456351221     -1.28181709033337
  H   0.38826132867730     -0.37005605777290     -2.00430111072952
  H   1.94417873600774     -0.19709469243056     -1.47470353748771
  N   1.72785819130985     -0.26933863013619      0.89515885320279
  H   1.62244735135562     -0.89279984935904      1.68661120646660
  H   1.63609898796486      0.68206952589247      1.23474607546304
  N   -1.84837646056903     -0.27249307187857     -0.41790752016945
  H   -1.73604910301276      0.20017631988898     -1.30776636374807
  H   -1.90016502467229     -1.27135531844091     -0.58445089453886
  N   -0.55624934106372      1.45596819688127      0.67567312065291
  H   -0.28195575675405      1.88816339427604     -0.20014039866685
  H   -1.44009172361837      1.85169906420624      0.97142900053403
