16
Coordinates from ORCA-job run
  C   0.89128842307758     -0.03097069899307      0.20055228778066
  C   -0.61715725715414      0.19884105643074      0.37482456434845
  F   1.48546239804367      0.88440320083648      1.11260648160124
  H   -0.82109842686015      0.09510216389757      1.45005702011901
  N   1.34223538117019     -1.33219723413281      0.61482801815986
  H   1.44119418020866     -1.33626407961706      1.62209977659166
  H   0.61979117240162     -1.99589771758376      0.35606133523235
  N   1.30767845478584      0.23667203043484     -1.10658608318659
  H   1.87869604864518     -0.47621204519434     -1.52215714446448
  H   0.65670415378867      0.72170319879294     -1.69917568027604
  N   -1.33252781848923     -0.86358105148544     -0.30445352495606
  H   -1.36570160540236     -0.65110239751192     -1.29501909523895
  H   -2.28404116570267     -0.92816686267919      0.03359955550685
  N   -0.94363106746909      1.51667008986175     -0.16319550904138
  H   -0.35170132084382      2.21307604083621      0.27743805742975
  H   -1.90719155019990      1.74792430610707      0.04851994039363
