16
Coordinates from ORCA-job run
  C   0.72384092080684     -0.07203200773247      0.16612425031251
  C   -0.76351525548458      0.03988981540712     -0.21271381452953
  F   0.84531228087530      0.62030308408578      1.37692060671235
  H   -0.89772457208407     -0.49872995361297     -1.15998770558733
  N   1.19179862068294     -1.40438370939200      0.43413172795836
  H   1.34676315033535     -1.88960432017932     -0.43999689894595
  H   0.47600060934200     -1.90445152455170      0.95042402673475
  N   1.53594886428251      0.62268525409919     -0.78822616390464
  H   1.38006936584485      0.25603972824359     -1.71933560531444
  H   2.51010337245198      0.48458715443269     -0.54328898629900
  N   -1.23401457196974      1.40509948706851     -0.41192593617853
  H   -0.69406418048975      1.83773746600789     -1.15417656760297
  H   -1.01087207016429      1.92942449186020      0.42898682793241
  N   -1.52103161537534     -0.66149391050646      0.80742989868304
  H   -2.50439486635843     -0.58640746536758      0.57598493423775
  H   -1.38422005269559     -0.18066358986247      1.69064940579123
