16
Coordinates from ORCA-job run
  C   0.79141752238042     -0.27678303309400      0.07889894329999
  C   -0.69094424842231      0.08298998322371     -0.10087990502447
  F   1.14093834597595      0.19687349081984      1.36298973829094
  H   -1.04666710583242     -0.51373324290928     -0.95160379359102
  N   1.07092361088366     -1.68036839774757      0.09567118776908
  H   0.40995745521440     -2.13005221646621      0.71819735298152
  H   0.95023700763526     -2.05083152221144     -0.83810608641186
  N   1.56612512027974      0.34231700072355     -0.93125133091688
  H   2.53467143608973      0.07329780469685     -0.80401446996563
  H   1.48027086164532      1.34589717300442     -0.82437619206099
  N   -0.81510650816578      1.52535491946116     -0.35948638339708
  H   -0.80788267368389      1.69945793609289     -1.35781286212175
  H   -1.69828224048770      1.85914411175149      0.00396438319745
  N   -1.39469609436481     -0.36876262478775      1.07492852007209
  H   -1.09416508386562      0.17482221400724      1.87427586235103
  H   -2.39579740528194     -0.27962359656490      0.96060503552761
