16
Coordinates from ORCA-job run
  C   0.78783836396317     -0.24195694916965      0.08894754609617
  C   -0.65828636703815      0.10902027172770     -0.28222258098655
  F   0.94065826091048      0.38160943843005      1.37528701343286
  H   -0.85045532596110     -0.32458385549727     -1.26759208609620
  N   0.96183583663625     -1.63682688233313      0.15327993020621
  H   0.21246468142576     -2.05434149555848      0.68802018159820
  H   1.86690617469417     -1.85378840643101      0.54944997052267
  N   1.80445298793599      0.32561917452223     -0.73191861087663
  H   1.88184919331501     -0.22539930390439     -1.57584089424372
  H   1.54239887585882      1.27353607155300     -0.97227169814531
  N   -0.74268578736272      1.55837255309101     -0.40884821320698
  H   -0.61728563960744      1.97853791641810      0.50491201922988
  H   -1.65035351569724      1.83068698499455     -0.76421417583416
  N   -1.54368055783568     -0.55253182435180      0.67125810553799
  H   -1.42482977331939     -0.12254634950750      1.58150198971389
  H   -2.51082740791793     -0.44640734398344      0.39125150305169
