16
Coordinates from ORCA-job run
  C   0.61857717596667     -0.30735052638122      0.07266659872914
  C   -0.81285461407920      0.21832372174570     -0.11575831265573
  F   0.98831094257099     -0.09894364387699      1.41576481557775
  H   -1.20035689940098     -0.28508949866189     -1.01329700121860
  N   0.62265071628012     -1.74128120857411     -0.08676336113487
  H   1.41673165123002     -2.12989072134823      0.40752816488020
  H   0.70649101453754     -1.96636121439191     -1.07014538793094
  N   1.51206691972770      0.37291890085407     -0.80065016282541
  H   1.50056141789256      1.35864715064492     -0.56126010908042
  H   2.45355176447812      0.01632566336941     -0.68295452262033
  N   -0.78530697894315      1.67144918668264     -0.24412141019704
  H   -0.63326980837377      1.92762467590986     -1.21194678451620
  H   -1.70203367724287      2.00948807541227      0.02270772664224
  N   -1.69164450563933     -0.11842106420714      0.98409288745334
  H   -1.24667749342715      0.20105485978749      1.83832533363796
  H   -1.74779762557727     -1.12849435696489      1.04481152525889
