16
Coordinates from ORCA-job run
  C   0.85601527586999     -0.10443533256416     -0.01343841013875
  C   -0.55579212560969      0.49913867968407     -0.04753911483498
  F   1.63980148837303      0.97716762017318      0.49916174802948
  H   -0.45330411537171      1.42982852936419     -0.63977887455508
  N   0.90968341756715     -1.24370267118317      0.80212885155255
  H   1.86603933177991     -1.45749728505685      1.04850713621353
  H   0.32246420703661     -1.12347489764424      1.61621473725025
  N   1.44571344268123     -0.41231483063899     -1.27864142173270
  H   1.04452185950603     -1.26456373952538     -1.64202011412543
  H   1.35529700963776      0.35024704435781     -1.93681347367473
  N   -0.96712333088439      0.76683714954806      1.32317138879754
  H   -0.31780152447370      1.43717964609646      1.71754488101136
  H   -1.88736736126047      1.19186633636548      1.33531586366406
  N   -1.49129205615116     -0.44244934762568     -0.63810127063216
  H   -2.43966871806027     -0.10961895197313     -0.50963206390592
  H   -1.32818680064031     -0.49420794937767     -1.63607986291900
