16
Coordinates from ORCA-job run
  C   0.75118411716073     -0.12030041352156      0.01730421340882
  C   -0.51698622192448      0.73510734694057     -0.11979507388526
  F   1.77713872639990      0.75270437297242      0.47621400941563
  H   -0.22774499291156      1.64890737029333     -0.65006753798429
  N   0.52602640734606     -1.15000039561822      0.97616811082052
  H   0.57050076370551     -0.72997562020141      1.89650002577732
  H   1.22974726412125     -1.87510410646423      0.91294615892475
  N   1.13582297442772     -0.67751814708277     -1.23772877130872
  H   1.30053049390610      0.08002810178281     -1.89100438524139
  H   2.01685577936406     -1.16886984652241     -1.13048034474602
  N   -0.94660393866419      1.10514515916966      1.21814586363387
  H   -1.49650343999956      0.33639776358901      1.58836163751818
  H   -1.58099324464944      1.89055589437288      1.14002258135163
  N   -1.57903782988642      0.07908737113457     -0.87111852231564
  H   -1.67352730696905     -0.85989165635058     -0.49215139729001
  H   -1.28840955142663     -0.04627319449410     -1.83431656807938
