16
Coordinates from ORCA-job run
  C   0.71719946880137     -0.20894116974091      0.14635487720326
  C   -0.65257596478074      0.39515147810143      0.48905981019700
  F   1.65811109826377      0.40963574738030      1.01711975499161
  H   -0.74434756064032      0.37592777898150      1.58033518305766
  N   0.72989148784528     -1.61786430332963      0.36708867078888
  H   1.66589949607014     -1.97428435006302      0.20597281965783
  H   0.51324274598765     -1.79395704266221      1.34173649731669
  N   1.04060152014309      0.09009053405594     -1.20863686890507
  H   1.80345580210882     -0.48519124096539     -1.54341917523165
  H   1.32117510945190      1.06224324173506     -1.25041621120933
  N   -1.77014151023478     -0.34358978378087     -0.08391143767551
  H   -1.81631981785553     -1.26758996668968      0.33090241977455
  H   -1.55044348195786     -0.49811422406596     -1.06476400063396
  N   -0.64247682020832      1.78361268012263      0.05986277725669
  H   -0.88101949775826      1.80277071832679     -0.92656701858165
  H   -1.39125207523623      2.26909990259408      0.53828190199304
