16
Coordinates from ORCA-job run
  C   0.57079697904762     -0.11857259022491      0.14063716215111
  C   -0.89390365015635      0.16633387104713     -0.26108900860264
  F   0.78705206621850      0.41261220066795      1.40346573132319
  H   -1.03564179284747     -0.26546090137096     -1.26379233866047
  N   0.77273979966114     -1.54389970132334      0.29319017350789
  H   1.69148843988004     -1.72053539473748      0.68450832306200
  H   0.71858441254384     -1.99746475832469     -0.61117570457126
  N   1.47175503897611      0.60580055301367     -0.73068083007562
  H   1.43755797047123      0.21282199953574     -1.66391351138515
  H   2.42183005847608      0.52593885848844     -0.38513440068234
  N   -1.18176823547248      1.58618077178785     -0.34140468572445
  H   -1.16465716190955      1.96410574849352      0.60073169993017
  H   -0.41591540156876      2.03194563493638     -0.83384198283214
  N   -1.84762889436941     -0.46128719258241      0.63432503744901
  H   -1.53654360632958     -1.41095565374955      0.80484580571093
  H   -1.79674602262098      0.01343655434267      1.53032852939978
