15

C	-0.463941	-0.033374	-1.449342
C	0.0	0.0	0.0
F	0.042812	1.101959	-2.101713
H	1.094686	0.0	0.0
H	-0.012887	-0.895366	-1.948542
N	-1.884099	-0.099185	-1.564685
H	-2.1452	-0.10546	-2.54328
H	-2.290895	0.725486	-1.134817
C	-0.451773	-1.249326	0.762063
H	-0.035705	-1.233551	1.770744
H	-1.538899	-1.323247	0.810174
H	-0.057978	-2.133873	0.255332
C	-0.515544	1.208293	0.639449
N	-1.011968	2.15029	1.136045
Br	3.546485	0.0	0.0
