15

C	-0.396346	-0.038846	-1.490077
C	0.0	0.0	0.0
F	-0.402309	-1.379672	-1.880972
H	1.09617	0.0	0.0
H	-1.41918	0.324421	-1.638622
N	0.491878	0.687157	-2.331081
H	0.188687	1.640846	-2.45839
H	1.439761	0.667598	-1.961661
C	-0.543063	-1.150032	0.841118
H	-0.233412	-1.032007	1.881122
H	-0.135533	-2.086253	0.463452
H	-1.635768	-1.196514	0.800229
C	-0.439082	1.294319	0.518086
N	-0.836256	2.333448	0.896475
Br	3.519803	0.0	0.0
