15

C	-0.326588	-0.017122	-1.490047
C	0.0	0.0	0.0
F	-1.686615	-0.272939	-1.698549
H	1.096743	0.0	0.0
H	-0.165919	0.979344	-1.921512
N	0.433411	-1.059748	-2.111865
H	0.466832	-0.913644	-3.11376
H	1.388485	-1.032309	-1.755284
C	-0.498578	-1.254214	0.71787
H	-0.146065	-1.251948	1.751117
H	-1.588999	-1.302313	0.708616
H	-0.100804	-2.134705	0.213925
C	-0.518799	1.209971	0.625612
N	-0.987931	2.160189	1.131464
Br	3.500328	0.0	0.0
