15

C	-0.455088	0.023118	-1.452648
C	0.0	0.0	0.0
F	-1.854632	0.302024	-1.47756
H	1.09507	0.0	0.0
H	0.016821	0.854965	-1.978563
N	-0.164338	-1.184824	-2.124804
H	-0.386443	-1.109005	-3.107939
H	-0.681222	-1.955896	-1.724236
C	-0.479689	-1.238616	0.7609
H	-1.563425	-1.362712	0.683756
H	-0.21131	-1.148999	1.814246
H	0.030267	-2.121953	0.372462
C	-0.465971	1.216865	0.664933
N	-0.856917	2.177178	1.216017
Br	3.550601	0.0	0.0
