15

C	-0.390492	0.038359	-1.488309
C	0.0	0.0	0.0
F	-0.245254	-1.254208	-1.983393
H	1.097804	0.0	0.0
H	-1.447328	0.30507	-1.615061
N	0.417099	0.917735	-2.274342
H	0.103468	1.872566	-2.164566
H	1.385541	0.854344	-1.96515
C	-0.539753	-1.201692	0.769021
H	-0.233641	-1.146541	1.81537
H	-0.125717	-2.111141	0.336121
H	-1.632358	-1.24957	0.72314
C	-0.456148	1.256282	0.590149
N	-0.884835	2.250094	1.048065
Br	3.517355	0.0	0.0
