15

C	-0.437887	0.016831	-1.454836
C	0.0	0.0	0.0
F	-0.136656	1.240694	-2.024598
H	1.096039	0.0	0.0
H	0.165356	-0.725773	-1.999407
N	-1.870933	-0.150666	-1.599762
H	-2.130379	-1.090528	-1.323134
H	-2.101631	-0.046553	-2.581641
C	-0.432939	-1.292651	0.700315
H	0.04485	-1.351039	1.679012
H	-0.092422	-2.155789	0.120511
H	-1.516026	-1.344511	0.837814
C	-0.516236	1.168374	0.706502
N	-0.91944	2.094038	1.305503
Br	3.55307	0.0	0.0
