15

C	-0.484969	0.011954	-1.452834
C	0.0	0.0	0.0
F	-0.049658	1.187115	-2.033558
H	1.094965	0.0	0.0
H	-0.004149	-0.81866	-1.978554
N	-1.905627	-0.070339	-1.65964
H	-2.389916	0.534811	-1.006073
H	-2.228352	-1.020476	-1.530262
C	-0.436385	-1.280202	0.718825
H	-1.522615	-1.348458	0.823012
H	-0.070958	-2.148178	0.162901
H	0.014002	-1.314643	1.711611
C	-0.526924	1.171394	0.693176
N	-1.046077	2.072082	1.240708
Br	3.526218	0.0	0.0
