15

C	-0.325557	-0.004107	-1.49061
C	0.0	0.0	0.0
F	-1.686055	-0.256412	-1.702627
H	1.096616	0.0	0.0
H	-0.164407	0.995733	-1.913103
N	0.434531	-1.040686	-2.121433
H	0.479806	-0.879852	-3.120424
H	1.383629	-1.025387	-1.754284
C	-0.498312	-1.260221	0.706878
H	-0.100372	-2.136512	0.196064
H	-1.588714	-1.30866	0.697521
H	-0.145246	-1.265998	1.739983
C	-0.518316	1.20437	0.636109
N	-0.987733	2.149815	1.150637
Br	3.493534	0.0	0.0
