15

C	-0.484152	0.0142	-1.451825
C	0.0	0.0	0.0
F	0.004473	1.164033	-2.043888
H	1.094915	0.0	0.0
H	-0.041066	-0.842085	-1.970627
N	-1.908005	-0.004751	-1.658098
H	-2.27474	-0.939313	-1.539883
H	-2.365597	0.618043	-1.001646
C	-0.44695	-1.273523	0.722536
H	-0.011612	-1.29986	1.722486
H	-0.074544	-2.14611	0.179177
H	-1.534719	-1.339756	0.811552
C	-0.516327	1.179073	0.688937
N	-1.019478	2.087964	1.23777
Br	3.54094	0.0	0.0
