20

C	0.0	0.0	0.0
C	-0.455224	0.022501	-1.466766
F	1.404257	0.0	0.0
H	-1.547697	-0.037264	-1.383086
C	-0.429637	1.246634	0.760754
H	0.018773	2.157806	0.356418
H	-0.113911	1.146712	1.806198
H	-1.522291	1.254094	0.692147
N	-0.525302	-1.199112	0.601366
H	-1.549511	-1.023157	0.485043
H	-0.337693	-1.1466	1.59993
C	0.104469	-1.184043	-2.216791
H	-0.327524	-1.239846	-3.222831
H	-0.125831	-2.104751	-1.681063
H	1.192955	-1.109311	-2.31714
C	-0.062856	1.314465	-2.179504
H	-0.622314	2.172051	-1.800207
H	-0.27685	1.232002	-3.250865
H	1.007809	1.517005	-2.065482
F	-2.927437	0.0	0.0
