20

C	0.0	0.0	0.0
C	-0.278505	-0.031255	-1.523859
F	1.427961	0.0	0.0
H	0.431701	-0.788982	-1.892009
C	-0.658473	1.128446	0.740185
H	-0.381456	2.100917	0.330168
H	-1.745212	0.940079	0.633749
H	-0.371132	1.104651	1.797442
N	-0.396366	-1.24904	0.587016
H	0.277768	-1.956961	0.331379
H	-0.443876	-1.177625	1.593385
C	0.122745	1.293778	-2.173201
H	1.107136	1.625151	-1.831736
H	0.160157	1.17749	-3.261944
H	-0.611585	2.072639	-1.95198
C	-1.68337	-0.453946	-1.929482
H	-1.843538	-1.501471	-1.671549
H	-2.489301	0.055404	-1.367041
H	-1.78207	-0.338477	-3.018232
F	-3.541608	0.0	0.0
