20

C	0.0	0.0	0.0
C	-0.205198	-0.010463	-1.557117
F	1.399912	0.0	0.0
H	0.429706	0.828064	-1.879118
C	-0.464767	1.293194	0.640402
H	-1.559585	1.248781	0.610515
H	-0.077598	2.167876	0.10723
H	-0.110157	1.328772	1.677903
N	-0.577481	-1.165848	0.596701
H	-0.449237	-1.08921	1.604669
H	-1.597295	-0.9693	0.429511
C	-1.582745	0.206928	-2.170401
H	-2.246562	-0.629701	-1.971746
H	-2.100379	1.067548	-1.757259
H	-1.444172	0.332055	-3.25424
C	0.404916	-1.293188	-2.134955
H	0.338803	-1.277591	-3.228302
H	1.452457	-1.403267	-1.85191
H	-0.141411	-2.161452	-1.761815
F	-3.005992	0.0	0.0
