15

C	0.0	0.0	0.0
C	-0.422493	-0.1581	-1.506562
Cl	1.787332	0.0	0.0
H	0.491723	-0.159519	-2.107063
C	-0.44213	1.201961	0.713779
N	-0.577674	2.143049	1.405624
C	-0.410513	-1.17097	0.785082
N	-0.552325	-2.110694	1.4761
N	-1.086095	1.136989	-2.005236
O	-2.029927	1.028253	-2.776214
O	-0.515507	2.186887	-1.71865
N	-1.169148	-1.327232	-1.733513
H	-2.020821	-1.156399	-1.172828
H	-1.383388	-1.407454	-2.718943
F	-2.377254	0.0	0.0
