15

C	0.0	0.0	0.0
C	-0.532669	-0.360573	-1.453263
Cl	1.787895	0.0	0.0
H	-1.40012	-0.982967	-1.269727
C	-0.459855	1.328368	0.39762
N	-0.592248	2.457476	0.699782
C	-0.425112	-1.012492	0.966967
N	-0.572878	-1.873898	1.753076
N	0.496386	-1.19844	-2.155994
O	1.184279	-0.689395	-3.03561
O	0.571718	-2.36694	-1.781736
N	-0.920853	0.738368	-2.263394
H	-0.204688	1.455302	-2.28455
H	-1.743557	1.086697	-1.778118
F	-2.40061	0.0	0.0
