15
Coordinates from ORCA-job run
  C   0.63288116586314      0.26553161155939     -0.14753829709748
  C   -0.87545487128884     -0.02757897728333     -0.02904687113784
  F   1.07082917593736     -0.37118032680214     -1.30592380244227
  H   -1.23301233144495      0.45139190321477      0.88869854650899
  C   0.84515643779822      1.71332478113574     -0.31358652936612
  N   1.02003714422236      2.87139572095548     -0.39849595668890
  C   1.42625561486995     -0.26568044154459      1.02784877989849
  H   1.14010890411547      0.25202978881523      1.94550226303980
  H   2.48872942842497     -0.09960778234209      0.84520312795500
  H   1.22714973473176     -1.33018243814918      1.13608897782374
  N   -1.06760363236963     -1.46256898980291      0.08941049985067
  H   -0.85152267037030     -1.90487495894794     -0.79644653587167
  H   -2.03379191603464     -1.66621655417271      0.31334404414077
  C   -1.59281800999989      0.57796833979165     -1.16999157850811
  N   -2.19694417445497      0.99724832357265     -2.08606666810508
