15
Coordinates from ORCA-job run
  C   0.54406989559532      0.44862314126474      0.02015894694769
  C   -0.79507320370417     -0.15420704651225     -0.43500509328941
  F   0.69062392331813      1.61805045815060     -0.72960376911815
  H   -0.66581550603924     -0.38126203208264     -1.50589111002288
  C   0.48109226183171      0.82947671140883      1.43993568364838
  N   0.50344841650897      1.10900421855140      2.57987742524492
  C   1.73272333063455     -0.44753452760622     -0.25665192831774
  H   1.75041288930973     -0.71204671115994     -1.31595225408488
  H   1.68217011917410     -1.35599309404318      0.34503780701481
  H   2.64969232941336      0.08959821766640     -0.01149875707479
  N   -1.86089290547704      0.78817280653468     -0.14065263123487
  H   -2.76092762076874      0.39699744914240     -0.38997989022233
  H   -1.71387891008959      1.63076725868647     -0.68276969366502
  C   -1.02879548800164     -1.41855470332440      0.26842092096599
  N   -1.20984953170545     -2.44109214667687      0.81557434320829
