15
Coordinates from ORCA-job run
  C   0.63401092249970      0.47295749334690     -0.30180725536080
  C   -0.87214502917548      0.16487538354808     -0.42874039503183
  F   1.12682127921500      0.61647021712952     -1.59223232356250
  H   -1.32272221074271      1.01813616856471     -0.94515475732290
  C   0.78269347451340      1.76495278618505      0.38850514088153
  N   0.92156045712020      2.80067981454131      0.92325901390718
  C   1.41599787198988     -0.61606166840609      0.40105412573327
  H   1.08766466340554     -0.71615078619494      1.43614554009299
  H   2.47514089851549     -0.35586384137269      0.39492950511612
  H   1.28386144504058     -1.56138357288216     -0.12921209596529
  N   -1.45477038876873      0.05171121799910      0.89603620698466
  H   -1.36951456362146     -0.89256991931521      1.25073628091747
  H   -2.43695359135673      0.29227119118419      0.87825935871913
  C   -1.05384878579742     -1.02620409665001     -1.27900814230849
  N   -1.21779644283726     -2.01482038767776     -1.89177020280054
