15
Coordinates from ORCA-job run
  C   0.66364986669625      0.44705927445192     -0.27583466529573
  C   -0.84685065285431      0.19722258065444     -0.46394917437652
  F   1.21388702757342      0.56804976318903     -1.54539812430877
  H   -1.24209822869498      1.06602373347960     -0.99941125113346
  C   0.83398714660140      1.73436392044465      0.41811634107819
  N   0.99254464633346      2.76570204607154      0.95585409891368
  C   1.37372371601683     -0.66966830980690      0.45899231028414
  H   0.99754205629917     -0.75706659059793      1.47892782505398
  H   1.22909248830526     -1.60952907766855     -0.07773356769337
  H   2.44111174417601     -0.44925585279249      0.49887075849267
  N   -1.48715502301031      0.11097701906319      0.83604999064881
  H   -1.45236013328334     -0.83457973243881      1.19572740693727
  H   -2.45781333328179      0.38838909549557      0.77742966263425
  C   -1.04029784927729     -0.98840483646348     -1.31918296756285
  N   -1.21796347159977     -1.97128303308178     -1.93745864367229
