15
Coordinates from ORCA-job run
  C   0.53258670409881      0.41764392564906      0.00638996241533
  C   -0.80776490814008     -0.13000868064312     -0.54468064047775
  F   0.72601140700794      1.63278277049636     -0.65068070797373
  H   -0.64968093501395     -0.25023584416196     -1.62356353337424
  C   0.38318655532402      0.70701562343986      1.44146318339321
  N   0.23055175673871      0.91805857300193      2.58664829634612
  C   1.72133283333910     -0.47588337398762     -0.27174540325640
  H   1.77658970689070     -0.67533880707019     -1.34422290716710
  H   2.63655829127577      0.02928075130483      0.03973041312394
  H   1.63340141831806     -1.41990216147757      0.26743488302882
  N   -1.95488111582675      0.73003312571495     -0.35170431795029
  H   -2.16931915298390      0.83301177938643      0.63362413683253
  H   -1.76178199077584      1.64434160369721     -0.74145929490382
  C   -1.06136640623846     -1.45395015164885      0.03283901609490
  N   -1.23742416401414     -2.50684913370132      0.52092691386848
