15
Coordinates from ORCA-job run
  C   0.55827096118239      0.43476386027969      0.02681967657768
  C   -0.78918913140530     -0.13418419226146     -0.44810211101283
  F   0.74951165220341      1.59483455363551     -0.72698136950727
  H   -0.64763324122645     -0.37278822621791     -1.51490082897880
  C   0.47855496758740      0.82489402552626      1.44317340895633
  N   0.47914132757186      1.10728560396738      2.58252641438797
  C   1.72631558009212     -0.49532997849013     -0.22393337085007
  H   2.65357383408681      0.01796190665376      0.03333997793859
  H   1.64045868084634     -1.39811073355317      0.38223967071020
  H   1.75478379592151     -0.76723118783896     -1.28114111349105
  N   -1.83291101448405      0.83995692214907     -0.17970295575371
  H   -1.66312251694492      1.66803058410303     -0.73739615511595
  H   -2.74137204821863      0.46614169745395     -0.42428692554100
  C   -1.07104944295596     -1.38598632828482      0.25974143685881
  N   -1.29433340425652     -2.39923850712221      0.80860424482108
