15
Coordinates from ORCA-job run
  C   0.67280557933918      0.42029061483938     -0.26096937316074
  C   -0.82455385346111      0.11720057382903     -0.49917809019710
  F   1.23909073178634      0.64967489170681     -1.50720154484484
  H   -1.20246768033151      0.92249375063185     -1.14663593496757
  C   0.74249309707530      1.67572700846659      0.50932274599493
  N   0.74951556608504      2.66952357470750      1.13484446640861
  C   1.41896546059741     -0.69505043400067      0.43463110708277
  H   2.45465145813103     -0.39533540318368      0.59919882444177
  H   1.40367496274026     -1.58313697185510     -0.19938593108132
  H   0.94280067384412     -0.91912739754053      1.38849247026277
  N   -1.50029713512804      0.00559585048298      0.78811431888460
  H   -1.72091997553884      0.93024683904629      1.13935297872586
  H   -2.36526324145768     -0.51127831355054      0.69489725578011
  C   -0.94754921011652     -1.13822396139429     -1.24519720002143
  N   -1.06294643356498     -2.14860062218562     -1.83128609330843
