15
Coordinates from ORCA-job run
  C   0.65386681013719      0.46025171056904     -0.27733405733222
  C   -0.84911820238983      0.17204140094875     -0.47050953626624
  F   1.20798595056024      0.58086794245062     -1.54516723312029
  H   -1.26235752888736      1.02524520574434     -1.01733764835745
  C   0.78975178290395      1.75833266211088      0.40407961989910
  N   0.92094888582402      2.79749719692453      0.93396679188648
  C   1.38656296581466     -0.63108403740240      0.47336502662525
  H   1.26632740390675     -1.58035026118749     -0.05279602009340
  H   1.00828058617226     -0.71533123019089      1.49279085226942
  H   2.44833988953384     -0.38514215242477      0.51487801200646
  N   -1.49412520589276      0.08385347841895      0.82697223765209
  H   -2.47082486941063      0.33739025679755      0.76048043812046
  H   -1.43859217768991     -0.85681308700053      1.19675543095743
  C   -1.00903571138886     -1.02662267123293     -1.31448542058787
  N   -1.15901057919358     -2.01913641452566     -1.92465849365922
