15
Coordinates from ORCA-job run
  C   0.67177470228768      0.15191419099862     -0.13944296888752
  C   -0.86710009814486      0.09063297466263     -0.08438709595147
  F   1.06632687559094     -0.69866885735017     -1.16884989651774
  H   -1.19383171270228      0.74324213627304      0.73221830806171
  C   1.10130046018144      1.51757604461014     -0.48482744642016
  N   1.44762446769385      2.61580374946212     -0.71505283465398
  C   1.32202869969404     -0.30985354400944      1.14789036370029
  H   0.96823694878129     -1.31195892491030      1.38233059338663
  H   2.40502805781454     -0.31502461855828      1.01879638215990
  H   1.06667954396160      0.36540794277012      1.96684059250605
  N   -1.27316156080405     -1.27117141623698      0.21703857994519
  H   -2.26801809696931     -1.30368590441475      0.40235853750665
  H   -1.08442259858315     -1.86316525060540     -0.58355364833651
  C   -1.43340645880901      0.61593570929406     -1.34398239190974
  N   -1.92905922999273      0.97301576801459     -2.34737707458930
