15
Coordinates from ORCA-job run
  C   0.68511834457527      0.43003074178415     -0.25189134354758
  C   -0.82057019583926      0.20829297916641     -0.50362934179726
  F   1.29332909437131      0.52488472240224     -1.49672871863256
  H   -1.17376198874737      1.07759140896870     -1.06699894984878
  C   0.84930463939850      1.72203094127788      0.43500386655619
  N   1.00044325216140      2.75603035236135      0.96964759969032
  C   1.33907341352159     -0.69164733627361      0.52610314665495
  H   1.19843637485623     -1.63487099422949     -0.00579512566790
  H   2.40812558903649     -0.49257955819401      0.61015172116015
  H   0.91712604700687     -0.75909273086892      1.52948666556075
  N   -1.51866707904338      0.15290258139472      0.76818035175343
  H   -1.52034788325113     -0.78851888569296      1.14044884834861
  H   -2.47966530506444      0.45006096529296      0.66325396496715
  C   -1.00180952238380     -0.98485681968251     -1.35103519607306
  N   -1.17413478059826     -1.97125836770691     -1.96519748912441
