15
Coordinates from ORCA-job run
  C   0.54715047630511      0.44840834790333     -0.00192268985699
  C   -0.81653691928996     -0.14398446626294     -0.39371702167403
  F   0.65555705189964      1.63034830690747     -0.73824741340212
  H   -0.74642325064833     -0.35147059918357     -1.47403742739853
  C   0.56140450468795      0.80374204451372      1.42574247086530
  N   0.63939547092794      1.05984704087542      2.56868136264654
  C   1.71628025856205     -0.44517562286268     -0.35859224121805
  H   2.64661500032618      0.08770308892405     -0.15888902614039
  H   1.67336512883083     -0.69540093652128     -1.42069846785026
  H   1.69836642915026     -1.36180958891492      0.23248717733774
  N   -1.86224742187288      0.79430385860123     -0.02460223039504
  H   -2.77605207694247      0.40615363349718     -0.22312124334139
  H   -1.74817433053820      1.64386204157501     -0.56369857156095
  C   -1.01564474500471     -1.42086632757034      0.29750661244007
  N   -1.17505557639341     -2.45366082148169      0.83210870954810
