15
Coordinates from ORCA-job run
  C   0.54583914067275      0.45069939578847      0.01005117762062
  C   -0.80575188944055     -0.14900449613593     -0.41209584571279
  F   0.66557193131386      1.63247683462233     -0.72461896593489
  H   -0.70973197483964     -0.36194891194346     -1.48937815799662
  C   0.52386181663207      0.80680486301252      1.43747660991380
  N   0.57259825855970      1.06213462314310      2.58223250363905
  C   1.72731139096228     -0.43720095170489     -0.31868795500634
  H   1.71298653662086     -0.68264339920587     -1.38270930674516
  H   2.65051738444253      0.09752213874502     -0.09226377662166
  H   1.69674816105795     -1.35650389150969      0.26773240866896
  N   -1.86325770957250      0.78746512360017     -0.07274701369055
  H   -1.74321771187653      1.63248410998572     -0.61779730322797
  H   -2.77083895117235      0.39262751641149     -0.28485809176398
  C   -1.01627803183103     -1.42307285780424      0.28089919223413
  N   -1.18435835152939     -2.45384009700473      0.81676452462339
