15
Coordinates from ORCA-job run
  C   0.67727426685480      0.07767819074376     -0.17369680286198
  C   -0.85929717891124      0.14669436919855     -0.07794202849795
  F   0.97341369360824     -0.93063016208791     -1.08713536249541
  H   -1.10915583186030      0.92582857575807      0.65010586555587
  C   1.19696153076453      1.34730390953481     -0.70901664783105
  N   1.61339365746254      2.37714581876735     -1.08957244874161
  C   1.33065500497359     -0.25961658545725      1.15016520487975
  H   0.91482906020671     -1.19515275936242      1.51977689764057
  H   1.14488129754291      0.53213899142376      1.87879942683853
  H   2.40686033409258     -0.35932896429814      1.00289919223590
  N   -1.35795971534657     -1.12581547672235      0.41376541814199
  H   -1.24051206382893     -1.83299772641315     -0.30249035279103
  H   -2.34588653172766     -1.05415716520908      0.62380774610223
  C   -1.42421927925538      0.54490739517978     -1.38400224112179
  N   -1.92223824457583      0.80600158894422     -2.41546386705405
