15
Coordinates from ORCA-job run
  C   0.66021909558448      0.15932262587249     -0.18555002364834
  C   -0.86966446601422      0.08759227481088     -0.01358300023708
  F   0.97646018049622     -0.65521499448298     -1.26969835077590
  H   -1.13364194877231      0.71042764652434      0.84773400271971
  C   1.05565389497480      1.53822577398499     -0.51857726468138
  N   1.35831632869422      2.65009402572098     -0.74431773158559
  C   1.40948950140069     -0.34042616277382      1.03185401203302
  H   1.21882971578483      0.30840957868147      1.88897522010170
  H   1.07582381984509     -1.35047701528955      1.26179496742486
  H   2.47910748126288     -0.33829302243427      0.81812681910761
  N   -1.24671475274543     -1.28579170911321      0.27182328431380
  H   -1.11872439932691     -1.84963991056511     -0.56046869838538
  H   -2.22391099530575     -1.33053496014581      0.53294931859768
  C   -1.53418766573856      0.65275528894872     -1.20621490121194
  N   -2.10805579014000      1.04355056026088     -2.15384765377277
