15
Coordinates from ORCA-job run
  C   0.50974717411253      0.37256669555032     -0.17691875438168
  C   -0.95530947424956     -0.10962994210916     -0.00221879705568
  F   0.89460798738670      0.02749817007088     -1.46802227796612
  H   -1.28001244513392      0.17842031328210      1.00428677033079
  C   0.56935869463394      1.83683038516034     -0.04671850952564
  N   0.61216799743407      2.99969886971876      0.11277945684624
  C   1.46676527438727     -0.28695758756590      0.79542688252878
  H   1.19064513854053     -0.05891262064167      1.82709291734734
  H   1.45642553334514     -1.36624420482738      0.64101635740616
  H   2.47826596048357      0.07736721213779      0.61299317953571
  N   -1.15511233511531     -1.53376197384570     -0.16104270474135
  H   -0.76299125852184     -2.05241391725408      0.61268691633522
  H   -0.74781867793797     -1.85618651774007     -1.03010742602837
  C   -1.80452578495399      0.60404168962191     -0.96901622207244
  N   -2.47121378441119      1.16768342844186     -1.75323778855897
