15
Coordinates from ORCA-job run
  C   0.55421325994672      0.43988428279828      0.02176106267799
  C   -0.78770192337651     -0.14682235296787     -0.44709510857743
  F   0.73640090416904      1.59155420732596     -0.74694121619630
  H   -0.64308712344332     -0.39856510365890     -1.51050873139878
  C   0.46941625165882      0.84766438627652      1.43265521091456
  N   0.46746162351481      1.14288967315028      2.56872576153068
  C   1.73062551987677     -0.48311265500893     -0.21575852010107
  H   1.76373295538948     -0.76623557501279     -1.26987430354521
  H   1.65091363534219     -1.37991021897980      0.40008616934323
  H   2.65298264528941      0.04055301722051      0.03810098373998
  N   -1.83992993415362      0.82173999106107     -0.19245392453848
  H   -1.67526653621372      1.64505305824815     -0.75873371967015
  H   -2.74476067179358      0.43795929359978     -0.43506026717689
  C   -1.05970782592535     -1.39172750129741      0.27685080286545
  N   -1.27429278028113     -2.39992450275484      0.83824580013242
