15
Coordinates from ORCA-job run
  C   0.63948962298524      0.47746804343554     -0.28161321639687
  C   -0.86605553638291      0.17900367443233     -0.43380134218409
  F   1.14788630664439      0.65153301196536     -1.56228893877154
  H   -1.30689062565153      1.04747217136774     -0.93320980964728
  C   0.78489377557849      1.75138817174188      0.44196173965528
  N   0.92344358215420      2.77444152134320      1.00055287654109
  C   1.40938974660439     -0.63201169936494      0.40191174297843
  H   2.46929238212937     -0.37512738933221      0.41597999119294
  H   1.06785249650465     -0.75888396051029      1.42980284675040
  H   1.28078523821092     -1.56240405532333     -0.15496287222714
  N   -1.46456938072722      0.03454841293648      0.88091465372005
  H   -1.38565858176583     -0.91859848999331      1.21273028809940
  H   -2.44586533934041      0.27809202287446      0.85736876594631
  C   -1.04433583374524     -0.98863002561469     -1.31684343485244
  N   -1.21165785319852     -1.95829140995824     -1.95850329080453
