15
Coordinates from ORCA-job run
  C   0.63476105304474      0.07992309953689     -0.14050995861845
  C   -0.90876351661084      0.08241057971684     -0.30410492539521
  F   1.10340885001538     -1.06573663193750     -0.77485653710232
  H   -1.29002734795185      0.99143415993429      0.17540383792877
  C   1.20905318504636      1.25458865890831     -0.81471347245655
  N   1.65328568949940      2.22307042584069     -1.30908361493806
  C   1.07337939576794      0.03245609252884      1.30923307987407
  H   2.16239728067119      0.00932410236522      1.35858977283292
  H   0.68835199550424     -0.87366900589313      1.77726603488564
  H   0.71472546248989      0.90932456103839      1.85204013067403
  N   -1.58728282755510     -1.06037992479095      0.26854523986897
  H   -1.57128695462551     -1.03401465613359      1.27885302609183
  H   -1.16816118417827     -1.92280326392459     -0.05705643092553
  C   -1.23140041211412      0.16196006153372     -1.73752787363044
  N   -1.48144066900345      0.21111174127658     -2.88307830908966
