15
Coordinates from ORCA-job run
  C   0.55874599838840      0.43476280796450      0.01590064436253
  C   -0.80498247500187     -0.12527932548500     -0.42138679858078
  F   0.72167505027748      1.61131953376032     -0.71874080721261
  H   -0.70271411380826     -0.34127465414731     -1.49743011516916
  C   0.53118672445041      0.79354308295808      1.44250109644546
  N   0.57423683896548      1.04977194185409      2.58710103850050
  C   1.71703332476423     -0.48830543959514     -0.29827596836226
  H   2.65305702246887      0.01898404337673     -0.06201385398447
  H   1.65264665696591     -1.40537078920458      0.28878870632732
  H   1.70755262573347     -0.73476468283857     -1.36200166348979
  N   -1.83837562575917      0.84194724965342     -0.09430260134457
  H   -2.75507656602282      0.47275985505956     -0.31421301629517
  H   -1.68882998075114      1.68208831990071     -0.63967200131825
  C   -1.06121398767798     -1.39215018291034      0.26921778244927
  N   -1.26594149299301     -2.41703176034646      0.80352755767198
