15
Coordinates from ORCA-job run
  C   0.54615444461378      0.39937044670364      0.02042688849951
  C   -0.79828117410305     -0.10165127027483     -0.56441583824349
  F   0.79580816721076      1.60922165624917     -0.62712633900114
  H   -0.61840046195202     -0.22496809885141     -1.63953267386035
  C   0.37176307437692      0.68904836243326      1.45269518673828
  N   0.19803877234156      0.90250641727486      2.59441255864437
  C   1.71075227687270     -0.53258357756312     -0.23252376636672
  H   1.78696993826705     -0.72783827999448     -1.30450030164448
  H   2.63422195094866     -0.06071425192625      0.10552763094878
  H   1.57693867308319     -1.47610624998197      0.29803695460500
  N   -1.91998076275358      0.79624215923321     -0.39646211554216
  H   -2.15467657839133      0.90404532941456      0.58373938330584
  H   -1.68683362025568      1.70446567492503     -0.77855666330762
  C   -1.10986780146882     -1.41733525628533      0.00352847584606
  N   -1.33160689879014     -2.46470306135634      0.48475061937811
