15
Coordinates from ORCA-job run
  C   0.59877081411614      0.44142948190611     -0.28851543849578
  C   -0.89693820987077      0.10409944907198     -0.54729852115958
  F   1.18252345438462      0.66111897326146     -1.52774130178243
  H   -1.27709679734120      0.90717923766502     -1.18876894008336
  C   0.63547971786234      1.70395353309813      0.47084503855363
  N   0.61779399479171      2.69456168275675      1.10151428100267
  C   1.37174601441298     -0.64688179081915      0.42602770844790
  H   0.95740505377694     -0.83855269620281      1.41706327216175
  H   2.41052756401694     -0.33516898693302      0.54130444847463
  H   1.34044432605082     -1.56153187974266     -0.16810729383768
  N   -1.74760296456867      0.01103100166004      0.61805070557018
  H   -1.78941167207493      0.89233139629593      1.11358982112779
  H   -1.45329743960033     -0.72397688195521      1.24692078781329
  C   -0.96350460362569     -1.14610376831542     -1.31463622058667
  N   -0.98683925233087     -2.16348875174716     -1.89924834720634
