15
Coordinates from ORCA-job run
  C   0.62197560498264      0.46050521911704     -0.08694681905800
  C   -0.73653411249121     -0.10766652898840     -0.54776551888009
  F   0.95854239372622      1.45844075783737     -0.98354303240750
  H   -0.59286941021715     -0.37544338572496     -1.60009197605407
  C   0.45544815650307      1.07272382950121      1.24344372050000
  N   0.29468111388368      1.52535769596787      2.31496475739967
  C   1.73296823704953     -0.57120802914876     -0.08339655851448
  H   1.80075376389970     -1.02821878981883     -1.07335444628800
  H   1.55598310142443     -1.34660945089354      0.66219857195383
  H   2.67748033781584     -0.07233000082526      0.13716561303770
  N   -1.76134442698510      0.91396916947787     -0.47271135678514
  H   -2.56175812462588      0.65475284591418     -1.03495118065666
  H   -2.07313168810564      1.04226996688352      0.48319738177658
  C   -1.04232487621944     -1.33811315508699      0.20916381800529
  N   -1.33087007064070     -2.29143014421234      0.83262702597088
