15
Coordinates from ORCA-job run
  C   0.62898433221893      0.41367487037498     -0.26471705608545
  C   -0.87026462380423      0.14671255992957     -0.57949992956274
  F   1.26748118559490      0.60807665043835     -1.48104955529086
  H   -1.18914749575555      0.96835235772244     -1.23073435514944
  C   0.69588787700658      1.67214986199212      0.49948780577013
  N   0.69833584034251      2.66252378761564      1.13068641254147
  C   1.32381408239268     -0.71059476576106      0.47392509198766
  H   0.86699517329088     -0.88216464134193      1.44987360993745
  H   1.26941549631374     -1.62269425869919     -0.12251737251619
  H   2.37177539031393     -0.44890640715210      0.62515573190869
  N   -1.76630762514826      0.09017489588041      0.55387257095500
  H   -1.53037663608579     -0.66050978257639      1.18885050091858
  H   -1.78440172710880      0.97072225048450      1.05241793509818
  C   -0.96646328582559     -1.09748682842452     -1.35351195656686
  N   -1.01672798374594     -2.11203055048281     -1.94123943394563
