15
Coordinates from ORCA-job run
  C   0.53261272694309      0.41738154955981     -0.01385875594002
  C   -0.83281634260909     -0.12318468357722     -0.50726056614058
  F   0.69526477696341      1.64099329219129     -0.66339345241812
  H   -0.72661750893554     -0.23026538485297     -1.59386777968603
  C   0.45179670497247      0.68782158172113      1.43046936723866
  N   0.35357351131277      0.88408568340547      2.58419463727093
  C   1.70634002534272     -0.47229495681443     -0.35980552487635
  H   2.63548662737005      0.02933821613366     -0.08615015025574
  H   1.64409108331796     -1.42306896372449      0.17101599564611
  H   1.71020621784167     -0.65827532535182     -1.43612249737033
  N   -1.96885480672909      0.73444824677779     -0.24906491561737
  H   -1.79426164621785      1.65333736913004     -0.63694300196659
  H   -2.13537925501157      0.82580722154251      0.74666830606466
  C   -1.05931543390726     -1.45418619551758      0.06545350909882
  N   -1.21212668065375     -2.51293765062318      0.54866482895193
