15
Coordinates from ORCA-job run
  C   0.60807185258056      0.13779683325461     -0.20332974091689
  C   -0.94202117131429      0.06322294598201     -0.17964458732932
  F   1.04588051021977     -0.87944623348296     -1.04473821685264
  H   -1.30172692639090      0.87388338838942      0.46448231884640
  C   1.03503405768310      1.42773600551497     -0.76724333621102
  N   1.36152201029511      2.48304977002764     -1.16650389504085
  C   1.22874110159517     -0.07619258588018      1.16244455266665
  H   2.31514018258558     -0.03416817156210      1.07816740626916
  H   0.89948848715009      0.69381795592172      1.86327512283520
  H   0.95034487457052     -1.06073467970810      1.53914343014832
  N   -1.48814050918891     -1.18630984119927      0.30395078556811
  H   -1.07279109767813     -1.96970319483305     -0.18475625095276
  H   -1.34854017280322     -1.29197721392824      1.29928842586928
  C   -1.44779285295646      0.31378665024402     -1.53861735317187
  N   -1.84321034634798      0.50423837125952     -2.62691866172777
