15
Coordinates from ORCA-job run
  C   0.63225565546071      0.24346039076941     -0.17655882475194
  C   -0.87500621204599      0.03123620441186      0.06319814307151
  F   0.90651019833928     -0.25687639074124     -1.44686633455368
  H   -1.10407015904028      0.40215557019952      1.06791799752074
  C   0.93798897519425      1.68414046347570     -0.18024725458595
  N   1.20701013869158      2.82689487206923     -0.15817649535862
  C   1.49323270948648     -0.49015088052132      0.83022022945204
  H   1.33626861255025     -0.08538214276964      1.83197904381529
  H   1.22629401275890     -1.54516894012327      0.82062128048217
  H   2.54258312780870     -0.36618381197162      0.55963421348758
  N   -1.16299951723760     -1.39173026382751      0.01575046272608
  H   -2.11478527417462     -1.56355017218117      0.31513876994871
  H   -1.06996940829514     -1.72201300794410     -0.93779381843335
  C   -1.65228640525275      0.82999431817863     -0.90704118380144
  N   -2.30302645424375      1.40417379097551     -1.69877622901915
