15
Coordinates from ORCA-job run
  C   0.63342051549910      0.44992557440488     -0.05754860258976
  C   -0.77450812107562      0.00218430205366     -0.50280670860042
  F   0.94913276745583      1.56787097459777     -0.80811286821901
  H   -0.71223116528836     -0.09799080400610     -1.59176765322902
  C   0.58021833009579      0.84679410157965      1.36095744336465
  N   0.50958252182942      1.13022826154072      2.49826865959924
  C   1.70002770633011     -0.60082395146029     -0.29619281963803
  H   2.67608683594340     -0.17260281991833     -0.06492661288936
  H   1.68596473695794     -0.89275143202526     -1.34880093806320
  H   1.53986484854818     -1.48146267810225      0.32611870233722
  N   -1.74997459914670      1.02859060026599     -0.19417038878072
  H   -1.99543619893327      1.00830595762369      0.78915955012617
  H   -2.59420935897649      0.88856394782809     -0.73424531449263
  C   -1.07952616533954     -1.32341648469027      0.07115260975374
  N   -1.36741265389977     -2.35441554969194      0.55591494132113
