15
Coordinates from ORCA-job run
  C   0.65217140120317      0.45817893702522     -0.28467924786891
  C   -0.85119127685038      0.16534878078879     -0.46791700089603
  F   1.20041799046017      0.56537743776851     -1.55629086187687
  H   -1.26894513537528      1.01286278231592     -1.02016096935836
  C   0.78838591223191      1.76450658764956      0.38073074187469
  N   0.91768359146747      2.81172460855939      0.89513311586161
  C   1.39000155482988     -0.62327039193120      0.47511693373762
  H   1.26718527690114     -1.57916724008107     -0.03823978867500
  H   2.45188787729851     -0.37636459482026      0.50696144826350
  H   1.01796160632001     -0.69471915937244      1.49775331935276
  N   -1.48962074796365      0.08758868130315      0.83345470377367
  H   -2.46732527798130      0.33763125209363      0.76940291205924
  H   -1.42950745480351     -0.84936723639021      1.21182976610030
  C   -1.01291759682078     -1.04109516260819     -1.30041561171557
  N   -1.16518772091737     -2.03923528230079     -1.90067946063267
