15
Coordinates from ORCA-job run
  C   0.54184911584509      0.33624056416957     -0.15328311820742
  C   -0.96111837322801     -0.02152102298234     -0.00430456887986
  F   0.89357565381355      0.05247782497249     -1.46854952563588
  H   -1.25778266246819      0.22005645998972      1.02287144890992
  C   0.73580758685309      1.77531981053417      0.08276568030259
  N   0.88567425740697      2.91430713867873      0.32723215931024
  C   1.43410670023344     -0.47725964304337      0.76242218366745
  H   2.47491514802145     -0.19496299165424      0.60044526769014
  H   1.17974662751589     -0.30041149107002      1.80961478897791
  H   1.32461468438407     -1.53694013360595      0.53036701107788
  N   -1.29030488711939     -1.40604498019552     -0.26554926120391
  H   -0.94919621961642     -2.01338691873572      0.46668019128735
  H   -0.91219101187267     -1.70012996862978     -1.15753343226898
  C   -1.74220149200965      0.83596552439839     -0.90973201966225
  N   -2.35649512775921      1.51528982717386     -1.64344680536520
