15
Coordinates from ORCA-job run
  C   0.67950693608142      0.42774734547040     -0.26191798873438
  C   -0.82667831011595      0.19754258110864     -0.50538161267670
  F   1.28395557161695      0.50283632516795     -1.51001033169772
  H   -1.18411225344771      1.05681348229067     -1.08124554251810
  C   0.84407960113076      1.73106415373538      0.40271325058635
  N   1.00134310761858      2.76930445202932      0.92748927091455
  C   1.33896983926826     -0.67825663736350      0.53416035215573
  H   1.20029157065682     -1.63132781500080      0.01959658886632
  H   2.40751278366334     -0.47368779292658      0.61140793184245
  H   0.91964548739622     -0.72852442874604      1.53963126192137
  N   -1.52024039896196      0.16093777477387      0.76959258685083
  H   -2.48058837207588      0.45993902835059      0.66608938946435
  H   -1.52202052367308     -0.77464808788665      1.15586137060952
  C   -1.00345240063179     -1.00974805697627     -1.33249356247934
  N   -1.13821263852597     -2.00999232402697     -1.93349296510524
