15
Coordinates from ORCA-job run
  C   0.58724783110662      0.45063454215135     -0.29849252500297
  C   -0.91552896810084      0.11496500319566     -0.51330401481917
  F   1.12722053147823      0.70179329824968     -1.55158862327947
  H   -1.32044993334389      0.93250279958943     -1.12045446965994
  C   0.64730486594159      1.69498910701433      0.48905183547650
  N   0.64775173392896      2.67146198795824      1.14159913747710
  C   1.38722265160718     -0.65197012322953      0.36246681367970
  H   1.00970548726301     -0.86686057988018      1.36340441401772
  H   2.42908614405530     -0.34049181692263      0.44654888485602
  H   1.33565843631491     -1.55299042756793     -0.25085469564928
  N   -1.72435162683077     -0.01076674596661      0.67863273845960
  H   -1.40776457573606     -0.76264204546612      1.27601010364258
  H   -1.74882761756871      0.85661683214245      1.19950996876331
  C   -1.00611764740138     -1.11611636731361     -1.30868848289926
  N   -1.04815731271416     -2.12012546395454     -1.91484108506244
