15
Coordinates from ORCA-job run
  C   0.59797270936654      0.43531441672986     -0.30033457242988
  C   -0.89979462410720      0.09664740305706     -0.54459559462219
  F   1.17555908346486      0.62925076171171     -1.54674280432438
  H   -1.28251322633555      0.88939474345799     -1.19728271246468
  C   0.64142686952464      1.71272733386189      0.43360660936179
  N   0.62702301576927      2.71720618442390      1.04201851358685
  C   1.37217623289792     -0.64045976358703      0.43164386253826
  H   2.41302791852716     -0.33038762379587      0.53176764311210
  H   1.33288863588215     -1.56786832563552     -0.14189198638869
  H   0.96490566776451     -0.80841653210347      1.42983967682199
  N   -1.74346394390232      0.02429509236414      0.62748398053627
  H   -1.45026584588286     -0.70591249895377      1.26256688166892
  H   -1.77494650028413      0.91161307553452      1.11338632355430
  C   -0.97328322547462     -1.16667638939825     -1.28948385287129
  N   -1.00271276721037     -2.19572787766717     -1.85298196807934
