15
Coordinates from ORCA-job run
  C   0.62885617448888      0.40757579922496     -0.27284388103869
  C   -0.86937272787534      0.13424509363655     -0.58491505964217
  F   1.27048453017225      0.57391742286335     -1.49200227821059
  H   -1.18689675138474      0.94055625744819     -1.25568303232808
  C   0.69646294594525      1.68294318097319      0.46253875927085
  N   0.70274447808133      2.68712964854471      1.07161308182780
  C   1.32177018487592     -0.70007743097447      0.49246272401056
  H   2.36845605201461     -0.43322073728894      0.64419251689804
  H   0.85975091714835     -0.85274447476132      1.46922621012083
  H   1.27219455412722     -1.62424317408498     -0.08574630219431
  N   -1.76807062184564      0.10423288982067      0.54777491141225
  H   -1.78615669373054      0.99591968775491      1.02618887197591
  H   -1.53351933023531     -0.63210751682957      1.19994817444108
  C   -0.96467491397800     -1.12777817696435     -1.32935346459664
  N   -1.01402879780423     -2.15634846936291     -1.89240123194684
