15
Coordinates from ORCA-job run
  C   0.65647441519050      0.43728607769187     -0.27548636141898
  C   -0.83622447540603      0.09255984213300     -0.48495043848812
  F   1.19349814240602      0.67849458293419     -1.53194599252190
  H   -1.24696122558920      0.88325575096276     -1.13045178843115
  C   0.70582628635854      1.69597443531952      0.49094096555655
  N   0.69848382332677      2.69047763283268      1.11545962038654
  C   1.44515623197590     -0.65526937296717      0.40960299133279
  H   1.44527601093973     -1.54454749596675     -0.22295485032313
  H   0.99018226340680     -0.89101820554793      1.37094745538548
  H   2.47434752733590     -0.32617127013722      0.55801989239532
  N   -1.48553448743595     -0.02875056313334      0.81499102232672
  H   -2.33844311172436     -0.56817185099994      0.74042844706321
  H   -1.72351871513309      0.89194315312034      1.16531675900877
  C   -0.93975617418780     -1.17049949277712     -1.22088654560615
  N   -1.03980651146374     -2.18756322346488     -1.79803117666595
