15
Coordinates from ORCA-job run
  C   0.55463305567718      0.44075430683812      0.00092121236075
  C   -0.79836597651158     -0.15314694770415     -0.42498478995799
  F   0.71651951844465      1.58071005650644     -0.78964215487092
  H   -0.68021033360781     -0.41883070872857     -1.48821269279584
  C   0.50553497724219      0.86995018431792      1.40734649708391
  N   0.53229048317049      1.18261159792928      2.53846769348980
  C   1.72502607630925     -0.48578177268132     -0.25216447018230
  H   2.65328740729246      0.04394864616638     -0.03537175960717
  H   1.66459154217730     -1.37007419756772      0.38354571680748
  H   1.72856894123843     -0.79015521482487     -1.30078016737618
  N   -1.84481671331876      0.81815807045877     -0.15713414489417
  H   -1.69810496758715      1.63160329280966     -0.74217755036589
  H   -2.75551116635960      0.42891937329625     -0.36704917528539
  C   -1.05073237789110     -1.38819178975851      0.32240985955083
  N   -1.25171046627596     -2.38847489705768      0.90282592604307
