15
Coordinates from ORCA-job run
  C   0.60934451229160      0.43927314270496     -0.27166963846138
  C   -0.88692238904477      0.12802607433691     -0.55878991473729
  F   1.21399919653625      0.67614236163616     -1.49756533630287
  H   -1.24585746415554      0.94810990063519     -1.19099202526595
  C   0.65164877994823      1.68504295129693      0.51443845013879
  N   0.63620570331141      2.66232750196046      1.16571357331310
  C   1.35697587969075     -0.67413164541835      0.43124606257250
  H   1.32533558712511     -1.57443495342926     -0.18425807085734
  H   2.39715815728198     -0.37815451219274      0.57186395465633
  H   0.92263197482127     -0.88336867355088      1.40994456654671
  N   -1.75648777543018      0.02560628397857      0.59198186712257
  H   -1.48384109295239     -0.72747110199444      1.20905427845789
  H   -1.79015747852619      0.89680403890256      1.10592382103147
  C   -0.95982270968345     -1.10740139504620     -1.34916060519589
  N   -0.99021088121409     -2.11636997381987     -1.94773098301865
