15
Coordinates from ORCA-job run
  C   0.53942539945057      0.40955014832955     -0.00023069488199
  C   -0.81282363127200     -0.12011533971871     -0.53982125604136
  F   0.75146168717534      1.61364394040860     -0.67161628198403
  H   -0.66174484839418     -0.25091222450936     -1.61849452081990
  C   0.40153418766941      0.71668223621537      1.43235156365223
  N   0.25861813757575      0.93885172342222      2.57669266679110
  C   1.71087635289914     -0.50822359934027     -0.27278151609496
  H   1.75607576178354     -0.72430742059439     -1.34249124687208
  H   2.63644608159849     -0.01424450436593      0.02580374731884
  H   1.61034507236727     -1.44271372583273      0.28058349081628
  N   -1.94463418218526      0.76004413206400     -0.34843528056980
  H   -1.73952346748690      1.66717023198993     -0.74904814080836
  H   -2.15125626727176      0.87655375982392      0.63721299582117
  C   -1.08427787482943     -1.43602535932831      0.04797554935613
  N   -1.27152240907998     -2.48495399856389      0.54029892431674
