15
Coordinates from ORCA-job run
  C   0.60700153797885      0.43365345462066     -0.28379324182314
  C   -0.89066450421672      0.11619404332361     -0.55477752232235
  F   1.20423154809202      0.64305976545833     -1.51841963334034
  H   -1.25618121652058      0.92563144509881     -1.19679897671400
  C   0.65406535370532      1.69686059059326      0.47408707203727
  N   0.64110792066543      2.68697548375451      1.10583824327389
  C   1.35907186152522     -0.66355399807834      0.43950358676184
  H   2.40247767334492     -0.36808637288703      0.55578645419523
  H   0.93884725063345     -0.84191567645978      1.43047689858633
  H   1.31476418373705     -1.58126020621439     -0.14909237727832
  N   -1.75101888586551      0.03048204100304      0.60407770807519
  H   -1.78252808789813      0.90961317826417      1.10440529522659
  H   -1.47278901030422     -0.71270845641500      1.23061527450285
  C   -0.96754486562461     -1.13065653236640     -1.32681298571810
  N   -1.00084075925248     -2.14428875969547     -1.91709579546293
