18
Coordinates from ORCA-job run
  C   -0.57143877731690     -0.45346221385318      0.13569358482868
  C   0.95551409798756     -0.29738407607456      0.07485288660742
  F   -0.74323384878350     -1.56237491137741      0.97555186462202
  H   1.42280540785082     -1.27200010566876     -0.05398319681036
  C   -1.29528644213011      0.71052112705567      0.77285938908667
  H   -0.99012379906213      0.82264667163312      1.81446061847613
  H   -1.09582801270293      1.63747156213715      0.23781196368294
  H   -2.36727357565842      0.50610044349313      0.75526991468506
  C   -1.11788452333072     -0.84147130027401     -1.22460495824379
  H   -0.52898916613698     -1.64982645129690     -1.66544062267550
  H   -1.13613229042445      0.00804281922389     -1.90526665756722
  H   -2.13744046862721     -1.20459318357023     -1.08437852986993
  N   1.49083929530168      0.26890172747888      1.36026014322623
  O   1.64636765799529      1.48361051817342      1.42013438875026
  O   1.67255526482738     -0.54760054785186      2.25490564500160
  N   1.45865833453693      0.57966662387060     -1.02610072446823
  O   2.58462485568877      0.30323282689246     -1.43437917815174
  O   0.75226598998491      1.50651847000860     -1.40964653118022
