18
Coordinates from ORCA-job run
  C   -0.55777345640777     -0.42894844596651      0.15831293821185
  C   0.95944062654480     -0.23673398605166     -0.00428982499113
  F   -0.65967313196846     -1.42556435057330      1.13476284499902
  H   1.40607397566785     -1.07200695675574     -0.53997053699629
  C   -1.30570251952385      0.79832116339834      0.63348872380122
  H   -1.30044599087879      1.57778772816513     -0.13114890475387
  H   -2.34215970755470      0.50944994337711      0.81778218103317
  H   -0.87885659826040      1.19358164987583      1.55122706216189
  C   -1.14231207508976     -0.99728278171876     -1.12028052568271
  H   -0.63546606068727     -1.92556276246946     -1.39082445804426
  H   -1.05555632872363     -0.29437013971793     -1.94861910496596
  H   -2.19785444632790     -1.21740420118021     -0.95115868817698
  N   1.71511984687793     -0.14621425013955      1.28924704655839
  O   2.82931215618814     -0.66565667917727      1.26193002351942
  O   1.20452799719915      0.43460186101512      2.23729690430140
  N   1.26099360228165      0.99992184505875     -0.79825075368383
  O   1.20178104268427      0.86307304010877     -2.01650277371586
  O   1.49855106797874      2.03300732275129     -0.18400215357540
