18
Coordinates from ORCA-job run
  C   -0.56623194764033     -0.28424853140553      0.09983144511755
  C   0.84175356327127      0.30675358091916     -0.03091296870577
  F   -0.45179743700697     -1.55665343943242      0.64627889197655
  H   0.80647553596456      1.37188676528615     -0.25139537222511
  C   -1.40105686802007      0.54628874218966      1.05911722067643
  H   -1.49966611407341      1.57670838857628      0.71175385300957
  H   -2.39489791525827      0.09949786107864      1.11797024531632
  H   -0.96513491656259      0.55391122252683      2.05697503642400
  C   -1.22391357697579     -0.39586766609723     -1.26396760191080
  H   -0.69927087399026     -1.11580061709017     -1.88955057312163
  H   -2.25025501520028     -0.74126488518111     -1.13060241311575
  H   -1.25028905235625      0.57423836276106     -1.76692105924978
  N   1.68682632725159     -0.31127127286818     -1.10357469760916
  O   1.58882482101431     -1.51561941508573     -1.30323291378131
  O   2.44107977878173      0.47189526713669     -1.68076271490160
  N   1.60566467975881      0.16734744072064      1.25914125259377
  O   2.32821609212411     -0.80941980088904      1.39691887096997
  O   1.40367291891794      1.06261799685425      2.07393349853676
