18
Coordinates from ORCA-job run
  C   -0.52802898102467     -0.35691578612716      0.07185838271360
  C   0.80921944008195      0.36770263371050     -0.11654346221039
  F   -0.26241128059195     -1.64329934391368      0.52505604892540
  H   0.68273307394777      1.29806504236193     -0.66680645524221
  C   -1.37880776131521      0.35900218749707      1.10558473332489
  H   -2.35233781886923     -0.13086124835277      1.15789681012754
  H   -1.53465462524394      1.40482569176867      0.82858462144724
  H   -0.91705258000624      0.30835553664164      2.09002587379283
  C   -1.25095535125346     -0.48628937051813     -1.25764889791370
  H   -2.19840083213406     -0.99778996302549     -1.08010576188004
  H   -1.45730677139168      0.49233458737116     -1.69566857009680
  H   -0.66916712414713     -1.07167410313895     -1.96803848818721
  N   1.76728074279626     -0.47140458030561     -0.91985520780667
  O   1.64322485411843     -0.36835050888986     -2.13648387141983
  O   2.55462114619851     -1.18431383903947     -0.31406449700223
  N   1.51332371828742      0.73061517430306      1.15593362525399
  O   2.12668849978524      1.79731796544266      1.11942481295744
  O   1.45203165076201     -0.04732007578552      2.09985030321616
