18
Coordinates from ORCA-job run
  C   -0.61605783370278     -0.25583847628034      0.32401072243766
  C   0.85117068335356      0.15970321644262      0.50366659717360
  F   -0.84326597091590     -1.09261182016267      1.42558457438932
  H   1.03790499517154      0.42210283120168      1.54348767530434
  C   -1.52909070253345      0.94419854936497      0.48664539879394
  H   -1.50747161107308      1.58592811919667     -0.39240804612692
  H   -2.54540396732944      0.57312760174604      0.63006842481369
  H   -1.25475519639868      1.52599840602879      1.37028039009274
  C   -0.89185090248666     -1.06573645993973     -0.92179462105860
  H   -1.95752914407991     -1.29888936579846     -0.95685957211113
  H   -0.34057301776474     -2.00684286706829     -0.89326342090262
  H   -0.61425495760869     -0.51325792202905     -1.81789050655857
  N   1.29163096904881      1.32183518607708     -0.32815049593231
  O   0.73309749839763      1.52476990312246     -1.40147399784601
  O   2.22755121380703      1.96579536700775      0.14032260189890
  N   1.77769948008894     -0.97763359435862      0.17499455800866
  O   2.21127571571546     -1.03707545292202     -0.97050288685141
  O   1.96992274831034     -1.77657322162886      1.08328260447472
