18
Coordinates from ORCA-job run
  C   -0.59741697106434     -0.23402152625060      0.32960950339126
  C   0.86889416044111      0.22155785330655      0.41484080695463
  F   -0.72702808550933     -1.12338576834925      1.40188781970848
  H   1.02010617275029      0.90358017676726      1.24916440181544
  C   -1.51587881506916      0.93927051032546      0.61111405102114
  H   -1.27544444389449      1.38801974004673      1.57681133007764
  H   -1.43888791871764      1.70399864229160     -0.16155788250080
  H   -2.54368702283475      0.57384043701530      0.64694606238998
  C   -0.96564996691237     -0.95513911184025     -0.94937051675857
  H   -1.99035013727535     -1.31753088371927     -0.84782632167450
  H   -0.92775959636580     -0.27678829242215     -1.80414603271326
  H   -0.30677793673193     -1.79944544948463     -1.13273212246195
  N   1.27518295155014      0.95792742047708     -0.82755987016818
  O   1.83649919683471      0.32400976384886     -1.71302424042944
  O   0.96609658983362      2.14542654077890     -0.85272388342637
  N   1.85306872775347     -0.89100290695972      0.63026376320309
  O   2.80712700204923     -0.59089850203036      1.34560612490622
  O   1.66290609316255     -1.96841864380147      0.08269700666522
