18
Coordinates from ORCA-job run
  C   -0.59401271884442     -0.37357923591854      0.18294849716909
  C   0.93493823360853     -0.34150465450714      0.06511041871666
  F   -0.80830854121696     -1.41778935787715      1.09380912162450
  H   1.29655722289862     -1.32655940725381     -0.21722551339735
  C   -1.26650500847383      0.86384293817534      0.73309652165887
  H   -0.96442523165356      1.04604412337438      1.76155492670255
  H   -1.02504325164430      1.74532471829272      0.14006331329141
  H   -2.34545883833003      0.69883008916311      0.70620322157142
  C   -1.17113970071907     -0.80059852312984     -1.15397388683905
  H   -2.22632151962692     -1.03938511038052     -1.01174366446512
  H   -1.09544243218491     -0.00047371819089     -1.89264856646099
  H   -0.66399571740102     -1.68652490450869     -1.54055630652133
  N   1.64143142106642     -0.01417366343897      1.34823463699465
  O   2.42462735339799     -0.87571075937926      1.74339523854053
  O   1.39569797115893      1.05625961519800      1.89213053251585
  N   1.38762379797577      0.60017764502843     -1.00862035893266
  O   1.79193629336157      0.06169171587900     -2.03755402522530
  O   1.28884066662726      1.80512848947380     -0.80322410694360
