18
Coordinates from ORCA-job run
  C   -0.57288640078001     -0.27293434205534      0.09752213719939
  C   0.84445618859134      0.29789829514551     -0.02032488237671
  F   -0.49323927686695     -1.49723449109057      0.74963295915388
  H   0.82742816780598      1.34126513436708     -0.32933753466859
  C   -1.43934223257273      0.63779493563574      0.95000829458793
  H   -1.51309890068920      1.63720894016096      0.51653709100125
  H   -1.04605474751849      0.72355829642277      1.96185356029214
  H   -2.43915258124059      0.20364917448603      1.00208738366960
  C   -1.17381106379711     -0.49085671737799     -1.27969826511739
  H   -1.16559428712440      0.43414737809682     -1.86201715034870
  H   -0.63290092958747     -1.26552629242027     -1.82009267405572
  H   -2.20959532687397     -0.81328755402956     -1.16277635458885
  N   1.73102347681590     -0.41049771822883     -0.99923742418024
  O   1.62864097149072     -1.62620814719728     -1.10779830790381
  O   2.52117022747396      0.31808494886461     -1.59959724616263
  N   1.55126447510009      0.26227481981129      1.30862364877339
  O   2.25857395901281     -0.70361854364557      1.55754058552984
  O   1.32311828076013      1.22328188305463      2.03707417919528
