14

C	-0.352246	0.051544	-1.489095
C	0.0	0.0	0.0
Br	0.105106	-1.706082	-2.27032
H	1.093846	0.0	0.0
C	-1.779202	0.26462	-1.717699
N	-2.932856	0.39627	-1.907115
C	0.434818	1.044036	-2.234617
N	0.990912	1.791974	-2.951627
C	-0.508402	-1.150738	0.697433
N	-0.863759	-2.114725	1.272728
N	-0.373633	1.222951	0.667235
O	-0.538636	2.229148	-0.048015
O	-0.340529	1.225204	1.904725
H	2.311132	0.0	0.0
