14

C	-0.393252	-0.178719	-1.446816
C	0.0	0.0	0.0
Br	-2.380097	-0.257516	-1.698182
H	1.115302	0.0	0.0
C	0.10065	0.865766	-2.348296
N	0.480624	1.600875	-3.184028
C	0.129802	-1.463963	-1.918609
N	0.560324	-2.483636	-2.316713
C	-0.398777	-1.113357	0.821214
N	-0.657639	-2.068974	1.457937
N	-0.390418	1.256522	0.571854
O	-0.346176	1.343643	1.808566
O	-0.588879	2.206852	-0.20438
H	2.283667	0.0	0.0
