14

C	-0.404336	-0.005426	-1.464255
C	0.0	0.0	0.0
Br	0.749295	1.216238	-2.57282
H	1.092122	0.0	0.0
C	-0.182369	-1.337316	-2.026914
N	-0.047008	-2.415542	-2.476522
C	-1.7927	0.384913	-1.6957
N	-2.92948	0.610943	-1.900198
C	-0.414165	-1.188236	0.702692
N	-0.707824	-2.18876	1.249776
N	-0.416111	1.192315	0.702372
O	-0.666943	2.204359	0.029087
O	-0.337741	1.157176	1.938204
H	2.285378	0.0	0.0
