14

C	-0.38378	0.100793	-1.454169
C	0.0	0.0	0.0
Br	-2.337599	0.485936	-1.721224
H	1.11559	0.0	0.0
C	0.35156	1.133153	-2.192318
N	0.914934	1.885421	-2.897932
C	-0.146469	-1.189969	-2.102568
N	0.046141	-2.224537	-2.627283
C	-0.463233	-1.196862	0.644913
N	-0.760256	-2.21458	1.155229
N	-0.295409	1.182234	0.762427
O	-0.308172	1.07244	1.997203
O	-0.331021	2.255813	0.137108
H	2.275937	0.0	0.0
