14

C	-0.345284	0.017898	-1.476949
C	0.0	0.0	0.0
Br	-2.294387	0.284599	-1.804667
H	1.093973	0.0	0.0
C	0.366196	1.051206	-2.238159
N	0.906278	1.796697	-2.970305
C	-0.008696	-1.284347	-2.057131
N	0.245689	-2.328176	-2.535129
C	-0.487754	-1.169888	0.680069
N	-0.829758	-2.167093	1.204346
N	-0.347775	1.214961	0.688955
O	-0.406715	1.168242	1.925127
O	-0.386637	2.252923	0.010118
H	2.304393	0.0	0.0
