14

C	-0.301265	0.00136	-1.501595
C	0.0	0.0	0.0
Br	0.066183	-1.814742	-2.18904
H	1.113008	0.0	0.0
C	-1.701456	0.299843	-1.796232
N	-2.834005	0.507898	-2.036603
C	0.576974	0.90409	-2.262928
N	1.202551	1.571582	-3.002656
C	-0.524203	-1.112321	0.73967
N	-0.882632	-2.049232	1.357651
N	-0.349057	1.257036	0.599868
O	-0.377775	1.316503	1.837368
O	-0.41808	2.238958	-0.165939
H	2.281203	0.0	0.0
