15

C	0.000373	0.004318	0.009174
C	-0.585029	-0.176729	-1.376853
F	1.387312	0.003173	-0.066625
H	-0.266756	0.648642	-2.014552
H	-1.685787	-0.158948	-1.276142
N	-0.307395	1.431597	0.476899
O	-0.242674	2.315969	-0.372386
O	-0.494647	1.608552	1.675393
C	-0.468438	-0.998862	1.016664
H	-1.556471	-0.934699	1.08924
H	-0.007081	-0.804027	1.983071
H	-0.18374	-1.992927	0.666496
C	-0.139141	-1.438892	-1.952379
N	0.227377	-2.450431	-2.422011
Cl	-3.718771	-0.0668	-0.222772
