15

C	-0.001428	0.00102	0.010904
C	-0.584407	0.320411	-1.350971
F	1.385459	0.022512	-0.058735
H	-0.262679	1.316175	-1.657833
H	-1.685363	0.30557	-1.251724
N	-0.30724	1.173713	0.950279
O	-0.240647	2.300027	0.466004
O	-0.493206	0.918585	2.134814
C	-0.475066	-1.290816	0.601072
H	-0.192509	-2.099384	-0.075823
H	-0.014357	-1.449253	1.574449
H	-1.562983	-1.252647	0.691215
C	-0.141076	-0.660787	-2.332689
N	0.220716	-1.446021	-3.126805
Cl	-3.72094	0.025072	-0.238202
