15

C	-0.003302	0.003606	0.008649
C	-0.593284	-0.183857	-1.37467
F	1.382592	0.01376	-0.073563
H	-0.269497	0.634196	-2.019172
H	-1.693297	-0.153423	-1.272131
N	-0.322765	1.429821	0.473769
O	-0.264917	2.311513	-0.378711
O	-0.509604	1.609123	1.671787
C	-0.459521	-1.002254	1.019531
H	-0.138303	-1.990985	0.685922
H	-1.549842	-0.969636	1.075586
H	-0.018035	-0.78312	1.990016
C	-0.158926	-1.453495	-1.942356
N	0.202707	-2.468536	-2.408258
Cl	-3.712694	-0.030928	-0.192736
