15

C	0.01949	-0.005222	0.013948
C	-0.557368	-0.286762	-1.358813
F	1.40673	-0.005563	-0.05435
H	-1.658755	-0.261744	-1.266843
H	-0.235677	0.490826	-2.052478
N	-0.297004	1.450273	0.377325
O	-0.230891	2.27232	-0.532357
O	-0.490918	1.711316	1.559274
C	-0.450576	-0.936135	1.087974
H	-1.539125	-0.871698	1.151998
H	-0.161286	-1.951664	0.810737
H	0.006004	-0.671421	2.039964
C	-0.107352	-1.586452	-1.839481
N	0.264396	-2.627351	-2.235
Cl	-3.697818	-0.112097	-0.233796
