19

C	0.0	0.0	0.0
C	-0.350354	0.046071	-1.516247
Br	2.080701	0.0	0.0
H	0.349765	0.760462	-1.962655
C	-0.418738	1.250307	0.7414
H	-0.00887	1.253073	1.75462
H	-0.059373	2.143206	0.227014
H	-1.511187	1.256337	0.791896
N	-0.511333	-1.131853	0.624461
H	-0.467563	-1.117533	1.631924
H	-0.199401	-2.010356	0.242175
N	-1.690064	0.509139	-1.803092
H	-2.412303	0.012562	-1.276702
H	-1.799068	1.483178	-1.55329
C	-0.161369	-1.311324	-2.184298
H	0.815807	-1.750376	-1.97045
H	-0.267129	-1.183829	-3.26262
H	-0.954027	-1.991695	-1.860612
Cl	-4.395193	0.0	0.0
