19

C	0.0	0.0	0.0
C	-0.331053	0.055268	-1.542774
Br	1.974363	0.0	0.0
H	0.420496	0.721395	-1.980167
C	-0.447799	1.269643	0.703287
H	-0.055889	1.284861	1.721451
H	-0.092601	2.154853	0.169964
H	-1.5411	1.282192	0.740385
N	-0.504967	-1.120595	0.737068
H	-1.505184	-0.974077	0.872351
H	-0.375174	-1.981613	0.219994
N	-1.624328	0.59813	-1.89824
H	-2.396072	0.114698	-1.438856
H	-1.700772	1.561216	-1.594779
C	-0.200316	-1.317351	-2.192055
H	-0.249388	-1.199106	-3.27537
H	0.737199	-1.815186	-1.93115
H	-1.041953	-1.950462	-1.896613
Cl	-4.132339	0.0	0.0
