19

C	0.0	0.0	0.0
C	-0.299748	0.162893	-1.515896
Br	2.006242	0.0	0.0
H	0.184022	-0.708187	-1.993448
C	-0.513157	1.148338	0.835399
H	-0.190045	1.029193	1.870802
H	-0.16241	2.095722	0.432672
H	-1.608362	1.12282	0.799146
N	-0.437404	-1.244985	0.553885
H	-0.328709	-1.99327	-0.12229
H	-1.424581	-1.166141	0.790394
N	0.232696	1.431446	-2.01716
H	1.23296	1.362966	-2.155416
H	-0.199317	1.632005	-2.911414
C	-1.781925	0.11608	-1.834804
H	-1.903683	0.094521	-2.924516
H	-2.288049	-0.752953	-1.421911
H	-2.311937	0.980878	-1.442651
Cl	-4.513538	0.0	0.0
