19

C	0.0	0.0	0.0
C	-0.324275	0.165979	-1.50823
Br	1.98564	0.0	0.0
H	0.198621	-0.670452	-1.996069
C	-0.484994	1.154831	0.854536
H	-0.143027	1.030992	1.885938
H	-0.138615	2.108876	0.460834
H	-1.580318	1.1326	0.844835
N	-0.442133	-1.304199	0.437329
H	-1.461266	-1.300396	0.384868
H	-0.203389	-1.41858	1.417635
N	0.153208	1.472686	-1.973508
H	-0.298933	1.68477	-2.85405
H	1.152258	1.439723	-2.133806
C	-1.80292	0.058655	-1.835057
H	-2.237407	-0.895601	-1.548404
H	-1.925832	0.155985	-2.919784
H	-2.402403	0.824463	-1.349256
Cl	-4.555668	0.0	0.0
