19

C	0.0	0.0	0.0
C	-0.346774	0.025368	-1.534166
Br	1.978355	0.0	0.0
H	0.408589	0.679395	-1.983189
C	-0.430025	1.286582	0.690072
H	-0.051719	1.309504	1.716115
H	-0.056004	2.17199	0.168004
H	-1.523298	1.301273	0.71451
N	-0.509166	-1.18697	0.630746
H	-0.454067	-1.080286	1.638397
H	-1.503285	-1.239322	0.402154
N	-1.631732	0.583759	-1.901434
H	-1.692383	1.554454	-1.619644
H	-2.416686	0.120918	-1.443978
C	-0.220177	-1.360697	-2.155553
H	0.72173	-1.8443	-1.892313
H	-1.038264	-2.00238	-1.820074
H	-0.295644	-1.259247	-3.240676
Cl	-4.135252	0.0	0.0
