15

C	-0.382363	0.082277	-1.464933
C	0.0	0.0	0.0
Br	0.137607	-1.528311	-2.414422
H	1.104138	0.0	0.0
N	-1.907083	0.214579	-1.690933
O	-2.282569	0.734666	-2.735398
O	-2.628321	-0.236012	-0.808828
C	0.245465	1.227161	-2.114636
N	0.737636	2.15467	-2.642865
N	-0.388555	-1.237319	0.638749
H	-1.275211	-1.166575	1.116685
H	0.34742	-1.476959	1.289461
C	-0.470708	1.210223	0.663233
N	-0.842867	2.182322	1.213544
F	2.485796	0.0	0.0
