15

C	-0.567451	0.003771	-1.4113
C	0.0	0.0	0.0
Br	0.106063	1.514331	-2.432646
H	1.096876	0.0	0.0
N	-0.117708	-1.261555	-2.156835
O	-0.877418	-1.659185	-3.037309
O	0.959227	-1.736431	-1.85048
C	-2.025003	0.029088	-1.427938
N	-3.198023	0.060786	-1.350418
N	-0.430025	-1.252065	0.625026
H	-1.138522	-1.107378	1.333711
H	0.398147	-1.660139	1.044949
C	-0.462301	1.181639	0.711825
N	-0.839928	2.100153	1.343637
F	2.495562	0.0	0.0
