15

C	-0.461758	-0.012649	-1.460302
C	0.0	0.0	0.0
Br	0.253853	1.505815	-2.435546
H	1.093237	0.0	0.0
N	0.075273	-1.288805	-2.13555
O	1.274019	-1.478122	-2.07158
O	-0.757367	-1.997557	-2.695887
C	-1.914186	-0.015735	-1.59559
N	-3.087803	0.032908	-1.659051
N	-0.459409	-1.24524	0.594578
H	0.258464	-1.571086	1.229787
H	-1.337914	-1.143391	1.087911
C	-0.493273	1.20084	0.660043
N	-0.869086	2.149144	1.247698
F	2.496792	0.0	0.0
