15

C	-0.568369	0.018222	-1.413232
C	0.0	0.0	0.0
Br	0.162753	1.492678	-2.447957
H	1.097689	0.0	0.0
N	-0.164329	-1.277868	-2.128252
O	-1.038487	-1.823432	-2.79801
O	0.990861	-1.636838	-1.997889
C	-2.024862	0.105155	-1.430405
N	-3.191626	0.219481	-1.336576
N	-0.416239	-1.258485	0.611514
H	0.402508	-1.645026	1.066739
H	-1.15951	-1.140271	1.287259
C	-0.455576	1.178274	0.722682
N	-0.820992	2.096714	1.361437
F	2.494159	0.0	0.0
