15

C	-0.447473	-0.015309	-1.473296
C	0.0	0.0	0.0
Br	0.353458	1.444115	-2.475087
H	1.09358	0.0	0.0
N	0.020467	-1.312106	-2.162382
O	1.042663	-1.830524	-1.748661
O	-0.669145	-1.699069	-3.103806
C	-1.897868	0.039251	-1.629984
N	-3.071284	0.113179	-1.680607
N	-0.493277	-1.132426	0.749887
H	-1.485481	-1.307609	0.632752
H	0.0615	-1.950112	0.540811
C	-0.483634	1.240288	0.593339
N	-0.884799	2.229005	1.087863
F	2.502779	0.0	0.0
