15

C	-0.381351	0.045882	-1.465984
C	0.0	0.0	0.0
Br	0.183132	-1.572217	-2.378425
H	1.102899	0.0	0.0
N	-1.909688	0.138657	-1.704336
O	-2.287203	0.520696	-2.805511
O	-2.627611	-0.200091	-0.771454
C	0.217657	1.191954	-2.141254
N	0.676055	2.126979	-2.68662
N	-0.392456	-1.224694	0.662973
H	-1.266446	-1.132725	1.162692
H	0.357224	-1.469007	1.297125
C	-0.464603	1.225294	0.640146
N	-0.831922	2.210985	1.169462
F	2.48579	0.0	0.0
