17

C	0.0	0.0	0.0
C	-0.572689	-0.054369	-1.429041
Br	1.965486	0.0	0.0
H	-1.665189	0.041988	-1.266978
C	-0.477563	1.241073	0.744912
H	-0.140318	2.135457	0.217688
H	-1.571065	1.205439	0.768635
H	-0.079616	1.251546	1.760724
C	-0.367499	-1.217609	0.727057
N	-0.579261	-2.206622	1.32644
C	-0.297085	-1.355759	-2.179543
H	-0.760648	-1.309695	-3.166759
H	0.774668	-1.528635	-2.299815
H	-0.742285	-2.189648	-1.633872
C	-0.113037	1.100301	-2.19719
N	0.257316	2.007542	-2.845917
Br	-3.802827	0.0	0.0
