17

C	0.0	0.0	0.0
C	-0.582182	-0.129503	-1.419803
Br	1.956636	0.0	0.0
H	-1.674469	-0.024775	-1.257177
C	-0.471971	1.2821	0.680287
H	-0.068061	1.346404	1.691556
H	-1.565769	1.253926	0.71073
H	-0.133258	2.145229	0.103113
C	-0.372424	-1.173825	0.794555
N	-0.583576	-2.12483	1.452793
C	-0.310483	-1.470065	-2.101029
H	0.760708	-1.653698	-2.208922
H	-0.761304	-2.272146	-1.513856
H	-0.771324	-1.473929	-3.090948
C	-0.120806	0.980675	-2.249975
N	0.264962	1.84897	-2.942259
Br	-3.819483	0.0	0.0
