17

C	0.0	0.0	0.0
C	-0.551992	0.121436	-1.435275
Br	1.964191	0.0	0.0
H	-1.646639	0.19735	-1.283326
C	-0.478552	1.14459	0.883498
H	-0.116378	2.092738	0.480544
H	-0.103111	1.021216	1.900722
H	-1.572938	1.122625	0.881742
C	-0.375728	-1.297303	0.565132
N	-0.602074	-2.363567	1.005616
C	-0.25336	-1.077514	-2.334081
H	-0.677222	-0.904824	-3.325234
H	0.821964	-1.240474	-2.434928
H	-0.719488	-1.970473	-1.914834
C	-0.0761	1.361418	-2.04489
N	0.31525	2.349511	-2.546597
Br	-3.791959	0.0	0.0
