17

C	-0.349165	-0.065902	-1.469407
C	0.0	0.0	0.0
Br	-2.309399	-0.162165	-1.766452
H	1.097878	0.0	0.0
H	-0.362764	0.938503	0.41762
N	0.031158	1.268782	-2.126729
O	0.491801	1.229001	-3.263064
O	-0.184904	2.290777	-1.485975
C	0.327525	-1.199159	-2.199725
H	1.404922	-1.106792	-2.026802
H	-0.021535	-2.147	-1.789753
H	0.115968	-1.170385	-3.266157
C	-0.470186	-1.190909	0.82538
H	-0.144752	-1.046198	1.858297
H	-1.557534	-1.300405	0.818023
H	-0.017217	-2.121656	0.47996
Br	3.589106	0.0	0.0
