15

C	-0.321621	0.182034	-1.5601
C	0.175585	0.06529	-0.130743
Br	1.11456	0.016418	-2.824094
H	1.133399	0.587512	0.032198
H	-0.814712	1.134552	-1.743027
N	-1.384288	-0.873486	-1.794139
O	-2.330916	-0.773028	-1.013706
O	-1.274691	-1.710153	-2.676575
N	0.415608	-1.255327	0.28734
H	1.284883	-1.148608	0.858524
H	-0.346971	-1.600141	0.856254
N	-0.797605	0.846663	0.744883
O	-1.07938	1.989399	0.381271
O	-1.196152	0.325692	1.781124
H	2.466791	0.113438	1.143899
