12
Coordinates from ORCA-job run
  C   0.68843254626277     -0.12170334035385      0.48765473295524
  C   -0.58017207544862     -0.73926963858986     -0.10598290392088
  Br  1.52742513485160     -1.55643541679107      1.54629068367143
  H   -1.25518332707508     -1.06689751832268      0.68553953425989
  H   -0.33060320392755     -1.58495944556983     -0.74783011950678
  C   0.38430077961444      0.98197063380793      1.39432577696517
  N   0.12135767193621      1.83722260957398      2.15654694538112
  C   1.63555174909777      0.27837705108311     -0.54964588480048
  N   2.40671029564792      0.55350363446917     -1.39298361277056
  N   -1.34204419055381      0.24006291602267     -0.95155567068920
  O   -0.88886393614813      1.37495653494190     -1.06975304006104
  O   -2.36691144425751     -0.19982802027148     -1.45460644148391
