17

C	-0.339175	0.092071	-1.478742
C	0.0	0.0	0.0
F	-0.260015	-1.209234	-2.065062
H	1.09939	0.0	0.0
H	-1.381858	0.388051	-1.668576
N	0.558209	0.996095	-2.101305
H	1.508328	0.788564	-1.784906
H	0.501735	0.922534	-3.108467
C	-0.541107	-1.258666	0.653633
H	-1.636767	-1.309184	0.591271
H	-0.128008	-2.148731	0.179358
H	-0.259305	-1.276	1.710907
C	-0.473028	1.259649	0.714343
H	-1.569941	1.322936	0.737275
H	-0.109543	1.261897	1.746266
H	-0.082534	2.149449	0.217953
H	3.072722	0.0	0.0
