17

C	-0.475229	0.030097	-1.440436
C	0.0	0.0	0.0
F	-0.165503	1.278872	-1.990245
H	1.095931	0.0	0.0
H	0.095457	-0.699364	-2.024034
N	-1.888342	-0.196433	-1.640984
H	-2.393439	-0.077404	-0.774571
H	-2.059731	-1.129023	-1.98856
C	-0.39355	-1.317827	0.660567
H	0.140178	-1.41411	1.609995
H	-1.469924	-1.40323	0.859551
H	-0.090674	-2.168555	0.040835
C	-0.482917	1.201845	0.79879
H	-0.167737	2.126842	0.315555
H	-1.575225	1.229345	0.922489
H	-0.034293	1.176256	1.795629
H	3.039947	0.0	0.0
