14

C	0.0	0.0	0.0
C	-0.462681	-0.168551	-1.442246
Br	1.970227	0.0	0.0
H	-0.060855	-1.114703	-1.826069
H	-0.277606	0.98914	0.368039
H	-1.551005	-0.261072	-1.370923
N	-0.494216	-0.976326	0.927811
H	-0.402947	-1.895919	0.50689
H	-1.498636	-0.786608	0.999284
C	-0.108357	0.985359	-2.371036
H	-0.567146	0.837178	-3.352758
H	0.970592	1.087806	-2.507588
H	-0.497094	1.925138	-1.968088
Cl	-3.662461	0.0	0.0
