14

C	0.0	0.0	0.0
C	-0.442898	0.205071	-1.450474
Br	1.968933	0.0	0.0
H	-1.512166	0.424665	-1.393822
H	-0.255216	0.885567	0.583913
H	0.073161	1.081704	-1.8512
N	-0.507047	-1.1516	0.688241
H	-0.380008	-1.970718	0.105234
H	-1.515895	-0.990102	0.774241
C	-0.227383	-1.003199	-2.353561
H	-0.936029	-1.795834	-2.113066
H	0.78851	-1.398845	-2.277535
H	-0.401067	-0.72916	-3.395235
Cl	-3.688998	0.0	0.0
