16

C	0.04839	-0.031356	0.016445
C	-0.551115	-0.123619	-1.371565
Cl	1.904704	0.216264	-0.115536
H	-1.649352	-0.217592	-1.163189
H	0.008847	-1.009795	0.497347
N	-0.568622	1.040736	0.693484
H	-1.601459	1.005235	0.442849
H	-0.476955	0.916484	1.694816
N	-0.112235	-1.378406	-2.038094
O	0.209129	-1.33828	-3.228401
O	-0.144055	-2.416958	-1.373353
C	-0.336191	1.090715	-2.239691
H	-0.929745	1.010905	-3.150886
H	-0.675672	1.957048	-1.672374
H	0.713748	1.214882	-2.505152
H	-3.016286	0.60916	-0.206457
