16

C	0.045475	-0.028634	0.015299
C	-0.56233	-0.12745	-1.368671
Cl	1.899894	0.226604	-0.12931
H	-1.658679	-0.226097	-1.15325
H	0.013354	-1.005924	0.499099
N	-0.571922	1.042553	0.693235
H	-0.473916	0.921288	1.694328
H	-1.606165	1.002456	0.448744
N	-0.121592	-1.381982	-2.034545
O	-0.145287	-2.418966	-1.367039
O	0.193286	-1.34341	-3.226622
C	-0.358591	1.085534	-2.241366
H	0.689126	1.214218	-2.513351
H	-0.699112	1.951705	-1.674432
H	-0.957097	1.000242	-3.148822
H	-3.023268	0.599457	-0.189532
