13

C	0.0	0.0	0.0
C	-0.294875	0.07238	-1.524319
Cl	1.769947	0.0	0.0
H	0.499319	0.688889	-1.946131
H	-0.134908	-0.946096	-1.894692
N	-0.38762	1.279964	0.731681
O	-0.418797	2.287906	0.042448
O	-0.49152	1.202529	1.944982
C	-0.471673	-1.183169	0.704297
N	-0.546293	-2.224018	1.246707
C	-1.519495	0.599345	-2.127832
N	-2.171143	1.057504	-2.995787
Cl	-2.968786	0.0	0.0
