13

C	0.0	0.0	0.0
C	-0.554988	-0.255095	-1.393708
Cl	1.750569	0.0	0.0
H	-1.656537	-0.229562	-1.276781
H	-0.233152	0.556005	-2.048449
N	-0.418602	1.405987	0.471316
O	-0.510667	1.564718	1.677191
O	-0.516223	2.256788	-0.399204
C	-0.43783	-0.98841	0.983078
N	-0.70098	-1.855757	1.731174
C	-0.104585	-1.535797	-1.914263
N	0.254287	-2.560947	-2.360396
Cl	-3.390553	0.0	0.0
