13

C	0.0	0.0	0.0
C	-0.538628	0.23922	-1.405874
Cl	1.769942	0.0	0.0
H	-0.388679	-0.684991	-1.971701
H	-1.63034	0.382139	-1.283004
N	-0.412702	1.124292	0.959142
O	-0.598012	2.219397	0.454141
O	-0.426425	0.837248	2.145629
C	-0.445218	-1.283766	0.533362
N	-0.632367	-2.387593	0.890923
C	0.087805	1.337348	-2.12631
N	0.538003	2.177807	-2.811677
Cl	-3.335656	0.0	0.0
