13

C	0.0	0.0	0.0
C	-0.541449	-0.341622	-1.380795
Cl	1.767684	0.0	0.0
H	-1.64339	-0.300749	-1.276334
H	-0.204756	0.424312	-2.081661
N	-0.414434	1.431638	0.379102
O	-0.491791	2.229139	-0.543476
O	-0.52872	1.664808	1.57132
C	-0.436076	-0.927141	1.042502
N	-0.627326	-1.734916	1.875045
C	-0.095885	-1.65831	-1.807811
N	0.268148	-2.713895	-2.170055
Cl	-3.373688	0.0	0.0
