13

C	0.0	0.0	0.0
C	-0.541573	0.010205	-1.422853
Cl	1.750368	0.0	0.0
H	-1.643958	0.021672	-1.316783
H	-0.204319	0.925168	-1.912962
N	-0.421023	1.293779	0.721238
O	-0.530311	1.225216	1.93389
O	-0.504624	2.292315	0.022884
C	-0.447424	-1.151272	0.780056
N	-0.667773	-2.147034	1.366775
C	-0.092091	-1.156111	-2.165789
N	0.271891	-2.080164	-2.792405
Cl	-3.369765	0.0	0.0
