16

C	-0.510419	-0.052893	-1.407753
C	0.0	0.0	0.0
F	-1.932416	-0.092172	-1.419424
H	1.091756	0.0	0.0
H	-0.34845	0.933584	0.442844
N	-0.305485	1.275812	-2.165529
O	-0.143587	2.30662	-1.522557
O	-0.400985	1.211216	-3.389348
N	0.034953	-1.062322	-2.179636
H	-0.492313	-1.305724	-2.999403
H	0.398951	-1.832213	-1.649695
C	-0.48352	-1.194836	0.816595
H	0.017433	-2.118972	0.511086
H	-1.564758	-1.342596	0.750323
H	-0.215725	-1.038272	1.864749
H	2.980301	0.0	0.0
