16

C	-0.496053	0.061185	-1.413003
C	0.0	0.0	0.0
F	0.069672	1.139318	-2.066668
H	1.093143	0.0	0.0
H	-0.344384	-0.933327	0.447325
N	-0.053983	-1.157355	-2.231073
O	0.187595	-2.197071	-1.634569
O	-0.062	-1.012384	-3.452636
N	-1.912111	0.067765	-1.563667
H	-2.303488	0.784561	-0.96736
H	-2.13774	0.27792	-2.530626
C	-0.460059	1.208806	0.81117
H	-1.525237	1.192718	1.072528
H	-0.238194	2.135452	0.276662
H	0.112199	1.23342	1.74131
H	2.979226	0.0	0.0
