16

C	-0.355679	-0.111535	-1.456991
C	0.0	0.0	0.0
F	-1.704091	-0.342433	-1.649923
H	1.093486	0.0	0.0
H	-0.389402	0.935235	0.409145
N	-0.099091	1.257888	-2.105044
O	-0.901368	2.143168	-1.815467
O	0.880355	1.386855	-2.82866
N	0.369604	-1.082634	-2.215088
H	0.101527	-1.99	-1.853536
H	1.356096	-0.944438	-1.996489
C	-0.478967	-1.198082	0.808787
H	-0.026953	-2.123288	0.441441
H	-0.148532	-1.082826	1.843526
H	-1.566926	-1.3087	0.797406
H	2.928106	0.0	0.0
