16

C	-0.306413	-0.168079	-1.482287
C	0.0	0.0	0.0
F	-1.353123	-1.038711	-1.696558
H	1.092737	0.0	0.0
H	-0.301622	-0.953297	0.449528
N	-0.794649	1.172237	-2.075463
O	-1.949172	1.260591	-2.490147
O	0.03535	2.072483	-2.077564
N	0.807489	-0.580377	-2.267686
H	0.717506	-1.57244	-2.446206
H	1.679012	-0.411345	-1.74445
C	-0.628312	1.171896	0.734086
H	-0.192564	2.113986	0.398394
H	-0.425785	1.078358	1.804399
H	-1.71397	1.218644	0.595859
H	2.946413	0.0	0.0
