16

C	-0.297287	-0.084782	-1.481896
C	0.0	0.0	0.0
F	-1.525171	-0.6697	-1.764538
H	1.08928	0.0	0.0
H	-0.325641	-0.959256	0.414125
N	-0.516236	1.361412	-2.051969
O	-1.632301	1.862831	-1.936152
O	0.460406	1.919316	-2.546787
N	0.73115	-0.758025	-2.134273
H	1.637559	-0.569425	-1.68317
H	0.766279	-0.570352	-3.12561
C	-0.588096	1.168289	0.769122
H	-0.318084	1.06622	1.8236
H	-1.676489	1.225097	0.689146
H	-0.166595	2.114587	0.421748
H	2.934476	0.0	0.0
