11

C	0.0	0.0	0.0
C	-0.447274	0.505619	-1.350543
Br	2.037877	0.0	0.0
H	-0.000852	-0.081687	-2.153699
H	-0.225131	-1.055886	0.131453
H	-0.150707	1.550308	-1.48298
H	-1.539324	0.427191	-1.366565
N	-0.529701	0.731789	1.045042
H	-0.428705	0.354017	1.969771
H	-0.422391	1.730269	0.990283
Br	-4.041863	0.0	0.0
