13

C	0.0	0.0	0.0
C	-0.489263	-0.008504	-1.439471
Cl	1.802477	0.0	0.0
H	-0.107829	-0.907038	-1.934389
H	-1.587018	-0.019591	-1.329973
H	-0.129007	0.872698	-1.976398
C	-0.413592	1.232542	0.681352
N	-0.604023	2.24678	1.242101
C	-0.489271	-1.223488	0.758436
H	-0.129294	-1.209291	1.790331
H	-0.107563	-2.120509	0.26099
H	-1.587023	-1.136801	0.690571
F	-2.829539	0.0	0.0
