13

C	0.0	0.0	0.0
C	-0.520665	0.009232	-1.427044
Cl	1.802196	0.0	0.0
H	-1.61763	0.019648	-1.285323
H	-0.157983	0.885187	-1.970748
H	-0.181434	-0.897495	-1.937132
C	-0.394605	1.239188	0.686259
N	-0.568271	2.255045	1.248845
C	-0.520672	-1.204718	0.764978
H	-0.157994	-1.200839	1.79595
H	-1.617637	-1.079044	0.698614
H	-0.18143	-2.118167	0.267023
F	-2.877785	0.0	0.0
