14
Coordinates from ORCA-job run
  C   0.71688531650048      0.33973046679283     -0.34738741993736
  C   -0.75700157490764     -0.05417048113823     -0.22346585135838
  F   0.98435425715996      0.51861008965018     -1.70082473984816
  H   -0.87210703450504     -1.03635304349275     -0.69356160809653
  H   0.87102175858637      1.31003910751396      0.13933462964658
  C   1.64774549232436     -0.70848455567116      0.20847130935303
  H   1.43432452578912     -0.88313537075019      1.26214568891413
  H   1.51923679546273     -1.64424026011109     -0.34050197122906
  H   2.68278062270182     -0.38213081804826      0.09535626822731
  C   -1.59997403697356      0.90246047795685     -0.96886275235219
  N   -2.30443928661239      1.68401520041186     -1.49056239885919
  N   -1.11348090357565     -0.17399327320250      1.18517121710849
  H   -1.19267570005113      0.74890797015792      1.59767520332631
  H   -2.01667023189941     -0.62225551006942      1.27801242510502
