14
Coordinates from ORCA-job run
  C   0.52800580228052     -0.64166349481934     -0.07418442347551
  C   -0.74880254286152      0.19943858354483     -0.14313276228238
  F   0.53373122513993     -1.35173006310813      1.11277161807235
  H   -0.67168800277148      0.81541311560214     -1.05481517338286
  H   0.48665996608991     -1.37739373573668     -0.88771003816001
  C   1.79166176516961      0.18348410709038     -0.15664365990533
  H   2.66059443156843     -0.47442188543954     -0.11133853676988
  H   1.84313809193338      0.87855783653196      0.68352002587255
  H   1.83307723776002      0.74911483640052     -1.09038586529350
  C   -0.79369331337436      1.12854972087973      0.99330986925880
  N   -0.82593007249752      1.89600980013331      1.88006940650492
  N   -1.92709169569940     -0.65991698962724     -0.10698897327835
  H   -1.93970770318574     -1.24694482404115     -0.93278540054269
  H   -2.76995518955179     -0.09849700741078     -0.11068608661811
