14
Coordinates from ORCA-job run
  C   0.56274098784544     -0.35116372154875     -0.67874667997083
  C   -0.85629362034290      0.13374103827327     -0.36296062289092
  F   0.44740256814264     -1.73122357541194     -0.88478618550955
  H   -1.47407150352297     -0.10826803478604     -1.24178644269830
  H   0.88276315176239      0.08324236442717     -1.63065747530915
  C   1.56990873888474     -0.09594676242269      0.41406818248553
  H   1.22664582428298     -0.52925352479305      1.35213370612633
  H   2.52647952969293     -0.54119969811250      0.13573634661723
  H   1.71298226015525      0.97735153313912      0.55507116734807
  C   -0.85066224898702      1.59327993112035     -0.21661901179564
  N   -0.84109723693157      2.76267688636137     -0.11669232161351
  N   -1.32028310507050     -0.49039342282092      0.87107467741857
  H   -2.27215088639116     -0.20715299531778      1.06903356925192
  H   -1.31336445952024     -1.49469001810763      0.73513109054025
