14
Coordinates from ORCA-job run
  C   0.54762174434884     -0.33766763826484     -0.69769598237375
  C   -0.86780258281466      0.12674049875388     -0.33742482202358
  F   0.44297676511337     -1.71706991024264     -0.91414576157750
  H   -1.50663547373865     -0.11254199508461     -1.20182286651458
  H   0.83541218040421      0.10970673424021     -1.65391109769104
  C   1.58184096960984     -0.08045806940021      0.36903936926907
  H   2.53424656051409     -0.51546992167536      0.06207324273305
  H   1.71960432046754      0.99308078353901      0.51284314286299
  H   1.26791415036942     -0.52252073664221      1.31312855223724
  C   -0.87437934684338      1.58446403496383     -0.17440516520770
  N   -0.87441013017081      2.75260703848406     -0.06199120354855
  N   -1.29020323934891     -0.51700003514135      0.90139604644276
  H   -1.27765829666284     -1.51937463442517      0.75266242304358
  H   -2.23852762124804     -0.24549614910460      1.13025412234802
