14
Coordinates from ORCA-job run
  C   0.66776317279045      0.09276131121027     -0.58583289872976
  C   -0.79778161210275      0.08546449532786     -0.14741925359592
  F   0.70322327583842     -0.34939604227729     -1.90570687676219
  H   -1.18456582844322     -0.93061835460562     -0.31933424634932
  H   1.03540682496937      1.12220663004169     -0.56882838686332
  C   1.53015909755980     -0.81355671347562      0.25845178239303
  H   1.12894138198272     -1.83059631926350      0.25984964958405
  H   2.53901331494575     -0.84604524449898     -0.15542021465877
  H   1.58977805396368     -0.44068035728293      1.28156318103402
  C   -1.57205314163254      0.99205907039566     -1.00160358460878
  N   -2.19966170318400      1.73240012287240     -1.66103363093802
  N   -0.88295095728254      0.52683344640771      1.24670944825087
  H   -0.76731422935923     -0.27040159968152      1.85978157860622
  H   -1.79095765004591      0.93056955482986      1.43782345263788
