14
Coordinates from ORCA-job run
  C   0.73546473593280      0.21623198328934     -0.45808431552884
  C   -0.77108399911284      0.03350819496047     -0.26456118930236
  F   1.01474116155663     -0.06859206187685     -1.79221652006239
  H   -1.02057072294668     -0.98597835069553     -0.59617633099985
  H   0.98892082902710      1.26483452393470     -0.28066936527594
  C   1.54897093048823     -0.70274018982478      0.42036965826333
  H   1.41550623369509     -0.44407077963696      1.47146021920700
  H   2.60663138330615     -0.60183023513213      0.17279778049956
  H   1.25806796463761     -1.74400764480920      0.25726672607364
  C   -1.49585093084993      0.96191890822456     -1.13820340821362
  N   -2.09200881919613      1.71047406658452     -1.81720159933507
  N   -1.11070408690229      0.30443087323182      1.13427975396081
  H   -1.00272045849012     -0.54319024927241      1.67705254977920
  H   -2.07536422114562      0.59901096102242      1.21588604093454
