14
Coordinates from ORCA-job run
  C   0.68467792767764      0.36363595676966     -0.26518791969813
  C   -0.82125523670528      0.07499941996798     -0.35154531610890
  F   1.12361128606169      0.64322492331979     -1.55603682508438
  H   -0.94731969162469     -0.77185973220459     -1.03603230088040
  H   0.84768273338864      1.26711975369398      0.33380233254045
  C   1.48415206138792     -0.80069744263612      0.27132345703069
  H   2.54847474265768     -0.57176271092124      0.20202326939568
  H   1.28765783548392     -1.69944244588495     -0.31851399398230
  H   1.24866871569247     -0.99847522184563      1.31812171556477
  C   -1.49861319334449      1.23240788557271     -0.95506763534874
  N   -2.02079098532418      2.18100099432001     -1.40660219034914
  N   -1.47760602606244     -0.25712905230305      0.90385089717044
  H   -1.33190736325112      0.47053781665304      1.59302436215787
  H   -1.12743280603775     -1.13256014450160      1.26884014759208
