14
Coordinates from ORCA-job run
  C   0.45902976636236     -0.58349923762304      0.16993559095375
  C   -0.77865429210494      0.13866673942588     -0.37622990465416
  F   0.29276564116826     -0.69728928016949      1.55081515195900
  H   -0.69340177057579      0.16695547902286     -1.46899385892135
  H   0.44861273365913     -1.60465146138755     -0.22947397121452
  C   1.77082677051794      0.10636984492467     -0.11264475595264
  H   1.91975116727587      0.22518511456823     -1.18883329137084
  H   2.59614302356114     -0.48405768040859      0.28784045679348
  H   1.78812527999091      1.09116098828718      0.35669952823165
  C   -0.78898830557634      1.53141273299529      0.09863475508423
  N   -0.76714548086492      2.63464672264487      0.49733044866953
  N   -2.04922264660613     -0.48778105910315     -0.03811324064722
  H   -2.12298927660359     -1.38181387233313     -0.50876390911193
  H   -2.07585261020388     -0.65630503084400      0.96079700018102
