14
Coordinates from ORCA-job run
  C   0.56182660727639     -0.33023480699535     -0.69122479318612
  C   -0.85654254797846      0.14648605070257     -0.35952477354603
  F   0.44425355803719     -1.70322683223687     -0.94010357063125
  H   -1.47509952882160     -0.06401772661478     -1.24588767537207
  H   0.88214103506319      0.13287763787474     -1.62939717375390
  C   1.56953118181513     -0.11043197502802      0.40874574800574
  H   2.52299321156249     -0.55564292399379      0.12021256103943
  H   1.72078329276158      0.95772305964848      0.57662472677658
  H   1.22182238026741     -0.56490121678192      1.33489371821335
  C   -0.84785652216313      1.60014248173873     -0.16341036026847
  N   -0.83419719264550      2.76350464314804     -0.00977982586818
  N   -1.32139057604927     -0.51734773178732      0.85317699234972
  H   -2.27162763293995     -0.23742655941100      1.06298249234698
  H   -1.31763726618549     -1.51650410026351      0.68369193389422
