14
Coordinates from ORCA-job run
  C   0.53142472942920     -0.32400290379481     -0.69578697828629
  C   -0.91566748771022      0.13582580556840     -0.44847592690934
  F   0.44899267351878     -1.69598111112295     -0.95340514034641
  H   -1.47758587247528     -0.10486469217608     -1.35815396420729
  H   0.90814400019290      0.14875088370988     -1.60880643956606
  C   1.47550931442555     -0.10277348085031      0.45989443657965
  H   1.12218054920409     -0.62539421280566      1.35002129904029
  H   2.46108557045272     -0.49655565686541      0.20834865450773
  H   1.57299531960107      0.96168976236790      0.68281100896203
  C   -0.92912420828963      1.59336998448724     -0.28281113609211
  N   -0.87816369535612      2.75490833971957     -0.12309872656678
  N   -1.60344161207194     -0.49912204789044      0.66515335637910
  H   -1.53729120706321     -1.50432331703909      0.55831436523919
  H   -1.17905807385790     -0.24052735330825      1.54699519126631
