20

C	0.0	0.0	0.0
C	-0.321037	-0.196148	-1.502346
F	1.403916	0.0	0.0
H	-0.058846	-1.224915	-1.760492
C	-0.495652	1.304019	0.579977
H	-1.589061	1.300934	0.613577
H	-0.111895	1.404062	1.598758
H	-0.148394	2.148944	-0.01374
C	-0.504211	-1.18583	0.790876
H	-0.20213	-1.079831	1.835955
H	-1.596603	-1.226534	0.747893
H	-0.082371	-2.114594	0.399406
N	0.667742	0.604253	-2.311621
O	0.581213	1.830846	-2.284076
O	1.496054	-0.019151	-2.975696
C	-1.71274	0.165271	-1.9542
H	-1.896455	1.22914	-1.808566
H	-2.483762	-0.352274	-1.381384
H	-1.838873	-0.069373	-3.014053
Cl	-4.433886	0.0	0.0
