15
Coordinates from ORCA-job run
  C   0.73840018213209      0.01270666965791      0.12428461634675
  C   -0.71253780081760     -0.38457114249956      0.45172838722084
  Cl  1.74665050037839     -0.34562928156032      1.60549339968375
  H   -0.70872450454962     -1.45426743681062      0.71298117139387
  N   1.15648212934329     -0.79592676486584     -0.99201694489662
  H   2.01672109716725     -0.43076408786045     -1.38297174190709
  H   1.32545022259026     -1.75353102027494     -0.70282341410482
  N   0.78721666652276      1.41516951508317     -0.10380571421322
  H   1.71648802674549      1.73313945691732     -0.34564346219687
  H   0.11244518480039      1.65118985250975     -0.82205244036838
  N   -1.52255042144527     -0.04704060903938     -0.71520787628242
  H   -1.24728082131878     -0.65144418853540     -1.47964904538760
  H   -2.50601340871239     -0.17907171347684     -0.51496387113444
  C   -1.21524111660708      0.34791542843236      1.61696139760286
  N   -1.68850593622916      0.88112532232282      2.54868553824338
