15
Coordinates from ORCA-job run
  C   0.69781340275832     -0.00879882566337     -0.04164154872287
  C   -0.70192351621053     -0.34408510608062      0.51183144923409
  Cl  1.84286844153925     -0.21203096254090      1.44472135457408
  H   -0.62780989305578     -1.35717761046393      0.93347875149778
  N   1.04143433818340     -0.96887443202207     -1.04124285142089
  H   1.66854993180343     -0.56800312512203     -1.72546673723766
  H   1.45047708650604     -1.80261349369625     -0.64149185240184
  N   0.75097543161250      1.29207463185121     -0.57956428443470
  H   1.69915827164745      1.64250915688040     -0.61715520763015
  H   0.16489108909715      1.94473586465215     -0.07687176016390
  N   -1.66816366392026     -0.19402778432003     -0.56551959673980
  H   -1.30625191731667     -0.69845154685810     -1.36737439065923
  H   -2.55464658597002     -0.60063404473747     -0.29196306113395
  C   -1.06401498811038      0.56787269827249      1.60536620680665
  N   -1.39435742856390      1.30850457984851      2.45389352843239
