15
Coordinates from ORCA-job run
  C   0.64816949526092     -0.00320082046687     -0.02790391402546
  C   -0.70927770200618     -0.48523801172104      0.54381652613957
  Cl  1.86876236378410     -0.18115800879725      1.41147816707561
  H   -0.55151477032606     -1.48642868615579      0.95812580134257
  N   1.02690125227541     -0.85875918574219     -1.09748606759839
  H   1.33131156745989     -1.75543245705366     -0.73970482205466
  H   1.78269600007367     -0.46284649810660     -1.64281252014217
  N   0.55077488830760      1.33635000417585     -0.46354590391384
  H   0.31997954739165      1.95136740748652      0.30770508084640
  H   1.41449750813523      1.65969790486124     -0.88211107968087
  N   -1.76874707834048     -0.54319211771178     -0.44454396278360
  H   -1.90538862951993      0.38746080384500     -0.82420345969817
  H   -1.43974151265568     -1.12219398656624     -1.20926280944910
  C   -1.11879648709779      0.39951608495649      1.64078888585065
  N   -1.44962644274236      1.16405756699631      2.46766007809146
