15
Coordinates from ORCA-job run
  C   0.56325195108901      0.25771739371050     -0.45267662196925
  C   -0.62014317586414     -0.13686366725664      0.46076799120827
  Cl  -0.09789471134608      0.39026285621023     -2.12805081897119
  H   -0.19941452367553     -0.20818089697124      1.47245221189975
  N   1.02670956109713      1.55494889049566     -0.06448827841424
  H   1.81160544386353      1.81889601290599     -0.64898803882164
  H   1.32351039280931      1.54983179710614      0.90557887555870
  N   1.60241718025034     -0.73694085029745     -0.49665409256829
  H   1.18513030228291     -1.65246946718884     -0.63196812193189
  H   2.09383099290010     -0.73573500605488      0.39098703584842
  N   -1.10739724864165     -1.45912909568480      0.10145023985194
  H   -1.65119413325031     -1.39778219987905     -0.75195678837567
  H   -1.71486024708557     -1.81376679296939      0.82983440578476
  C   -1.66022501080848      0.90594521210201      0.48408033909082
  N   -2.55532677362056      1.66526581377175      0.52863166180952
