15
Coordinates from ORCA-job run
  C   0.50857432142691      0.22801416676560     -0.36312119042863
  C   -0.80727515647481     -0.08203718993855      0.37584509167388
  Cl  0.15157316934019      0.84617454832702     -1.99408156025469
  H   -0.49402498285396     -0.40311713389509      1.38855690536370
  N   1.18160825280485      1.28382831578498      0.35249727436812
  H   2.00613934483398      1.58999085205574     -0.14934356832458
  H   1.45350525903390      0.96546642737558      1.27626620590199
  N   1.20477815175846     -1.04366190638576     -0.53500122475081
  H   1.68644991794938     -1.27346332968316      0.32842895181852
  H   1.89577614105947     -0.96981580060927     -1.27198475879443
  N   -1.57003871200401     -1.07883006991753     -0.34663732218552
  H   -0.95103050653880     -1.85262545949724     -0.55872388056613
  H   -2.34782434096312     -1.40233109819662      0.21396207346593
  C   -1.60956274595652      1.13361325700964      0.55169408144218
  N   -2.30964811341595      2.05779442080469      0.73164292127054
