15
Coordinates from ORCA-job run
  C   0.60772247316445     -0.08479212255758     -0.38120176075208
  C   -0.72040499319423     -0.60700991288584      0.20619202147382
  Cl  0.82578681068590     -0.88783914618744     -2.00302443799388
  H   -0.63919056170648     -1.69231159721443      0.33373793524527
  N   0.47730896636837      1.33235080919420     -0.62606812148083
  H   1.06061660149544      1.63047364076219     -1.39587616015808
  H   0.73885498835347      1.83322185033777      0.21650055437938
  N   1.66725393372742     -0.38504187380023      0.52223314852093
  H   1.74403079331289     -1.38067151967994      0.69600489909925
  H   2.55113113160323     -0.04975669088247      0.15795253733067
  N   -1.81387367372254     -0.32088847131742     -0.69547786638297
  H   -2.69453701816531     -0.58974044383535     -0.27563029885525
  H   -1.82098540593758      0.67704960925025     -0.87484975866977
  C   -0.88365141856192      0.00691718330789      1.54257628006517
  N   -1.09906262742312      0.51903868550841      2.57793102817837
