15
Coordinates from ORCA-job run
  C   0.54336378215285      0.16298664987380     -0.16136297708031
  C   -0.84778094529215     -0.38718536919429      0.25306003900227
  Cl  0.59019439931224      1.93434574067139      0.32479661409158
  H   -0.84853420949131     -1.41851606720526     -0.12163202666670
  N   1.56981914621911     -0.60752652095906      0.44338403232447
  H   2.48562747304321     -0.27171502087202      0.17071678729336
  H   1.50572641640384     -0.60904579610502      1.45500432545987
  N   0.60769418628668      0.13783598377483     -1.60493724437510
  H   1.20024198367839      0.87628306492885     -1.96029834957963
  H   0.98483270441988     -0.75984090121569     -1.88969233941976
  N   -1.99325488564607      0.29537507439164     -0.30050107481801
  H   -2.05124140322261      1.23049604194472      0.08473508628333
  H   -1.83558614560553      0.38187979784915     -1.29883819806064
  C   -0.94249364129113     -0.45771414518219      1.71495952141036
  N   -0.96760886096740     -0.50665853270085      2.88760580413491
