15
Coordinates from ORCA-job run
  C   0.73550181412891     -0.01195978342751      0.14218325006906
  C   -0.73028995352741     -0.39923028784600      0.40870989143159
  Cl  1.70025726650450     -0.49068782862619      1.61857021672260
  H   -0.75405018490582     -1.48385850653727      0.59706437527724
  N   1.16490562166439     -0.75239842296347     -1.01642153243923
  H   1.30736297130637     -1.73078928393609     -0.78926640365076
  H   2.04156129973236     -0.38042978871146     -1.36171589850190
  N   0.81798283737356      1.40132743816089      0.01070407316586
  H   1.75876155577579      1.71386662868624     -0.19049294812396
  H   0.16440996166480      1.69980464940014     -0.70398382488542
  N   -1.50549407491257      0.03301859669655     -0.75030099734129
  H   -2.49575311821455     -0.09319800558588     -0.58253422159539
  H   -1.22243489934179     -0.52294365267347     -1.54793425691663
  C   -1.24613561392159      0.26455095269247      1.60908670091709
  N   -1.73658548332696      0.75292729467105      2.55633157587114
