15
Coordinates from ORCA-job run
  C   0.67377458188808      0.09077742623534     -0.16203678847692
  C   -0.73920937289509     -0.42616059489811      0.14151987134048
  Cl  0.62615754729438      1.94144381452034      0.42126136921736
  H   -0.72199458214197     -1.46281212797001     -0.21012440156558
  N   1.63759383212026     -0.61513203547211      0.58279083383858
  H   2.57195663414830     -0.47339288528431      0.22228804000190
  H   1.61171655339270     -0.36702723624220      1.56341971436645
  N   0.89777268703901      0.01596116374925     -1.54299091640553
  H   0.08946026176299      0.38163500303981     -2.03275129167846
  H   1.73154243791410      0.51641379598732     -1.82253364920997
  N   -1.72506665832679      0.30419522892171     -0.63269287087391
  H   -2.60260239642614     -0.19933807866606     -0.64759347672719
  H   -1.88143423855202      1.21785140120771     -0.22364909281117
  C   -0.97420834395590     -0.45100065804801      1.59558404501371
  N   -1.19745894326190     -0.47241421708067      2.74850861397023
