15
Coordinates from ORCA-job run
  C   0.59494321194343     -0.23846715019984     -0.37734833431200
  C   -0.87105300577191     -0.33817052081963      0.10170577661701
  Cl  1.04148859402673     -1.93483126266235     -0.95192839757656
  H   -1.39139123269233     -0.94368396096502     -0.64773249999060
  N   0.59549288593218      0.59925250573101     -1.54860587792468
  H   0.66718508516170      1.56069610909720     -1.23695280817773
  H   1.36252619836919      0.36922039143908     -2.16702878481671
  N   1.44699764305378      0.23186923446513      0.64930142513602
  H   2.39777782064797      0.32367123947079      0.31401132033805
  H   1.43687724371116     -0.36532938956452      1.46805261437555
  N   -1.41069180451256      1.01190855948821      0.21749558332737
  H   -2.03829419186858      1.10316156231963      1.00360616329500
  H   -1.90514950856016      1.24737040329236     -0.63130764663187
  C   -0.94339114146685     -1.04220774443902      1.38355112759662
  N   -0.98231779797375     -1.58645997665303      2.42318033874453
