15
Coordinates from ORCA-job run
  C   0.66408506335455      0.16930442150332     -0.13873397747834
  C   -0.68678236652583     -0.50994809412706      0.12712408532917
  Cl  0.36987594879404      2.01241080592744      0.38383569583024
  H   -0.52853279235428     -1.54529473558649     -0.19146500762508
  N   1.67480330621601     -0.39492207554852      0.66301244796002
  H   1.58199346080549     -0.12368356781489      1.63337302243116
  H   2.59903457230787     -0.15368820368448      0.32993782068920
  N   0.95242006372932      0.08515069587572     -1.50793008503362
  H   0.12415200768961      0.32845932569549     -2.03831123050791
  H   1.72347449385578      0.68459143906338     -1.77207470247607
  N   -1.72160337407387      0.07282970673436     -0.70654780970048
  H   -1.99946344399602      0.97385994140287     -0.33537453768658
  H   -2.53305819712368     -0.53153423764415     -0.73117782029108
  C   -0.97651829860233     -0.52517158045604      1.57128156560809
  N   -1.24288044407667     -0.54336384134096      2.71505053295130
