15
Coordinates from ORCA-job run
  C   0.52764082640070     -0.15389025014460     -0.39921622676796
  C   -0.82012306302280     -0.58400292801056      0.24098385106468
  Cl  0.59672924143432     -0.87741224740093     -2.03645153584854
  H   -0.80237919958776     -1.67499313727409      0.30829889015892
  N   0.49285558015473      1.28530756002089     -0.58561578782555
  H   1.22923825739798      1.58336488253812     -1.21431275375953
  H   0.63150199955532      1.74171009051312      0.31099660201450
  N   1.60507323767358     -0.74331201689456      0.35973997275607
  H   1.63705407283657     -0.33356681951810      1.28781039300734
  H   2.49427827301011     -0.57914038328570     -0.09795133992848
  N   -2.01714776172665     -0.15594568807270     -0.44568791991973
  H   -2.13641292964285     -0.71815340895534     -1.27864953292655
  H   -1.88752248317310      0.80759633519909     -0.73639866538428
  C   -0.81694644822919     -0.04089719689451      1.61043948684812
  N   -0.73283960308097      0.44333520817985      2.67701456651100
