15
Coordinates from ORCA-job run
  C   0.57776196416281      0.06877559688557     -0.18294061290393
  C   -0.80415172847410     -0.37521868406208      0.35175851460731
  Cl  0.62618995518685      1.95886830180854      0.09521992141388
  H   -0.79833978611505     -1.46151948581054      0.20999496036934
  N   1.61235543849775     -0.57829210740863      0.51725195405103
  H   1.52418714365628     -0.44706579365640      1.51733092579603
  H   2.52522364664631     -0.24810192490012      0.22889516944118
  N   0.64975942893327     -0.21291217203305     -1.57296465569999
  H   1.60823649234285     -0.28502955989714     -1.88874729207780
  H   0.18262986362395      0.50196442732023     -2.11293803232243
  N   -1.96321613946140      0.15826339595756     -0.32112194730167
  H   -2.00344227487001     -0.19202770009463     -1.26885706897196
  H   -1.94382537219643      1.17032409953615     -0.32542607863888
  C   -0.88683297768123     -0.11973560537054      1.79612529417737
  N   -0.90553565425183      0.06270721172510      2.95541894806051
