15
Coordinates from ORCA-job run
  C   0.58047050008125     -0.28182687196047     -0.36816471641623
  C   -0.89562254200621     -0.33823903775656      0.12456954661570
  Cl  0.99999088012092     -2.01344272651413     -0.82940629877249
  H   -1.47813319913386     -0.85380643377092     -0.64470018823915
  N   0.79716405649812      0.49997302883194     -1.55079353804816
  H   0.28377708965844      0.13621492590388     -2.34229780699413
  H   0.55021254485337      1.46539864426172     -1.37303679975253
  N   1.39373232346685      0.26228585002223      0.65323324538069
  H   1.39357096172007     -0.30942788367837      1.48907693799117
  H   2.34055734825212      0.37522976049007      0.31273097892936
  N   -1.49150498348409      0.96092869813388      0.36931219224541
  H   -1.67185185862122      1.43741151097076     -0.50409991420052
  H   -0.86458449841231      1.52199048364808      0.93433836120918
  C   -0.96811147901475     -1.13357551119340      1.35879333272586
  N   -0.97266714397871     -1.72911443738869      2.37044466732583
