15
Coordinates from ORCA-job run
  C   0.56630322508385     -0.05186742451602     -0.45361016827957
  C   -0.73889499310696     -0.57252125286486      0.22151117203964
  Cl  0.61326297207400     -0.79998975954179     -2.08895127768685
  H   -0.65698817642179     -1.66271834015559      0.28476148583042
  N   0.44564139667863      1.37065748978075     -0.61494677727783
  H   1.25499319549683      1.71334146589849     -1.12042171044914
  H   0.43059279798127      1.81658889826082      0.29798634138521
  N   1.78999466377452     -0.44037148505309      0.20408363005059
  H   1.82412282255431     -0.04066427135674      1.13626034483128
  H   1.87816391032932     -1.44866173718755      0.26922996071235
  N   -1.98854055165549     -0.23556091539430     -0.42432268698173
  H   -2.07909554661341     -0.78803506402558     -1.26752000353730
  H   -1.94919183587734      0.73953584414814     -0.70216316516964
  C   -0.73293723225388     -0.04088418737097      1.59544130929036
  N   -0.65642664804386      0.44115073937829      2.66366154524221
