15
Coordinates from ORCA-job run
  C   0.60649299809968     -0.04250210922241     -0.22784295556522
  C   -0.76334917527128     -0.52846675652293      0.30267469246717
  Cl  0.75525491542131     -1.01075122961697     -1.91641808374394
  H   -0.72162916309140     -1.62248832878206      0.34675370342693
  N   0.59917354414176      1.34064922482698     -0.47137755465670
  H   0.01885863140899      1.57459505718240     -1.26397266534562
  H   1.52653591158071      1.71802114727047     -0.61402822453964
  N   1.64312895063415     -0.41845325899124      0.63372629648949
  H   1.63736395737664     -1.41199625131880      0.82063720087801
  H   2.55636743595182     -0.15133533694496      0.28960571696805
  N   -1.92656717134481     -0.15817253290869     -0.47146209752048
  H   -2.07956854664129      0.84135997976246     -0.44378355581232
  H   -1.83166853585847     -0.47435855222624     -1.42772135929504
  C   -0.92702441471025     -0.02525826051743      1.67473452551114
  N   -1.09236933769757      0.36915720800942      2.76747436073815
