15
Coordinates from ORCA-job run
  C   0.69342140398192     -0.09157152730578     -0.35341675076815
  C   -0.69340202707089     -0.43841657615523      0.24669417653132
  Cl  0.71273574784518     -1.02824163463133     -1.96581032348048
  H   -0.73201567122214     -1.52581392305557      0.41305131396954
  N   0.88673377887149      1.28073092693367     -0.67658909497665
  H   0.07934382371360      1.62253059236387     -1.18481739286809
  H   0.98792853610974      1.80226176992908      0.18790499054436
  N   1.71623913028521     -0.50162039477015      0.52403256979593
  H   2.62009236837300     -0.25181107781878      0.14186258807255
  H   1.68740003862159     -1.49432389763911      0.71504395632051
  N   -1.74691447931838      0.06719093920459     -0.62563679064531
  H   -2.62766568977859      0.10330053445682     -0.12836742271174
  H   -1.85113413101074     -0.55091593551445     -1.42070545862535
  C   -0.80419288965540      0.22798742634232      1.54889774816578
  N   -0.92956993974557      0.77671277766005      2.57885589067577
