15
Coordinates from ORCA-job run
  C   0.79951621820313      0.11798639204910      0.02800502247823
  C   -0.53744182348130     -0.51715147715182      0.48394624342797
  Cl  1.88437809592227      0.10938327967517      1.50885103510936
  H   -0.30773802661298     -1.48769171922091      0.93119736690418
  N   1.47869419253503     -0.63327511616630     -0.98975372694163
  H   0.78264811959300     -0.89548518259029     -1.68161543787384
  H   1.87676736662632     -1.47572348540397     -0.59450317495136
  N   0.53464015966301      1.41189060725871     -0.48331244940731
  H   0.22345224371998      2.05646848778488      0.23322745741238
  H   1.36357374869076      1.76835973746583     -0.94157781878514
  N   -1.35087446674258     -0.72604467943956     -0.70425768471504
  H   -1.62701631418068      0.17403498797207     -1.07930898526102
  H   -2.18339955487381     -1.25543837370283     -0.47649347641044
  C   -1.18707590320634      0.32548244283554      1.50525428056772
  N   -1.75012405585581      1.02820409863439      2.26034134844595
