15
Coordinates from ORCA-job run
  C   0.67540157231554     -0.18243261967967     -0.40847136282337
  C   -0.73612357833543     -0.48045278608036      0.16717570710601
  Cl  0.71694905054967     -1.03496440326579     -2.00531334391592
  H   -0.82517076139617     -1.57095125649916      0.25569150067593
  N   0.92839972280690      1.20533383499891     -0.66603386679444
  H   0.12150900096258      1.61881233036317     -1.12219152308302
  H   1.08759017433924      1.68439025306675      0.21342106914135
  N   1.65448248288433     -0.80737506698663      0.43234269382795
  H   1.64347994948186     -0.38364674643054      1.35511278697020
  H   2.57232695112294     -0.66760927095040      0.02464550648282
  N   -1.75299443815654      0.15504523095967     -0.66331051486067
  H   -2.64001195034894      0.18195687431507     -0.17611156884373
  H   -1.87443425357621     -0.39116809916019     -1.50773013486453
  C   -0.78935025153546      0.09778656933337      1.51374959694084
  N   -0.78205367111433      0.57627515601581      2.58602345404060
