15
Coordinates from ORCA-job run
  C   0.56332684851661      0.15330944005091     -0.26210772354163
  C   -0.82023826345724     -0.14009618672795      0.35656132945201
  Cl  0.30990702675795      0.76780108890226     -1.95732518045508
  H   -0.57863400722083     -0.51581885565138      1.36439668316254
  N   1.25995730187159      1.08006210595695      0.56736435195037
  H   0.75152128244491      1.95194097158019      0.66572687954610
  H   2.17082106346865      1.28346315469503      0.17281952993237
  N   1.26680131589494     -1.10770418020106     -0.37198322646357
  H   1.88582528743232     -1.11238732204311     -1.17101099281748
  H   1.80738441207601     -1.24511465536019      0.47479610571056
  N   -1.55923744820179     -1.07221268002169     -0.46934739169031
  H   -0.94537087912529     -1.85961824743296     -0.64859226325695
  H   -2.37882157069502     -1.39794013664830      0.02761149000076
  C   -1.57555546656435      1.10529699861685      0.53485894076695
  N   -2.15668690319846      2.10901850428446      0.71623146770337
