15
Coordinates from ORCA-job run
  C   0.80412036560666      0.05884587106609      0.05815476293574
  C   -0.58681530881476     -0.51098351262292      0.43121901590736
  Cl  1.83872873142777     -0.12891625768632      1.56260724623004
  H   -0.43869430654990     -1.52419843676415      0.81361322488391
  N   1.46206065571264     -0.66541685262746     -0.99277827277209
  H   1.79173640344672     -1.55796729659472     -0.64792709197310
  H   0.77100533425442     -0.83157432116418     -1.71857406140534
  N   0.64404126993678      1.40081920149630     -0.36568435292102
  H   0.35869441364149      2.01429077861567      0.38793693213857
  H   1.50908377414471      1.72809472353707     -0.77680228329857
  N   -1.37409559349743     -0.57823908814085     -0.79061075950473
  H   -1.57337866621266      0.36342022514515     -1.10804804992474
  H   -2.24879974947646     -1.06028225546524     -0.62404868930487
  C   -1.20978862840998      0.30219499274927      1.49231056772486
  N   -1.74789869520999      0.98891222845629      2.27963181128398
