15
Coordinates from ORCA-job run
  C   0.67165855935750      0.08401674044011     -0.17331759380757
  C   -0.73828953660703     -0.42030155632214      0.16335203202808
  Cl  0.63414035586104      1.95319481913275      0.34609394449348
  H   -0.72611651165984     -1.46740581127172     -0.15544231754307
  N   1.64276534702237     -0.59791292147635      0.58467579923946
  H   1.62405819928620     -0.31932663453665      1.55718913822334
  H   2.57390918871330     -0.46320568458653      0.21315839824629
  N   0.88027685587686     -0.03915153857827     -1.55342769751915
  H   1.71391955890109      0.44628787169297     -1.85866733362250
  H   0.06905505708073      0.31444328740348     -2.04692036776031
  N   -1.73190484596950      0.28643955264119     -0.62262390695371
  H   -1.87760720861341      1.21499070844100     -0.24477506865370
  H   -2.61230411603786     -0.21220851429325     -0.60648311174956
  C   -0.95708007311655     -0.39720243444550      1.62001276581479
  N   -1.16848083009489     -0.38065788424110      2.77517531956412
