15
Coordinates from ORCA-job run
  C   0.64592620366793     -0.11481261786965     -0.32463839180219
  C   -0.73128723112251     -0.52542752787464      0.28296710461410
  Cl  0.69533924681628     -0.98438388406416     -1.96623994391530
  H   -0.71398499128634     -1.61182166560530      0.43012375707351
  N   0.82454134912876      1.27436127058628     -0.61302608863287
  H   0.15440872197392      1.61309000357703     -1.28883525026167
  H   0.77825391934933      1.81054157895758      0.24626729201065
  N   1.67758222458157     -0.51033829253980      0.54556393077716
  H   1.67099250310610     -1.50236881159503      0.74118972566413
  H   2.57787931851883     -0.22730743355707      0.17985702428432
  N   -1.91856355759542     -0.20205388058892     -0.47860791417454
  H   -1.87327063576624     -0.62917731028946     -1.39462158838149
  H   -2.02152575881633      0.79969558669551     -0.58055875967172
  C   -0.83604260289069      0.11919580771069      1.59960948276683
  N   -0.92924870966519      0.69180717645695      2.61994961964908
