15
Coordinates from ORCA-job run
  C   0.59340002704976     -0.13722484197734     -0.29814854890591
  C   -0.79929658257830     -0.58114805670958      0.21590921044513
  Cl  0.79304962595032     -0.97982079370590     -1.92802259513432
  H   -0.78863947622378     -1.67417776199326      0.18901819511815
  N   0.65064315979924      1.27629722363481     -0.41377494572864
  H   -0.02094853528567      1.62968942414659     -1.08343571534219
  H   1.57618440243139      1.58238895536361     -0.68676148126311
  N   1.60435562026565     -0.69437560123212      0.55712266684127
  H   2.49843654352328     -0.74333012417235      0.08580061811851
  H   1.68893110693223     -0.11593445450508      1.38639682565826
  N   -1.96086212317194     -0.10420603291093     -0.50275698933957
  H   -1.90825064273104     -0.36145769544837     -1.47976673181059
  H   -2.07931571906533      0.89551979388621     -0.40637244090730
  C   -0.89862390128960     -0.17030039285231      1.62308890310028
  N   -0.95006350560620      0.17708035847601      2.74270302915007
