15
Coordinates from ORCA-job run
  C   0.61496663595552      0.25327946123046     -0.13665883349831
  C   -0.72997694498224     -0.42909489592418      0.24087826488402
  Cl  0.46634962294644      2.00352348953647      0.42978501685487
  H   -0.60613073542964     -1.46939756116970     -0.08352543423597
  N   1.77490327130668     -0.27736544099127      0.51465669763915
  H   1.71425350469716     -0.17981477648978      1.52022772682546
  H   1.88482034491579     -1.25343934188872      0.26366377361369
  N   0.81233391491114      0.13124556987320     -1.53366260805626
  H   1.71932577866439      0.51279269018861     -1.77487906191586
  H   0.09649368475456      0.61876354817544     -2.05535146636632
  N   -1.93998976678598      0.07751280230554     -0.36704130464655
  H   -1.98426438712892     -0.16504545742662     -1.34692274634897
  H   -2.01407236313786      1.07985521282461     -0.24918007222280
  C   -0.86589775264031     -0.44285626147480      1.70450275744555
  N   -0.94211480804673     -0.45995903876925      2.87550729002828
