15
Coordinates from ORCA-job run
  C   0.76026247740511     -0.03574339631855      0.16201358234960
  C   -0.66487371024517     -0.57532145298146      0.37410429106742
  Cl  1.65253134159895     -0.25080085984868      1.74728681989928
  H   -0.56647324617119     -1.60514613126630      0.72386360060518
  N   1.40450458759180     -0.87768080431107     -0.79402127823091
  H   0.85206172254750     -0.87329897501939     -1.64348101272983
  H   2.35347553906428     -0.57437569314713     -0.97296619250118
  N   0.67329910383548      1.34349403684671     -0.21693954566273
  H   0.36754505133118      1.92465301284837      0.55659466069417
  H   1.57315525655744      1.68201791929433     -0.53509722403246
  N   -1.33760236002406     -0.56909992748394     -0.91670189452396
  H   -1.53257619348838      0.38794909401621     -1.18607595879832
  H   -2.20945024703190     -1.08073902454954     -0.86386721341353
  C   -1.36232853996380      0.21776821915000      1.40454207132342
  N   -1.96353078300722      0.88632398277043      2.16074529395386
