15
Coordinates from ORCA-job run
  C   0.78841904293103     -0.01969212017181      0.04545408406191
  C   -0.66213195623452     -0.38295882224262      0.45806812305390
  Cl  1.81936071397915     -0.27517193841369      1.53282112322145
  H   -0.66366788006669     -1.42249482277877      0.82159128009983
  N   1.15167871142635     -0.87006392920081     -1.03626901497166
  H   1.27304192241660     -1.82844440798327     -0.73248688034665
  H   2.01486742801308     -0.52939806253809     -1.44188890902676
  N   0.96913330187703      1.33838168346843     -0.37607591658857
  H   0.21840470052727      1.55213128222674     -1.02665350125543
  H   0.89993551249805      1.96478149199927      0.41653739378803
  N   -1.50717279607734     -0.13442695842232     -0.70370643793008
  H   -2.48089883198017     -0.29784441789466     -0.48037209410926
  H   -1.21898818892601     -0.75668546857612     -1.44879439029261
  C   -1.10768979264919      0.47852609595517      1.55667747682107
  N   -1.49229188773464      1.18136039457256      2.41409766347482
