15
Coordinates from ORCA-job run
  C   0.73507184976023      0.32384545959840     -0.19579605231163
  C   -0.64643595774539     -0.28114030658223      0.20072088678598
  Cl  0.61824514221786      2.08481122517155      0.23049116382976
  H   -0.57726506032356     -1.33775734620187     -0.08466549551456
  N   1.83982391418518     -0.22589068249439      0.52319993994588
  H   1.66579280420737     -0.26801712891654      1.51872855831699
  H   2.09926518866457     -1.13773376107067      0.17006533164093
  N   0.97352745891457      0.22116254109882     -1.60254397491942
  H   0.11891006996428      0.46978986966051     -2.08914701079166
  H   1.21857891328724     -0.73248118779967     -1.84599058360678
  N   -1.71729455281841      0.31714812837539     -0.57613902611969
  H   -1.92498961155597      1.24365480540080     -0.22252155444066
  H   -2.55782702037723     -0.24349829711466     -0.51063537404668
  C   -0.84047130356897     -0.23549919752129      1.66115654272615
  N   -1.00593183481177     -0.19839412160415      2.82407664850538
