15
Coordinates from ORCA-job run
  C   0.65535077377953     -0.09753629759336     -0.30147865035007
  C   -0.74944553323356     -0.48816813693010      0.19711735699434
  Cl  0.81016769297662     -0.95038147552802     -1.94926031205457
  H   -0.77807221068673     -1.58455957232227      0.19557836125965
  N   0.74192879124055      1.30183813723720     -0.38748478921805
  H   -0.07772224316302      1.68899606529916     -0.84040613258206
  H   1.59667747660814      1.61498526998552     -0.82726438412954
  N   1.64909424402816     -0.71285806090408      0.53982748439642
  H   2.49624869572751     -0.91049343989429      0.02440860163487
  H   1.85919647357749     -0.07274700110391      1.29803030746266
  N   -1.77133379675669      0.15674328128563     -0.62268251770005
  H   -2.66060498823314      0.16767610289421     -0.13964614624913
  H   -1.88191554810379     -0.36767108148704     -1.48242576183961
  C   -0.88176308254633     -0.04254936911352      1.58825747593154
  N   -1.00680674521474      0.29772557817486      2.70442910644359
