17

C	-0.378695	-0.012899	-1.499604
C	0.0	0.0	0.0
Br	-2.341057	-0.291761	-1.708366
H	1.092164	0.0	0.0
C	-0.087835	1.233731	-2.201522
N	0.125335	2.180102	-2.86685
C	0.356178	-1.162234	-2.179824
H	0.051154	-2.110082	-1.735514
H	0.13538	-1.178562	-3.247836
H	1.428372	-1.012884	-2.012899
N	-0.408168	-1.124163	0.758693
H	-1.313474	-1.496654	0.512674
H	0.317552	-1.824419	0.779373
N	-0.530822	1.264831	0.624616
O	-1.528043	1.178193	1.337562
O	0.057076	2.306319	0.340553
Cl	3.26169	0.0	0.0
