17

C	-0.513778	0.002398	-1.448023
C	0.0	0.0	0.0
Br	0.363404	-1.514056	-2.354978
H	1.090432	0.0	0.0
C	-1.952763	-0.267012	-1.509951
N	-3.111999	-0.454502	-1.553833
C	-0.162336	1.281216	-2.203771
H	-0.427813	1.167081	-3.255596
H	0.907979	1.467054	-2.096429
H	-0.724086	2.122304	-1.789763
N	-0.542826	-1.076945	0.742443
H	-1.525512	-0.943127	0.950311
H	-0.010859	-1.199937	1.594936
N	-0.413692	1.362397	0.572288
O	0.412596	2.268544	0.588563
O	-1.558752	1.462052	1.037537
Cl	3.0818	0.0	0.0
