17

C	-0.60649	0.021225	-1.422175
C	0.0	0.0	0.0
Br	0.049429	1.533095	-2.489672
H	1.090333	0.0	0.0
C	-0.168668	-1.193195	-2.109855
N	0.088577	-2.16592	-2.717234
C	-2.133599	0.061602	-1.412244
H	-2.511416	-0.001946	-2.433277
H	-2.488977	0.987575	-0.959495
H	-2.507023	-0.79173	-0.841917
N	-0.449332	-1.187889	0.662882
H	0.301459	-1.532613	1.247919
H	-1.267041	-0.996359	1.227188
N	-0.459919	1.251841	0.729124
O	-1.472172	1.155575	1.434636
O	0.177552	2.283368	0.559503
Cl	3.264986	0.0	0.0
