17

C	-0.451849	-0.025017	-1.464752
C	0.0	0.0	0.0
Br	-2.438626	-0.154894	-1.526004
H	1.093734	0.0	0.0
C	-0.112787	1.162024	-2.24647
N	0.126049	2.028705	-3.004662
C	0.151769	-1.253178	-2.136962
H	1.240174	-1.170278	-2.049029
H	-0.139716	-1.292894	-3.187539
H	-0.182159	-2.146193	-1.612014
N	-0.429739	-1.160084	0.699052
H	-1.342878	-1.018469	1.110848
H	0.239017	-1.361032	1.431175
N	-0.452516	1.291319	0.664777
O	-0.065579	2.341549	0.16467
O	-1.169672	1.203542	1.662888
Cl	3.231664	0.0	0.0
