17

C	-0.495062	0.049194	-1.463212
C	0.0	0.0	0.0
Br	0.03238	-1.647043	-2.30337
H	1.090417	0.0	0.0
C	-1.956531	0.095405	-1.50463
N	-3.129961	0.172242	-1.529733
C	0.133279	1.176865	-2.277939
H	-0.230587	2.144277	-1.933887
H	1.215604	1.134171	-2.140073
H	-0.118889	1.053098	-3.332009
N	-0.511051	-1.107578	0.720591
H	0.137417	-1.353438	1.45645
H	-1.418866	-0.898198	1.115081
N	-0.421378	1.332445	0.643621
O	0.230619	2.334902	0.368791
O	-1.400517	1.314668	1.394562
Cl	3.286209	0.0	0.0
