17

C	-0.385182	-0.030502	-1.494617
C	0.0	0.0	0.0
Br	-2.355874	-0.278548	-1.682194
H	1.092993	0.0	0.0
C	-0.077055	1.195897	-2.22559
N	0.198603	2.122388	-2.896177
C	0.322175	-1.205093	-2.162312
H	1.397433	-1.076448	-2.00229
H	0.097293	-1.230383	-3.229283
H	-0.001827	-2.139612	-1.704224
N	-0.404394	-1.117767	0.768623
H	-1.298149	-1.50975	0.51765
H	0.331474	-1.804233	0.81744
N	-0.52865	1.273161	0.614486
O	-1.496383	1.191763	1.365916
O	0.033583	2.315965	0.282371
Cl	3.25362	0.0	0.0
