17

C	-0.439996	-0.020448	-1.468714
C	0.0	0.0	0.0
Br	-2.426859	-0.116206	-1.552141
H	1.093777	0.0	0.0
C	-0.06863	1.161589	-2.24347
N	0.20196	2.026734	-2.992987
C	0.14873	-1.258961	-2.135132
H	1.237249	-1.196442	-2.034711
H	-0.131202	-1.2917	-3.189133
H	-0.208437	-2.146042	-1.615746
N	-0.4444	-1.155736	0.696796
H	-1.360423	-1.003757	1.098473
H	0.214287	-1.356901	1.438297
N	-0.450914	1.295913	0.65742
O	-1.208569	1.216064	1.62589
O	-0.023888	2.341193	0.179402
Cl	3.232158	0.0	0.0
