17

C	-0.526027	0.000931	-1.449699
C	0.0	0.0	0.0
Br	0.082873	1.613332	-2.391073
H	1.090404	0.0	0.0
C	0.07745	-1.147692	-2.126576
N	0.467734	-2.08443	-2.720974
C	-2.043864	-0.090602	-1.585543
H	-2.521356	0.77246	-1.123393
H	-2.311975	-0.129025	-2.642467
H	-2.389927	-1.00731	-1.102846
N	-0.483881	-1.166735	0.669409
H	0.173798	-1.422866	1.396794
H	-1.395258	-0.989152	1.07524
N	-0.458513	1.261323	0.718765
O	-1.613201	1.250568	1.172612
O	0.329786	2.192384	0.836796
Cl	3.226118	0.0	0.0
