17

C	-0.431318	0.005333	-1.45155
C	0.0	0.0	0.0
Br	-2.442566	0.149858	-1.573508
H	1.093734	0.0	0.0
C	0.088305	1.138539	-2.216445
N	0.527082	1.978152	-2.912935
C	-0.032479	-1.296924	-2.143312
H	-0.351293	-1.289319	-3.188389
H	-0.482378	-2.136996	-1.617111
H	1.055753	-1.376616	-2.080597
N	-0.523179	-1.118627	0.690111
H	-1.510676	-1.000179	0.893109
H	-0.020227	-1.225475	1.564819
N	-0.303821	1.299594	0.731398
O	0.232013	2.327142	0.241229
O	-1.362079	1.368095	1.382905
Cl	2.898662	0.0	0.0
