17

C	-0.380337	-0.019625	-1.498754
C	0.0	0.0	0.0
Br	-2.338306	-0.318234	-1.71207
H	1.092897	0.0	0.0
C	-0.102658	1.231823	-2.198246
N	0.089213	2.188556	-2.855346
C	0.365642	-1.163788	-2.177004
H	0.144158	-1.184324	-3.244858
H	1.436791	-1.007017	-2.009845
H	0.065964	-2.112671	-1.730195
N	-0.410634	-1.118908	0.765902
H	-1.309674	-1.499717	0.512203
H	0.318855	-1.8146	0.798248
N	-0.528784	1.268819	0.616345
O	-1.55764	1.193921	1.284238
O	0.091793	2.300979	0.371055
Cl	3.263954	0.0	0.0
