16

C	0.0	0.0	0.0
C	-0.407118	-0.010763	-1.500579
Cl	1.790729	0.0	0.0
H	0.343294	0.612883	-1.999622
H	-0.249195	0.988351	0.406172
N	-0.557301	-1.095672	0.737749
H	-1.560628	-1.101169	0.545376
H	-0.455773	-0.922392	1.731587
N	-1.694812	0.568653	-1.813364
H	-1.762161	1.512835	-1.449423
H	-2.478166	0.069495	-1.394185
C	-0.325462	-1.414826	-2.084215
H	-0.46503	-1.352266	-3.164994
H	-1.115709	-2.046886	-1.674589
H	0.635085	-1.885744	-1.865391
Br	-4.445747	0.0	0.0
