16

C	0.0	0.0	0.0
C	-0.360987	-0.005324	-1.518279
Cl	1.795569	0.0	0.0
H	0.436795	-0.568592	-2.010882
H	-0.282168	0.962777	0.442564
N	-0.489307	-1.162196	0.688228
H	-1.499434	-1.185527	0.559974
H	-0.31772	-1.07087	1.682841
N	-0.340772	1.341079	-2.087597
H	0.49614	1.828627	-1.785948
H	-1.143423	1.851744	-1.731968
C	-1.672944	-0.681272	-1.873975
H	-1.809314	-0.600352	-2.957037
H	-2.544054	-0.236455	-1.387676
H	-1.649843	-1.739248	-1.606981
Br	-4.673175	0.0	0.0
