16

C	0.0	0.0	0.0
C	-0.437503	-0.028471	-1.462727
Cl	1.797417	0.0	0.0
H	0.031123	-0.923877	-1.901368
H	-0.271625	0.976158	0.417477
N	-0.476716	-1.149676	0.726434
H	-0.186227	-1.076671	1.694861
H	-1.493922	-1.121096	0.716561
N	0.015324	1.215861	-2.093124
H	1.007014	1.165098	-2.291548
H	-0.471758	1.328722	-2.973245
C	-1.94588	-0.128174	-1.599401
H	-2.343718	-1.074292	-1.237103
H	-2.22639	-0.055706	-2.655337
H	-2.472562	0.660343	-1.061803
Br	-5.097412	0.0	0.0
