16

C	0.0	0.0	0.0
C	-0.374851	-0.387272	-1.468291
Cl	1.797935	0.0	0.0
H	0.4005	0.06117	-2.100601
H	-0.282271	1.045075	0.149236
N	-0.556855	-0.754436	1.07783
H	-0.481828	-1.746786	0.892164
H	-1.548739	-0.518503	1.139418
N	-1.641842	0.124734	-1.945397
H	-2.436568	-0.249631	-1.428665
H	-1.690225	1.127933	-1.805198
C	-0.341074	-1.893768	-1.666342
H	-0.457356	-2.116286	-2.727949
H	-1.175331	-2.370019	-1.14056
H	0.598284	-2.329871	-1.314674
Br	-4.362328	0.0	0.0
