16

C	0.0	0.0	0.0
C	-0.378593	0.009474	-1.522165
Cl	1.802155	0.0	0.0
H	0.440811	0.523191	-2.034922
H	-0.27686	0.971278	0.41594
N	-0.554917	-1.006756	0.849
H	-1.548539	-0.801244	0.959593
H	-0.47262	-1.917073	0.413949
N	-1.589337	0.726474	-1.860694
H	-1.517506	1.691043	-1.556258
H	-2.406859	0.343909	-1.384464
C	-0.469936	-1.406425	-2.071769
H	-1.359046	-1.904892	-1.676694
H	0.417493	-1.997989	-1.826783
H	-0.573488	-1.359804	-3.156882
Br	-4.278854	0.0	0.0
