17

C	0.0	0.0	0.0
C	-0.511871	-0.002663	-1.438271
F	1.372545	0.0	0.0
H	-1.602906	-0.149787	-1.442359
C	-0.428046	1.232224	0.691259
N	-0.612513	2.209206	1.31626
C	-0.433219	-1.240631	0.76338
H	-0.093387	-1.128496	1.794815
H	-1.516838	-1.352259	0.734836
H	0.060625	-2.108243	0.323751
N	0.166096	-1.108015	-2.195469
O	-0.3512	-2.216906	-2.108469
O	1.192685	-0.830634	-2.809804
N	-0.19495	1.246038	-2.201221
O	-0.793482	1.359404	-3.267489
O	0.638361	2.024428	-1.746623
Br	-3.631516	0.0	0.0
