17

C	0.0	0.0	0.0
C	-0.505255	0.037851	-1.480979
F	1.379804	0.0	0.0
H	-1.524852	0.055617	-1.797076
C	-0.208071	1.169115	0.871389
N	-0.088152	1.72404	1.928823
C	-0.324299	-1.367779	0.832002
H	-1.382749	-1.561448	0.95275
H	0.06943	-2.204437	0.261843
H	0.055952	-1.226704	1.83954
N	0.00557	-1.145602	-2.375148
O	-0.75917	-1.414403	-3.308894
O	1.141572	-1.596863	-2.227368
N	0.034936	1.114312	-2.420558
O	1.233559	1.351639	-2.470136
O	-0.822076	1.566509	-3.172292
Br	-2.651797	0.0	0.0
