14
Coordinates from ORCA-job run
  C   -0.83586609328148     -0.24443099338069     -0.13184572779943
  C   0.36574433126211      0.15987767520048      0.72715661732983
  F   -1.85049922382727     -0.67795705674377      0.65523027457473
  H   -0.00965843887866      0.94293596697654      1.39289497996448
  C   -0.48093909625598     -1.25266486731051     -1.12954325319863
  N   -0.12397503221718     -2.09278139139873     -1.86931746098148
  N   -1.32174749034829      1.02875614943888     -0.83190604645475
  O   -1.32900294567340      1.04333761571433     -2.05325670291557
  O   -1.67233464126352      1.91566325947880     -0.06641482397165
  N   1.36643168453989      0.72070435261096     -0.15346155654208
  H   1.93072925165936     -0.00201080303628     -0.58450945738586
  H   1.97607965159899      1.35414660103579      0.34563848150222
  C   0.79317269345654     -0.99164840646758      1.53877111750383
  N   1.19286534922889     -1.90492810211822      2.16056355837437
