14
Coordinates from ORCA-job run
  C   -0.72357217392335      0.18836014360525     -0.22738466049361
  C   0.62181995025609     -0.29031348164018      0.33090670514245
  F   -1.10988209353362      1.31113190205403      0.41539738283100
  H   0.88884509703206     -1.20063322656916     -0.21214622055384
  C   -1.75130798106900     -0.84653104958127     -0.12509607367407
  N   -2.58369918067590     -1.67265137692390     -0.06024936820851
  N   -0.53331272274437      0.52256721401064     -1.71259387918429
  O   -0.17637308029637     -0.43102979373438     -2.39222320397565
  O   -0.72530229036432      1.67460368056470     -2.05844220135723
  N   0.42372659710924     -0.60384317801199      1.72793642885231
  H   0.37477584701449      0.23989728209786      2.28504715523893
  H   1.17476144885900     -1.18369973380810      2.07763642976364
  C   1.64563889028878      0.73769651573746      0.05587816907957
  N   2.47488169204727      1.55444510219904     -0.10466666346070
