14
Coordinates from ORCA-job run
  C   -0.83193066269154     -0.25533927177482     -0.12607481248320
  C   0.38396075442515      0.11833500279317      0.72648384940636
  F   -1.81203154406238     -0.76980702560698      0.65650213272098
  H   0.00849408522675      0.84153651058286      1.45680648466534
  C   -0.48470263693224     -1.18168241541089     -1.20252366202185
  N   -0.13656172792785     -1.95906328364629     -2.01200288149160
  N   -1.36956686795690      1.05055162285527     -0.71927698491212
  O   -1.41194867717712      1.15229915923831     -1.93573445853033
  O   -1.72084570255313      1.87085945183059      0.11710540928441
  N   1.34509834269427      0.76696446450285     -0.13828591368655
  H   1.91255496167623      0.09120885955162     -0.63631332048277
  H   1.95590352118817      1.37507331480480      0.39053326303942
  C   0.86225652196924     -1.07688206800465      1.44066778406368
  N   1.29931963212135     -2.02405432171584      1.98111311042823
