14
Coordinates from ORCA-job run
  C   -0.78621968375002     -0.19796330481253     -0.34201365867767
  C   0.18660849820816      0.09997046000273      0.80249925730409
  F   -1.97240658885198     -0.62915357194726      0.15315489613819
  H   -0.31604762978891      0.85741892182306      1.41143331941392
  C   -0.23779231923128     -1.16211582706867     -1.29443870247599
  N   0.25182708310524     -1.97306145017603     -1.98963635188371
  N   -1.05152042942825      1.13474994354433     -1.04912501572737
  O   -0.76286230517002      1.22183356914887     -2.23278222813771
  O   -1.54758321765756      1.99057525088889     -0.33038906878666
  N   1.38496043086702      0.66758126467085      0.22532334860524
  H   1.87662476704006      1.23877186715663      0.89920771221968
  H   2.01368333624608     -0.05293515541246     -0.10970586898037
  C   0.37356976652340     -1.11582762910738      1.61121323902290
  N   0.58615829188806     -2.08184433871104      2.24525912196545
