18

C	-0.182354	-0.036147	-1.499213
C	0.0	0.0	0.0
Br	-2.085891	-0.147437	-2.076095
H	1.099868	0.0	0.0
N	0.309436	1.276118	-2.134295
O	0.433536	2.254503	-1.410209
O	0.529821	1.258272	-3.341672
C	0.625816	-1.16077	-2.107444
H	0.649885	-1.073165	-3.190888
H	1.625143	-1.048359	-1.665419
H	0.194051	-2.122388	-1.833036
C	-0.379094	-1.326039	0.670408
H	-1.390156	-1.659652	0.416932
H	0.349966	-2.088506	0.396661
H	-0.316956	-1.196762	1.752435
C	-0.6494	1.094494	0.688251
N	-1.210219	1.892109	1.346327
F	2.56563	0.0	0.0
