18

C	-0.541547	0.144319	-1.42185
C	0.0	0.0	0.0
Br	0.148479	1.791675	-2.212619
H	1.106345	0.0	0.0
N	0.002923	-1.033251	-2.233678
O	-0.688287	-2.055703	-2.179013
O	1.063128	-0.92696	-2.829755
C	-2.053773	0.161529	-1.552191
H	-2.47444	-0.746596	-1.121581
H	-2.353286	0.227324	-2.600534
H	-2.439033	1.030088	-1.017092
C	-0.32041	-1.344516	0.666883
H	-1.38382	-1.602724	0.698828
H	0.061764	-1.289193	1.688141
H	0.232307	-2.137472	0.163858
C	-0.510534	1.089491	0.806364
N	-0.928223	1.952877	1.489617
F	2.511569	0.0	0.0
