18

C	-0.250666	-0.14029	-1.489888
C	0.0	0.0	0.0
Br	-2.149497	-0.516443	-1.958867
H	1.104863	0.0	0.0
N	0.068058	1.20799	-2.148738
O	1.119336	1.277788	-2.780702
O	-0.716956	2.132094	-1.969347
C	0.642801	-1.209865	-2.0814
H	0.65175	-1.158096	-3.170242
H	0.279142	-2.191515	-1.777258
H	1.639283	-1.025401	-1.661123
C	-0.355013	-1.259642	0.793769
H	-1.415815	-1.517511	0.73097
H	0.253376	-2.094857	0.44784
H	-0.094594	-1.087709	1.839692
C	-0.606163	1.155776	0.622511
N	-1.105389	2.027238	1.233578
F	2.558018	0.0	0.0
