18

C	-0.2355	-0.084615	-1.503144
C	0.0	0.0	0.0
Br	-2.098404	-0.544649	-2.015441
H	1.108361	0.0	0.0
N	0.01738	1.3065	-2.093314
O	1.108979	1.485301	-2.627439
O	-0.852892	2.15816	-1.95241
C	0.729284	-1.069824	-2.13171
H	0.740552	-0.967578	-3.217198
H	0.42212	-2.084613	-1.875325
H	1.709224	-0.849469	-1.690709
C	-0.345872	-1.2966	0.737201
H	0.313365	-2.093356	0.391046
H	-1.390929	-1.593477	0.614489
H	-0.141825	-1.151487	1.799504
C	-0.620847	1.132967	0.652906
N	-1.120474	2.002004	1.269941
F	2.570808	0.0	0.0
