18

C	-0.543008	-0.105289	-1.423843
C	0.0	0.0	0.0
Br	0.445156	1.094543	-2.610895
H	1.105778	0.0	0.0
N	-0.256268	-1.531576	-1.882547
O	0.896018	-1.842392	-2.142009
O	-1.22003	-2.301702	-1.881486
C	-2.021271	0.186822	-1.590432
H	-2.603837	-0.434466	-0.909173
H	-2.195444	1.236472	-1.355564
H	-2.345382	-0.010701	-2.613383
C	-0.362815	-1.204847	0.876544
H	0.003883	-0.998506	1.88356
H	-1.433236	-1.431761	0.925262
H	0.181355	-2.080113	0.516157
C	-0.47988	1.230118	0.59397
N	-0.867968	2.221016	1.098081
F	2.510792	0.0	0.0
