18

C	0.0	0.0	0.0
C	-0.43062	0.326884	-1.458712
Cl	1.853371	0.0	0.0
H	0.389612	0.843299	-1.96474
N	-0.500806	1.017192	0.837171
H	-0.472204	1.940327	0.432504
H	-0.112103	0.98288	1.767483
C	-0.463542	-1.348918	0.517968
H	-1.554123	-1.380114	0.430691
H	-0.198339	-1.431292	1.57468
H	0.001355	-2.170974	-0.021819
N	-1.608673	1.08499	-1.505476
H	-1.91929	1.21615	-2.45834
H	-2.390404	0.6973	-0.956139
N	-0.485972	-0.998425	-2.282119
O	-1.518834	-1.237777	-2.89815
O	0.538445	-1.677618	-2.32438
Cl	-4.233636	0.0	0.0
