18

C	0.0	0.0	0.0
C	-0.509331	-0.008717	-1.448108
Cl	1.807537	0.0	0.0
H	-1.603505	0.00747	-1.37535
N	-0.459357	1.203776	0.638187
H	-0.263207	1.130804	1.631105
H	-1.477673	1.216858	0.530412
C	-0.434849	-1.290673	0.68278
H	-1.526975	-1.320563	0.667723
H	-0.027283	-2.16567	0.179124
H	-0.087164	-1.270911	1.719925
N	-0.049181	-1.135607	-2.183578
H	-0.583873	-1.227793	-3.037128
H	0.927047	-1.007497	-2.420285
N	-0.138475	1.308374	-2.131631
O	0.896566	1.320672	-2.802583
O	-0.899286	2.259019	-1.994495
Cl	-3.681396	0.0	0.0
