18

C	-0.489016	0.03761	-1.442556
C	0.0	0.0	0.0
F	-0.068163	-1.13024	-2.051472
H	1.087479	0.0	0.0
N	-1.863564	0.28313	-1.623387
H	-2.089386	0.186465	-2.606582
H	-2.381903	-0.387082	-1.069027
N	0.207045	1.145392	-2.236737
O	0.746456	2.059425	-1.631074
O	0.093679	1.044236	-3.45537
N	-0.440639	-1.314048	0.585566
O	0.36907	-1.945982	1.247772
O	-1.623543	-1.645914	0.428073
C	-0.545508	1.086702	0.909789
H	-0.20084	2.054636	0.554412
H	-1.636166	1.073176	0.939893
H	-0.143613	0.928901	1.913116
Cl	3.342489	0.0	0.0
