18

C	-0.296579	0.064073	-1.500831
C	0.0	0.0	0.0
F	-0.530207	1.418093	-1.841102
H	1.09267	0.0	0.0
N	0.695155	-0.525988	-2.248835
H	1.62415	-0.389829	-1.85706
H	0.619367	-0.348601	-3.23806
N	-1.662191	-0.522939	-1.890015
O	-1.797596	-0.873801	-3.05683
O	-2.54216	-0.523797	-1.034501
N	-0.418662	-1.326835	0.558267
O	-0.394156	-2.29949	-0.187846
O	-0.721996	-1.367239	1.748649
C	-0.530418	1.144533	0.82957
H	-0.143002	2.077184	0.425782
H	-1.620453	1.166795	0.831086
H	-0.169779	1.036149	1.850522
Cl	3.281098	0.0	0.0
