18

C	-0.345359	0.122249	-1.482827
C	0.0	0.0	0.0
F	-1.645677	0.516015	-1.684541
H	1.091321	0.0	0.0
N	0.534634	1.031584	-2.064129
H	0.506777	0.989597	-3.07265
H	1.485976	0.873068	-1.735
N	-0.32414	-1.269705	-2.195822
O	0.65026	-1.5179	-2.894836
O	-1.296356	-1.994194	-2.020076
N	-0.469915	-1.289563	0.584088
O	0.190834	-2.289531	0.318567
O	-1.473203	-1.274616	1.300046
C	-0.528199	1.182815	0.781149
H	-1.615874	1.220727	0.766777
H	-0.184629	1.110182	1.814021
H	-0.118939	2.092596	0.341865
Cl	3.282006	0.0	0.0
