18

C	-0.50205	0.028464	-1.437383
C	0.0	0.0	0.0
F	-0.08364	-1.141702	-2.044933
H	1.087471	0.0	0.0
N	-1.879214	0.267303	-1.603687
H	-2.390856	-0.393298	-1.032082
H	-2.117082	0.159479	-2.582712
N	0.180391	1.131853	-2.247759
O	0.022658	1.040108	-3.462969
O	0.758204	2.030413	-1.657468
N	-0.440414	-1.311121	0.59536
O	0.384926	-1.968619	1.212043
O	-1.636553	-1.614468	0.488593
C	-0.540356	1.092889	0.905226
H	-0.131758	0.942492	1.906934
H	-0.197287	2.058289	0.541313
H	-1.630459	1.079569	0.943584
Cl	3.352284	0.0	0.0
