18

C	-0.422954	0.022727	-1.470398
C	0.0	0.0	0.0
F	-0.42533	1.339584	-1.876314
H	1.09241	0.0	0.0
N	0.333692	-0.776818	-2.316848
H	1.188051	-1.093035	-1.877939
H	-0.195814	-1.526702	-2.732846
N	-1.922022	-0.370882	-1.582215
O	-2.189629	-1.507302	-1.967409
O	-2.739409	0.476283	-1.244181
N	-0.413101	-1.32557	0.570112
O	0.145825	-2.328563	0.132608
O	-1.291481	-1.33735	1.43519
C	-0.505579	1.14405	0.847059
H	-0.094733	2.068436	0.443022
H	-1.592261	1.203476	0.870519
H	-0.129817	1.020139	1.862985
Cl	3.262642	0.0	0.0
