18

C	-0.274162	0.091667	-1.518707
C	0.0	0.0	0.0
F	-0.139417	-1.214105	-2.010987
H	1.091389	0.0	0.0
C	-1.668726	0.480654	-1.822482
N	-2.774003	0.782124	-2.08023
C	0.751521	0.943654	-2.243557
H	1.7171	0.697613	-1.783493
H	0.546254	2.002573	-2.101408
H	0.719695	0.69769	-3.308154
C	-0.596465	-1.227508	0.642646
H	-1.674558	-1.316357	0.477343
H	-0.415498	-1.199594	1.716912
H	-0.089929	-2.099387	0.232232
N	-0.485429	1.242433	0.641224
O	-1.273228	1.157848	1.589844
O	-0.07169	2.317286	0.19866
F	2.595139	0.0	0.0
