18

C	-0.308113	-0.17036	-1.483386
C	0.0	0.0	0.0
F	-1.642037	-0.595879	-1.681178
H	1.091816	0.0	0.0
C	-0.172963	1.051602	-2.303179
N	-0.104944	1.900255	-3.112578
C	0.652693	-1.212923	-2.047838
H	0.615984	-1.221125	-3.138495
H	1.649846	-0.955322	-1.668407
H	0.367225	-2.19992	-1.67894
C	-0.489876	-1.168996	0.828982
H	-0.03204	-2.084512	0.453046
H	-1.576165	-1.271064	0.820362
H	-0.156292	-1.036057	1.857539
N	-0.503958	1.279159	0.550282
O	-0.162838	2.317992	-0.017106
O	-1.195341	1.255181	1.574509
F	2.583776	0.0	0.0
