18

C	-0.270662	0.075987	-1.515792
C	0.0	0.0	0.0
F	-0.021518	-1.212944	-2.007846
H	1.091325	0.0	0.0
C	-1.692974	0.342405	-1.822433
N	-2.828801	0.553886	-2.039499
C	0.69084	1.008429	-2.221419
H	0.667141	0.794763	-3.291994
H	0.431468	2.049928	-2.043337
H	1.66902	0.798933	-1.777232
C	-0.601179	-1.220726	0.653015
H	-0.09161	-2.096456	0.254533
H	-1.677642	-1.312397	0.489014
H	-0.423746	-1.181418	1.727055
N	-0.493941	1.24862	0.626581
O	0.069488	2.305436	0.330325
O	-1.446689	1.180378	1.414631
F	2.597272	0.0	0.0
