17

C	0.0	0.0	0.0
C	-0.244108	0.265483	-1.564277
Br	1.946252	0.0	0.0
H	0.521527	-0.30866	-2.089297
N	-0.639092	0.782407	0.935594
H	-0.446506	1.759253	0.741496
H	-1.701909	0.536944	0.703431
N	-0.367411	-1.477757	0.269251
O	-0.698189	-1.784065	1.401728
O	-0.230514	-2.25499	-0.672501
C	0.066449	1.683468	-1.763354
N	0.268656	2.829882	-1.924166
C	-1.577965	-0.045391	-2.2539
H	-1.803911	-1.103054	-2.142887
H	-1.447262	0.189457	-3.317005
H	-2.396103	0.498459	-1.797397
F	-2.819576	0.0	0.0
