17

C	0.0	0.0	0.0
C	-0.524961	-0.088322	-1.436894
Br	1.999926	0.0	0.0
H	-1.5794	-0.380893	-1.255879
N	-0.577086	1.050369	0.684453
H	-1.62725	0.81713	0.531141
H	-0.341227	0.972952	1.66772
N	-0.275044	-1.375862	0.716755
O	-0.427892	-2.376889	0.030819
O	-0.303293	-1.339074	1.941841
C	0.16733	-1.049028	-2.285979
N	0.685457	-1.747714	-3.076477
C	-0.522461	1.29061	-2.102335
H	-1.221694	1.931289	-1.569593
H	0.473281	1.740881	-2.080869
H	-0.844779	1.192737	-3.142032
F	-2.782184	0.0	0.0
