17

C	0.0	0.0	0.0
C	-0.438559	-0.040055	-1.536089
Br	1.93449	0.0	0.0
H	0.478651	-0.084904	-2.131071
N	-0.548476	0.977522	0.829913
H	-0.325055	1.891548	0.452966
H	-1.594798	0.769759	0.687215
N	-0.324442	-1.381695	0.646356
O	0.061895	-2.370322	0.028126
O	-0.876092	-1.394921	1.731294
C	-1.030553	1.265914	-1.836792
N	-1.414831	2.328496	-2.158664
C	-1.368002	-1.160253	-2.031925
H	-1.702779	-0.894242	-3.039525
H	-0.829633	-2.106329	-2.074548
H	-2.222669	-1.188804	-1.356086
F	-2.719338	0.0	0.0
