17

C	0.0	0.0	0.0
C	-0.243793	0.177965	-1.574149
Br	1.946842	0.0	0.0
H	0.519063	-0.426047	-2.067809
N	-0.638218	0.836402	0.891693
H	-1.696605	0.583109	0.68014
H	-0.446943	1.800242	0.639301
N	-0.369469	-1.458731	0.352493
O	-0.225485	-2.287855	-0.542492
O	-0.710556	-1.699773	1.497278
C	0.073446	1.581135	-1.855976
N	0.290921	2.712432	-2.089741
C	-1.581284	-0.16603	-2.241068
H	-1.800073	-1.220555	-2.08744
H	-1.459154	0.027174	-3.313805
H	-2.398598	0.390648	-1.797516
F	-2.831814	0.0	0.0
