14
Coordinates from ORCA-job run
  C   0.79751343175378     -0.68039710941857     -0.05936150115911
  C   -0.61578617023582     -0.18758244299253      0.30809826017896
  F   0.73484252584992     -2.04905522352743     -0.16314619373899
  H   -1.04354063705567     -0.84819545219647      1.06413307219929
  C   1.70628719405363     -0.34165421439744      1.05001517258508
  N   2.41177518135464     -0.09364299397165      1.95672013237851
  C   1.30643174633587     -0.11486384437654     -1.31542728359990
  N   1.75279128823215      0.30641593545368     -2.31737311840172
  N   -1.55120891155688     -0.18663954507855     -0.87995144077329
  O   -1.31179275204320     -1.01185223806482     -1.75029515558561
  O   -2.48725881100662      0.59656284867867     -0.81768542724149
  N   -0.57657138609443      1.20165423485888      0.85051737782938
  O   0.03420471121072      2.01418253022281      0.16213025877905
  O   -1.15668741079808      1.39506751480997      1.91162584654984
