14
Coordinates from ORCA-job run
  C   0.99178145804232     -0.21550051997956      0.26912729375244
  C   -0.49436702377921      0.12097977517906      0.50028723166046
  F   1.68286277300899      0.22454858573950      1.37216428028129
  H   -0.76098051157284     -0.11115120751814      1.53276231377628
  C   1.55067239103269      0.40255759969307     -0.94007748364560
  N   2.04329470991688      0.88108625567248     -1.89345033772962
  C   1.12580567951449     -1.68098150221759      0.19343819559585
  N   1.22111890551863     -2.85213901417232      0.16774523226296
  N   -1.37239465985883     -0.66821961349238     -0.41183055299450
  O   -2.30575668046715     -1.26894641392350      0.10571856353554
  O   -1.06579567306562     -0.62387720223606     -1.59975320886714
  N   -0.79516071624785      1.58464352792404      0.26869320991419
  O   -1.94880419588723      1.84728743110502     -0.03725292518651
  O   0.12872354384472      2.35971229822636      0.47242818764436
