14
Coordinates from ORCA-job run
  C   0.77085085732900     -0.70697688808587     -0.09322964932499
  C   -0.61398463792879     -0.17302475322467      0.32388159792702
  F   0.66030532868397     -2.07096184608305     -0.21520806618132
  H   -1.04618963015782     -0.83590812261726      1.07538523913471
  C   1.72561346136021     -0.41558606656231      0.99053833006652
  N   2.47084887423885     -0.20429465905914      1.87436905765569
  C   1.25715706612150     -0.13848157025008     -1.35699016229102
  N   1.68025324520629      0.28306713289506     -2.36890635963857
  N   -1.57727801145617     -0.11217477383269     -0.84033196682202
  O   -1.41223962986574     -0.95542313080593     -1.71069681301337
  O   -2.45829296924849      0.73089765172537     -0.76198120071167
  N   -0.51061347598105      1.20053018630695      0.89621296015457
  O   -1.07067588021198      1.39342816867483      1.96813350478542
  O   0.12524540191024      2.00290867091879      0.21882352825905
