14
Coordinates from ORCA-job run
  C   0.97865816240020     -0.22575347452423      0.30547182336368
  C   -0.51937344105074      0.09169384822367      0.48323223597834
  F   1.61323623464433      0.15398467737654      1.46310402023891
  H   -0.83269304757695     -0.19149862689001      1.48958176262477
  C   1.58908156147669      0.46309656084481     -0.83876874039808
  N   2.12221352076815      0.99728457772022     -1.73938698891259
  C   1.12827156115679     -1.68343524756979      0.15309798570726
  N   1.23912857427496     -2.85039727162545      0.06752068146080
  N   -1.34898981392534     -0.65488945625469     -0.50658682884830
  O   -2.31250149740521     -1.26873382248223     -0.06498112345743
  O   -0.97780289930837     -0.56524873462143     -1.67336250907196
  N   -0.81690056360767      1.56448167769280      0.30908691665627
  O   0.08574228291866      2.33024884498830      0.61656523060845
  O   -1.94807063476550      1.83916644712148     -0.06257446595013
