14

C	0.0	0.0	0.0
C	-0.325612	-0.122052	-1.499362
Cl	1.786039	0.0	0.0
H	-0.443748	-1.177439	-1.720165
H	0.49961	0.303975	-2.07403
C	-0.455039	1.203546	0.676252
N	-0.543306	2.205291	1.286027
N	-0.40224	-1.234911	0.798862
O	-0.481475	-2.29441	0.19583
O	-0.467421	-1.086935	2.008624
N	-1.513315	0.584349	-2.050812
O	-1.523454	1.80571	-1.947639
O	-2.281307	-0.079582	-2.737545
F	-2.210528	0.0	0.0
