14

C	0.0	0.0	0.0
C	-0.512853	-0.225577	-1.440593
Cl	1.755048	0.0	0.0
H	-0.8967	0.707682	-1.837233
H	-1.291878	-0.973796	-1.412507
C	-0.478619	1.262302	0.551693
N	-0.587271	2.358975	0.962975
N	-0.413548	-1.144971	0.921604
O	-0.451232	-0.880168	2.113785
O	-0.542506	-2.246851	0.414993
N	0.559806	-0.678946	-2.38285
O	1.067674	0.16751	-3.121959
O	0.852409	-1.873183	-2.383512
F	-2.308942	0.0	0.0
