14

C	0.0	0.0	0.0
C	-0.23918	-0.512925	-1.449837
Cl	1.840461	0.0	0.0
H	0.542294	-0.083565	-2.08121
H	-0.052099	-1.59045	-1.421994
N	-0.489147	1.311673	0.149621
H	-0.437605	1.661749	1.093788
H	-0.139399	1.973603	-0.525838
N	-0.501497	-0.930689	0.95281
H	-0.277727	-0.613375	1.89096
H	-1.526623	-0.886218	0.842664
C	-1.472604	-0.247679	-2.196451
N	-2.205067	-0.074758	-3.09834
Br	-3.819667	0.0	0.0
