14

C	0.0	0.0	0.0
C	-0.439499	0.049948	-1.472328
Cl	1.854177	0.0	0.0
H	-0.053233	0.948465	-1.962395
H	-1.539342	0.095707	-1.432823
N	-0.482831	1.154995	0.64472
H	-0.363772	1.078363	1.644507
H	-0.083874	2.007768	0.283963
N	-0.46139	-1.131554	0.737229
H	-1.486224	-1.063869	0.72933
H	-0.179436	-1.990316	0.279283
C	-0.014225	-1.127059	-2.219004
N	0.305424	-2.085996	-2.817037
Br	-3.815247	0.0	0.0
