18

C	-0.371516	0.05935	-1.48363
C	0.0	0.0	0.0
F	-1.547946	0.719932	-1.698802
H	1.098177	0.0	0.0
N	0.629719	0.625755	-2.323955
H	1.55266	0.538112	-1.898783
H	0.410718	1.595686	-2.501212
N	-0.610846	-1.368058	-1.997727
O	0.333938	-2.131685	-1.837219
O	-1.669304	-1.634405	-2.550487
N	-0.611691	-1.152915	0.662341
H	0.005354	-1.947054	0.533122
H	-0.635218	-0.965407	1.657701
C	-0.442721	1.287339	0.678242
H	-1.530831	1.323476	0.769814
H	0.009428	1.336824	1.672175
H	-0.101243	2.162457	0.122388
Br	3.587608	0.0	0.0
