18

C	-0.327911	-0.08787	-1.489227
C	0.0	0.0	0.0
F	0.12896	1.026232	-2.116017
H	1.096606	0.0	0.0
N	0.173011	-1.235972	-2.15992
H	-0.032345	-2.021218	-1.548341
H	1.185757	-1.121508	-2.154976
N	-1.850634	-0.068223	-1.660826
O	-2.435144	-1.130259	-1.459933
O	-2.391474	1.0041	-1.912954
N	-0.389048	-1.254307	0.64139
H	0.283153	-1.461683	1.368848
H	-1.30985	-1.183649	1.056543
C	-0.530843	1.260062	0.664464
H	-0.249888	2.150841	0.100814
H	-1.623584	1.236708	0.75201
H	-0.102992	1.340091	1.666717
Br	3.529201	0.0	0.0
