18

C	-0.306341	0.120251	-1.505134
C	0.0	0.0	0.0
F	-1.576923	0.600892	-1.751617
H	1.094664	0.0	0.0
N	0.646781	0.916016	-2.14218
H	1.581692	0.736926	-1.777444
H	0.633437	0.820826	-3.14729
N	-0.381776	-1.318567	-2.102585
O	0.67263	-1.792017	-2.516096
O	-1.460875	-1.90634	-2.071153
N	-0.480517	-1.195924	0.66676
H	-1.416941	-1.432477	0.36221
H	0.132267	-1.973884	0.4585
C	-0.504907	1.247453	0.709014
H	-1.597282	1.245504	0.766737
H	-0.098869	1.245735	1.721321
H	-0.179452	2.151315	0.191856
Br	3.56542	0.0	0.0
