16
Coordinates from ORCA-job run
  C   -0.96266493258052      0.14136984278890     -0.18284127392033
  C   0.51509180492267      0.41517824223561      0.14956487269578
  Br  -2.16078029057359      1.38357093071381      0.71550575146498
  H   0.66927382664077      1.48370474688141     -0.03078796240760
  C   -1.34417660412126     -1.22307953625651      0.13922940565726
  N   -1.60671646277248     -2.31635884282864      0.48242625709938
  N   -1.16719491790809      0.37310384480616     -1.68545432767215
  O   -1.92582746569858     -0.38532850918711     -2.26963348696154
  O   -0.56813052347757      1.32828532876555     -2.16038956842628
  N   1.26671198736758     -0.41666078996993     -0.77574263182957
  H   1.66171847320624      0.12232589242862     -1.53331168385206
  H   1.99637942341490     -0.93806544614680     -0.31139166167629
  C   0.83660959945691      0.07333750768145      1.59540294854538
  H   0.19285959790708      0.60633831835817      2.29503109381105
  H   1.87186255885291      0.35263503416144      1.80381335601941
  H   0.72498392536304     -1.00035656443213      1.76757891145258
