16
Coordinates from ORCA-job run
  C   -0.70852208804576      0.24879524084505     -0.66165870816860
  C   0.22732345719875      0.12876361903423      0.56546042871859
  Br  0.16776707382617      1.08467591847513     -2.16572727871909
  H   -0.41879926994799     -0.28650165332195      1.34673867821182
  C   -1.90221204423886      1.01138986426051     -0.33110061724984
  N   -2.87207456686295      1.61697576242836     -0.05862943201979
  N   -1.15048264593512     -1.18380497673632     -1.01944589886390
  O   -0.69829618057940     -1.72090493812072     -2.01571770146519
  O   -1.88949418621622     -1.68270574482670     -0.17771063206647
  N   0.58512337864015      1.47721959086346      0.96113300502052
  H   0.76734223782789      1.51753720837196      1.95483504950604
  H   1.41320731346846      1.78968170317551      0.46894097064453
  C   1.39213595123974     -0.82403218275363      0.31925603982473
  H   1.06487458112846     -1.84094241116975      0.09183142409334
  H   2.02003886198506     -0.47091051853495     -0.50160904952035
  H   2.00206812651164     -0.86523648199022      1.22440372205365
