16
Coordinates from ORCA-job run
  C   -0.78126878850689      0.02446094168581     -0.62153444772181
  C   0.38446657325883      0.25127907678469      0.38466958989758
  Br  -0.18434654203266     -0.21773393261303     -2.43224090831402
  H   -0.12061266281749      0.27664461430756      1.36149893392802
  C   -1.69305596061692      1.15815377289435     -0.57248581147218
  N   -2.37868930360746      2.11084894949084     -0.50291081580957
  N   -1.54916199273857     -1.21467496930496     -0.12482944022954
  O   -1.38973112713092     -2.28033154480905     -0.69623763718735
  O   -2.20836524513411     -1.00989932976219      0.88923992933904
  N   1.02072956872223      1.50487499110667      0.04009371434240
  H   0.56689034474958      2.29065729470143      0.48756201343244
  H   1.99711999878871      1.49980840831852      0.30047409286658
  C   1.38762357374596     -0.88929245653136      0.36894625558656
  H   0.91159302958935     -1.86411952862170      0.48006731345289
  H   1.95409195074833     -0.88247583049628     -0.56348010573500
  H   2.08271658298203     -0.75920045715131      1.20216732362396
