16
Coordinates from ORCA-job run
  C   -0.78790402535050      0.28305895636009     -0.54935920799296
  C   0.26561419567509      0.04835448741850      0.56100329307558
  Br  -0.14298799807038      1.47677095399276     -1.92290691906105
  H   -0.26032204423084     -0.57539490508409      1.29212905326772
  C   -2.01526142354052      0.82884275791729      0.00881732515998
  N   -3.01100885451772      1.25569260238216      0.46481257940451
  N   -1.11690413568533     -1.10021205019538     -1.14309543611775
  O   -1.72039005402541     -1.82749220425594     -0.36182352163155
  O   -0.70908291547611     -1.38910819695169     -2.25479744272389
  N   0.52362712116683      1.33301178504592      1.18112560653552
  H   1.27509134803386      1.81943930394877      0.70815717674400
  H   0.77634941196054      1.21472487221187      2.15284229152840
  C   1.49117898182967     -0.70264394700612      0.05159686121852
  H   2.18399699171074     -0.83890106496110      0.88495499195647
  H   1.24645224153188     -1.69127935601719     -0.34300026884886
  H   2.00155115898818     -0.13486399480587     -0.72945638251463
