17
Coordinates from ORCA-job run
  C   -0.53020334937016      0.22749630393535      0.47698208371999
  C   0.80713411668646      0.22514833401761     -0.28945128386680
  Cl  -0.28318635640931     -0.51596031316540      2.09348367126609
  H   0.61121102750295      0.77187962320785     -1.22316464692401
  N   -0.88877740844074      1.61267917011069      0.71054409524711
  H   -1.68977116713070      1.66598076929774      1.32983248417196
  H   -1.14021124082458      2.04820337337487     -0.17147488733615
  C   -1.59791139943669     -0.58595539917011     -0.24538291180073
  H   -1.72907556383727     -0.19649265840337     -1.26061590045473
  H   -1.34914117116114     -1.64586072344644     -0.30087265466074
  H   -2.54567453323722     -0.48806771737132      0.28757870497630
  C   1.35070802076061     -1.16096655285035     -0.64358025870518
  H   0.67475213513084     -1.68415674550917     -1.32090680232026
  H   1.48896429234363     -1.75967494836739      0.25731178744125
  H   2.31704335848328     -1.06218588739938     -1.14058489944204
  C   1.81653798528482      0.99117060893803      0.44627460999537
  N   2.68760125365522      1.55676276280077      0.99302680869256
