17
Coordinates from ORCA-job run
  C   -0.63732005368341      0.19195924052964      0.29756364891865
  C   0.87663250047676     -0.08619387404771      0.18898512365497
  Cl  -0.77424068863413      1.69163478961194      1.39204705856520
  H   1.27032144809483     -0.11323278023522      1.21048398199422
  N   -1.19637361688701      0.40643749532807     -0.98434291148355
  H   -2.20529114608972      0.47569892738269     -0.94036324323130
  H   -0.83138964432983      1.23758253583324     -1.43069554085559
  C   -1.37565916297114     -0.91921129387644      1.01970674662246
  H   -1.35235861483305     -1.82587942058721      0.41254743299894
  H   -0.91936832294042     -1.11859603303074      1.98989679928468
  H   -2.41461030169042     -0.62812603002387      1.18806386948980
  C   1.65364438800170      0.95578928209120     -0.62078076281839
  H   1.37337948084864      0.91638250394772     -1.67476197330680
  H   1.47061954636554      1.95621290589707     -0.22711003972149
  H   2.72334799293318      0.75032804561861     -0.55593036956707
  C   1.07755300046515     -1.41483485634068     -0.39762210819789
  N   1.26111319487333     -2.47495143809832     -0.86768771234685
