17
Coordinates from ORCA-job run
  C   -0.67760067993950      0.23253184729436      0.36287598038932
  C   0.84354750384262     -0.05921206695449      0.19476594278825
  Cl  -0.78843573374447      1.70354761120628      1.40295796414225
  H   1.26528887117021     -0.19511550427703      1.19696676293384
  N   -1.38801555815752      0.51604992045962     -0.85560873645412
  H   -0.96999926153926      1.28210530899137     -1.36782973211527
  H   -1.42002351310889     -0.30926413595955     -1.44368506957771
  C   -1.37534726042126     -0.90256343942351      1.09146889245140
  H   -2.41117095718594     -0.61909506326085      1.27628240585899
  H   -1.36051841919177     -1.80930194506703      0.48094378359496
  H   -0.88488040952182     -1.11278753551378      2.04330761310539
  C   1.63125044528542      1.02994085746698     -0.53801724619735
  H   1.52910937912522      1.98510742827955     -0.02374355509576
  H   2.68925940442576      0.76440920451422     -0.56929749712942
  H   1.28784166143064      1.13729496840868     -1.56844945173964
  C   0.97743193292622     -1.32497428224914     -0.53127136532089
  N   1.05226259460435     -2.31967317391568     -1.15166669163424
