17
Coordinates from ORCA-job run
  C   -0.58673061437526      0.17164232729356      0.50008674844757
  C   0.67727141551828      0.22755489323576     -0.40192902809639
  Cl  -0.05808754713180     -0.28489085810510      2.15956954800811
  H   0.30236711511676      0.51076150718209     -1.39550577842374
  N   -1.26888343963480      1.43771788041244      0.61833936962747
  H   -1.64961042845908      1.71197772095282     -0.28071583730582
  H   -0.64070632292845      2.16272689306454      0.94732746381437
  C   -1.57492054966222     -0.86918902119470      0.00423048352842
  H   -1.15864484941617     -1.87457048337661      0.04324849599313
  H   -1.86551151524947     -0.64551052385346     -1.02788172732583
  H   -2.46209280559456     -0.83015398693049      0.63573643907717
  C   1.47631264715087     -1.07120188091298     -0.53245966599263
  H   1.84729345719675     -1.39414187357900      0.43991091021042
  H   2.33006965074963     -0.91692712207924     -1.19498468302314
  H   0.85780352840270     -1.86226228157740     -0.95767916332651
  C   1.54368960060438      1.32200082295935      0.04243557458263
  N   2.23038065771244      2.20446598650840      0.40127085020477
