17
Coordinates from ORCA-job run
  C   -0.57852038969415      0.30013992150848      0.34481191051747
  C   0.90217449867738     -0.08558409465829      0.11465449943894
  Cl  -0.59614469443025      1.84661046184537      1.26931416168285
  H   1.36001219620111     -0.21238026636542      1.10211154982317
  N   -1.19845116823653      0.56406154985419     -0.93616131318855
  H   -2.14428560266133      0.90127867743399     -0.79623608589720
  H   -1.24831845150886     -0.30190506349635     -1.46542172287528
  C   -1.29612796742293     -0.73438201698749      1.20397568383921
  H   -1.33976253105136     -1.68919166424769      0.67366336799748
  H   -0.78788730646742     -0.88240853325187      2.15943115610213
  H   -2.31608040298041     -0.40091530858648      1.40564666256707
  C   1.70276428372971      0.93547936312827     -0.69806654911498
  H   2.72414674055276      0.57720560522334     -0.83922552088865
  H   1.23730103708680      1.09149398782209     -1.66978888585930
  H   1.73619267738979      1.88775805389085     -0.17042270420212
  C   0.92786646521176     -1.38655653739131     -0.56190363868345
  N   0.91512061560394     -2.41170413572168     -1.13538257125880
