17
Coordinates from ORCA-job run
  C   -0.61401765881644      0.30167724052055      0.58833986819047
  C   0.89683061776434      0.26980106261652      0.22490428571529
  Cl  -0.67491572891289      0.65812693361587      2.35877086318133
  H   1.31879393250623      1.22158921814369      0.56984232593955
  N   -1.34714201722936      1.34806333656331     -0.07264006101671
  H   -0.87430093304789      2.24163939314090     -0.00756012114249
  H   -1.51631720501600      1.11666483059504     -1.04314662966643
  C   -1.30794619082175     -1.02548638323601      0.34722967211513
  H   -0.81919318625430     -1.82967297364613      0.89694278010427
  H   -2.34342985484863     -0.94431119408256      0.67754934199564
  H   -1.30096299134622     -1.27157916410847     -0.71862148963672
  C   1.15439491573078      0.12442769970173     -1.27876526119448
  H   2.22704207086684      0.16506793521014     -1.47560998698145
  H   0.68095088422647      0.93856842973410     -1.82914559365567
  H   0.78224482692537     -0.82876467095073     -1.65745502717766
  C   1.58966251774252     -0.79991519036163      0.94489835458731
  N   2.14830600053091     -1.68689650345631      1.47446667864264
