17
Coordinates from ORCA-job run
  C   -0.61095698679869      0.14455651423240      0.37183820675207
  C   0.76417143094375      0.29858148702261     -0.31017908492976
  Cl  -0.33805884892639     -0.73693728054713      1.97478436281949
  H   0.54869662296703      0.82465249936354     -1.24860960863076
  N   -1.17439059059964      1.43492446575181      0.56143048657357
  H   -2.09478705871777      1.37039355979142      0.97875116642496
  H   -0.59239158762766      2.01675753008676      1.15375626577272
  C   -1.55985994703538     -0.71606274680857     -0.44175705008687
  H   -1.68467251948068     -0.27548270965074     -1.43398942639381
  H   -1.19866754093623     -1.73873942991439     -0.53224620196759
  H   -2.53436371517710     -0.75085365628683      0.04982135298729
  C   1.50290012374872     -1.00428128771846     -0.61990967611816
  H   0.91961880631101     -1.62401435233214     -1.30171109333834
  H   1.70137514724669     -1.56601960225546      0.29228333361409
  H   2.45528110246046     -0.77823257603220     -1.10261387607259
  C   1.61155539105285      1.19054695316452      0.48588441616287
  N   2.28455017056905      1.91121063213288      1.12346642643083
