17
Coordinates from ORCA-job run
  C   -0.63202772937599      0.29246244420626      0.57371277206069
  C   0.88848127710096      0.27311821914806      0.25275224573508
  Cl  -0.74499189194698      0.63327700971503      2.34467067463397
  H   1.29531432460555      1.22329460333252      0.61959098437892
  N   -1.35288432906868      1.33991244078664     -0.09899419360128
  H   -0.88733966757880      2.23561675323966     -0.01411290985356
  H   -1.49369746038147      1.11519401115554     -1.07554486394420
  C   -1.31066676124007     -1.03672763073446      0.30221970714440
  H   -0.83276145846903     -1.84253901729627      0.85899583362294
  H   -2.35553562092317     -0.96435557996394      0.60372145440226
  H   -1.27209091177058     -1.27403907996489     -0.76494373237655
  C   1.18908742883058      0.14531463472117     -1.24461944027253
  H   0.72923064609499      0.96441041996914     -1.79923498732725
  H   0.83053684775674     -0.80459433348621     -1.64431510715207
  H   2.26685700191727      0.19082991793827     -1.41004916261648
  C   1.56721913762614     -0.80073429992378      0.98000625099597
  N   2.11426916682254     -1.69144051284273      1.51514447416968
