17
Coordinates from ORCA-job run
  C   -0.60567392531919      0.11285231313840      0.39078337247264
  C   0.78084043867440      0.30564149723424     -0.25750621770304
  Cl  -0.39060730277404     -1.03009410588853      1.82929308496550
  H   0.59866658210562      0.98704649913414     -1.09792432709397
  N   -1.10527042183071      1.38208890404688      0.78805285150380
  H   -0.50016102100256      1.82908656039542      1.46778376887584
  H   -2.03164112401616      1.29761656927728      1.18819244658026
  C   -1.58966674640943     -0.55505665540921     -0.55191936998247
  H   -2.56842437784025     -0.62157612149256     -0.07215820178843
  H   -1.27814291008621     -1.56572960227101     -0.80880326887910
  H   -1.68541277076278      0.04753876056413     -1.45855721035200
  C   1.45554573947264     -0.96530262835566     -0.77543430758028
  H   1.61141310495973     -1.68044082851599      0.03149112471081
  H   0.85042585130539     -1.43080732530815     -1.55394491943527
  H   2.42531286730017     -0.71458433413566     -1.20868625532710
  C   1.66509210587356      1.01396360056729      0.67183965360091
  N   2.36770391034982      1.58775689701899      1.41749777543190
