17

C	-0.455272	-0.006373	-1.453323
C	0.0	0.0	0.0
Cl	0.234946	1.359414	-2.337532
H	1.090232	0.0	0.0
N	0.123487	-1.313585	-2.071112
O	1.338821	-1.386509	-2.117559
O	-0.685464	-2.172196	-2.4066
C	-1.89781	-0.035701	-1.654491
N	-3.063073	-0.060699	-1.812346
C	-0.597945	-1.140569	0.793694
H	-0.246734	-2.098572	0.4031
H	-1.691158	-1.125293	0.783906
H	-0.252787	-1.066658	1.828137
N	-0.415663	1.301123	0.619835
O	0.480223	2.033499	1.029379
O	-1.623762	1.528476	0.721296
Cl	2.698984	0.0	0.0
