17

C	-0.51814	-0.043842	-1.442068
C	0.0	0.0	0.0
Cl	-2.272204	0.230668	-1.512579
H	1.093123	0.0	0.0
N	0.209019	0.993207	-2.365326
O	1.37744	0.712713	-2.565102
O	-0.431271	1.93208	-2.79886
C	-0.226614	-1.340532	-2.046169
N	-0.042666	-2.388885	-2.545856
C	-0.504329	-1.162076	0.824643
H	-0.115443	-2.090903	0.404824
H	-0.117684	-1.067092	1.839842
H	-1.595269	-1.199356	0.8647
N	-0.40704	1.311947	0.591922
O	-0.072028	2.315304	-0.034219
O	-1.02157	1.311937	1.657481
Cl	3.23255	0.0	0.0
