17

C	-0.560894	-0.019937	-1.422655
C	0.0	0.0	0.0
Cl	-2.320364	0.235718	-1.426279
H	1.093237	0.0	0.0
N	0.110476	1.048446	-2.347565
O	1.270778	0.782662	-2.610043
O	-0.55437	1.994545	-2.726382
C	-0.2841	-1.302758	-2.061281
N	-0.128426	-2.345978	-2.580258
C	-0.469995	-1.180436	0.823221
H	-1.556329	-1.228084	0.907353
H	-0.041524	-1.095701	1.820683
H	-0.087389	-2.098293	0.374208
N	-0.395173	1.298928	0.633037
O	-0.083782	2.31613	0.017866
O	-0.973384	1.275449	1.717906
Cl	3.205459	0.0	0.0
