17

C	-0.424061	0.002585	-1.473696
C	0.0	0.0	0.0
Cl	0.25989	-1.423066	-2.268249
H	1.091638	0.0	0.0
N	-1.957174	-0.077065	-1.662229
O	-2.489135	-1.105605	-1.272826
O	-2.515942	0.896241	-2.150192
C	0.045729	1.204005	-2.154595
N	0.443673	2.170661	-2.692231
C	-0.521836	-1.128654	0.867092
H	-0.006833	-1.055055	1.827791
H	-1.59876	-1.064118	1.016021
H	-0.271165	-2.091184	0.423265
N	-0.468081	1.287388	0.619645
O	-1.678378	1.535477	0.496736
O	0.368474	2.06463	1.058313
Cl	3.198299	0.0	0.0
