17

C	-0.418013	0.006093	-1.468546
C	0.0	0.0	0.0
Cl	0.14385	-1.496481	-2.239287
H	1.092707	0.0	0.0
N	-1.946603	0.02523	-1.677424
O	-2.390277	0.743876	-2.561122
O	-2.58976	-0.731785	-0.96141
C	0.148531	1.130813	-2.207055
N	0.609029	2.019835	-2.822331
C	-0.42286	-1.163921	0.884643
H	-0.209385	-2.10553	0.381657
H	0.192852	-1.113259	1.781479
H	-1.477182	-1.127461	1.150239
N	-0.461484	1.265547	0.637301
O	-1.187333	2.017557	-0.025287
O	-0.117103	1.46103	1.797387
Cl	3.182736	0.0	0.0
