17

C	-0.421622	0.001388	-1.460626
C	0.0	0.0	0.0
Cl	0.244696	-1.447561	-2.245423
H	1.092781	0.0	0.0
N	-1.939757	-0.07431	-1.72976
O	-2.440423	0.81665	-2.403053
O	-2.527423	-0.976868	-1.1511
C	0.101835	1.181725	-2.142928
N	0.604537	2.115268	-2.651176
C	-0.52613	-1.103659	0.894876
H	-0.334295	-2.080287	0.451214
H	-1.597649	-1.007636	1.080111
H	0.015624	-1.041683	1.841862
N	-0.414853	1.293064	0.621143
O	0.317818	1.744441	1.494854
O	-1.439251	1.838532	0.188912
Cl	2.687143	0.0	0.0
