17

C	-0.579247	-0.04578	-1.413484
C	0.0	0.0	0.0
Cl	-2.342788	0.17931	-1.391404
H	1.093275	0.0	0.0
N	0.058529	1.02223	-2.360701
O	-0.632916	1.94246	-2.755057
O	1.223822	0.782344	-2.625759
C	-0.291445	-1.33094	-2.043011
N	-0.132302	-2.376893	-2.555698
C	-0.447214	-1.173907	0.847313
H	0.005616	-1.0752	1.832912
H	-1.530836	-1.2271	0.95789
H	-0.06874	-2.094626	0.400451
N	-0.399496	1.302851	0.620644
O	-0.946632	1.289252	1.721385
O	-0.122519	2.314641	-0.019934
Cl	3.199106	0.0	0.0
