14

C	-0.594985	0.091343	-1.411688
C	0.0	0.0	0.0
Cl	0.015751	1.564929	-2.162485
H	1.091945	0.0	0.0
H	-0.301489	0.910589	0.529299
N	-0.096164	-1.130203	-2.203392
O	-0.804519	-2.128145	-2.088129
O	0.953135	-1.052058	-2.814815
N	-2.025412	0.070753	-1.522354
H	-2.401907	0.838755	-0.980198
H	-2.368716	-0.807615	-1.150555
C	-0.537691	-1.147261	0.720592
N	-0.999637	-2.069423	1.282506
Br	3.453148	0.0	0.0
