14

C	-0.327433	0.066814	-1.494767
C	0.0	0.0	0.0
Cl	-0.057788	-1.500105	-2.25048
H	1.092946	0.0	0.0
H	-0.317249	0.946351	0.448966
N	-1.808026	0.464527	-1.64477
O	-2.639495	-0.358632	-1.999662
O	-2.039184	1.631591	-1.330464
N	0.434453	1.062231	-2.191268
H	1.419398	0.829614	-2.051853
H	0.271182	1.956198	-1.738383
C	-0.602732	-1.109156	0.717108
N	-1.118533	-1.983245	1.308104
Br	3.429845	0.0	0.0
