14

C	-0.559294	-0.009714	-1.425613
C	0.0	0.0	0.0
Cl	0.11389	1.323649	-2.346319
H	1.093621	0.0	0.0
H	-0.333079	-0.916414	0.496909
N	-0.131814	-1.354318	-2.044479
O	-0.642472	-2.32176	-1.482237
O	0.61229	-1.386739	-3.006312
N	-1.992607	0.001816	-1.567458
H	-2.340782	0.906806	-1.274431
H	-2.379666	-0.713346	-0.961636
C	-0.537444	1.147726	0.71529
N	-1.027953	2.067331	1.256332
Br	3.452244	0.0	0.0
