14

C	-0.328565	0.042705	-1.495506
C	0.0	0.0	0.0
Cl	-0.060519	-1.534431	-2.226947
H	1.092926	0.0	0.0
H	-0.317201	0.953234	0.434703
N	-1.808543	0.439729	-1.649617
O	-2.641293	-0.385467	-1.993584
O	-2.037567	1.61041	-1.350477
N	0.431275	1.026563	-2.208736
H	0.271093	1.925938	-1.766653
H	1.416488	0.794353	-2.07284
C	-0.600197	-1.097861	0.736533
N	-1.109608	-1.964421	1.343583
Br	3.431482	0.0	0.0
