14

C	-0.597714	0.084644	-1.409967
C	0.0	0.0	0.0
Cl	-0.046929	1.588837	-2.141893
H	1.091936	0.0	0.0
H	-0.297992	0.917696	0.518981
N	-0.074854	-1.109377	-2.226051
O	-0.648236	-2.16439	-1.959631
O	0.832158	-0.954567	-3.023745
N	-2.029901	0.011736	-1.520368
H	-2.345709	-0.846078	-1.080989
H	-2.433051	0.8046	-1.036394
C	-0.535619	-1.130361	0.748694
N	-0.994543	-2.029991	1.348256
Br	3.448529	0.0	0.0
