17
Coordinates from ORCA-job run
  C   0.92721154622562     -0.12340732643004     -0.31213079820354
  C   -0.46148781317485      0.02461071445517      0.33178415593273
  H   0.83254714431509      0.12724538301745     -1.37598214853462
  H   -0.33959515160213     -0.17727778153160      1.40556154127645
  C   1.38824063407987     -1.52667260733014     -0.23056394058932
  N   1.79350573824083     -2.62441143974371     -0.12256239808363
  N   1.87902365986589      0.81415448384658      0.27806778612125
  H   2.76042897366011      0.77498399976221     -0.22084504066040
  H   2.06476784811249      0.54289604015825      1.23777466008847
  C   -1.44605954807422     -0.98872181900324     -0.24555308006350
  H   -1.12943454236899     -2.01887517781363     -0.07010746530028
  H   -2.43186126163256     -0.85801484750074      0.20697468517986
  H   -1.55536242995515     -0.84456353555008     -1.32540513599400
  C   -0.96936236450137      1.45174210525383      0.15099670618992
  H   -1.92823739129005      1.58060541416946      0.65955725443313
  H   -0.25977798564713      2.17845736994107      0.54417893709233
  H   -1.12354705625344      1.66624902429918     -0.91174571888486
