17
Coordinates from ORCA-job run
  C   1.00029938266347     -0.13417554538837     -0.37539949219379
  C   -0.53274141450535     -0.00017420589243     -0.46955860006824
  H   1.43785337405928      0.45563984453038     -1.19784302541077
  H   -0.80299908240115     -0.29352099396146     -1.49214738693772
  C   1.40154615076166     -1.52773144084551     -0.60650037137915
  N   1.72162880299301     -2.63998822015797     -0.80215923369030
  N   1.48156024052436      0.28420322838195      0.94490991862971
  H   2.44116554203317     -0.01353539617270      1.07560153236129
  H   1.47127624284101      1.29599006931032      0.99180261618647
  C   -0.93781107484003      1.45771780376055     -0.26186274218721
  H   -0.77853628788716      1.76174383993340      0.77599896216586
  H   -1.99991146529860      1.59130410504854     -0.48003129175054
  H   -0.37737632937810      2.13351022017667     -0.91614187676035
  C   -1.24425483032355     -0.92029667422137      0.51644996528643
  H   -0.92039514675896     -0.70259924005877      1.53530807407764
  H   -1.03316542710688     -1.97148356688172      0.30682218020307
  H   -2.32613867737617     -0.77660382756149      0.45475077146759
