17
Coordinates from ORCA-job run
  C   0.99093078451668     -0.02139160338190     -0.41865700704078
  C   -0.54834159341915      0.01885453173644     -0.45628025082076
  H   1.36471787739961      0.67384798092298     -1.17864591340068
  H   -0.84613626292338     -0.37632764598903     -1.43578178156221
  C   1.46987964615336     -1.37067894080354     -0.79077021664163
  N   1.85027717888165     -2.45412575534702     -1.04013963328616
  N   1.50193882974796      0.43028401065399      0.87334553329912
  H   1.36590345091141     -0.29378785144048      1.56899163118422
  H   2.49914199676506      0.59735072617009      0.80903883568456
  C   -1.03492932165719      1.45975407186394     -0.33799440535498
  H   -2.12668322136226      1.49882905497552     -0.37397531796369
  H   -0.65077658604021      2.07602114231688     -1.15604279232839
  H   -0.69984712147221      1.89659261573749      0.60372018089030
  C   -1.15825975328683     -0.86795682089895      0.62621746614174
  H   -0.95188256773357     -0.46582688385900      1.62167714596726
  H   -0.78192668245524     -1.89342198911983      0.57361850729436
  H   -2.24400665402571     -0.90801664353757      0.51167801793772
