17
Coordinates from ORCA-job run
  C   0.96936200440212     -0.21186506353417     -0.36968979371827
  C   -0.39396184771234     -0.04192179476786      0.33753439136061
  H   0.82497380199832      0.01388809127879     -1.43474576323035
  H   -0.24349489123113     -0.31268188819811      1.39191898604702
  C   1.39751319714519     -1.61825938731682     -0.28459320615683
  N   1.71100677177594     -2.74416008688687     -0.17596609808570
  N   2.07030266248263      0.62427471649375      0.09844985078194
  H   2.17226433344747      0.53535764200964      1.10314761545502
  H   1.88223620096280      1.59444357149923     -0.11711798479581
  C   -1.44095234440617     -0.97524702586515     -0.26579301998837
  H   -1.14942386755223     -2.02394299343377     -0.18062926655862
  H   -1.59187276630890     -0.74825735204521     -1.32637763520454
  H   -2.40171026789257     -0.85160801664088      0.23996172461809
  C   -0.85486952523043      1.41080288739303      0.26196788979410
  H   -0.95631276620325      1.72964367547123     -0.78098523814585
  H   -1.83056064380503      1.52636892086962      0.73953426584965
  H   -0.16450005187242      2.09116410367355      0.76438328197793
