17

C	-0.39928	-0.031451	-1.457956
C	0.0	0.0	0.0
Br	-0.108104	1.736088	-2.266254
H	1.093862	0.0	0.0
H	-0.375357	0.913389	0.465341
C	0.375589	-1.050852	-2.257444
H	0.135686	-0.99851	-3.319152
H	0.14836	-2.05561	-1.897567
H	1.436302	-0.844815	-2.077505
N	-1.907372	-0.25963	-1.568509
O	-2.640969	0.489602	-0.931037
O	-2.296687	-1.218186	-2.235839
C	-0.481228	-1.224877	0.773508
H	-1.572686	-1.286969	0.839804
H	-0.099516	-2.152223	0.341003
H	-0.080695	-1.163847	1.788777
H	2.94964	0.0	0.0
