17

C	-0.628739	0.004663	-1.373807
C	0.0	0.0	0.0
Br	0.257726	-1.294976	-2.564646
H	1.090609	0.0	0.0
H	-0.310777	0.937178	0.48386
C	-2.112829	-0.290419	-1.407199
H	-2.507327	-0.224789	-2.419457
H	-2.637553	0.432586	-0.775542
H	-2.283689	-1.293755	-1.018334
N	-0.381675	1.365353	-2.02532
O	-1.322006	1.887021	-2.631105
O	0.733045	1.850282	-1.900088
C	-0.426764	-1.191332	0.853149
H	-1.475315	-1.165453	1.166355
H	0.205264	-1.202037	1.744869
H	-0.239944	-2.129729	0.324117
H	2.93665	0.0	0.0
