17

C	0.0	0.0	0.0
C	-0.517915	0.269088	-1.409272
Cl	1.798837	0.0	0.0
H	-1.607536	0.251444	-1.287538
H	-0.261319	-1.029116	0.27434
N	-0.494478	0.993421	0.916854
H	-0.293167	0.698975	1.866535
H	-1.513345	0.976579	0.809651
C	-0.141171	-0.845156	-2.377272
H	-0.639967	-0.687746	-3.338117
H	-0.461248	-1.819264	-1.995294
H	0.938071	-0.878992	-2.553714
C	-0.106729	1.639527	-1.933145
H	-0.649693	1.858731	-2.857334
H	-0.338799	2.415257	-1.20282
H	0.965605	1.678094	-2.147982
Br	-3.857296	0.0	0.0
