17

C	0.0	0.0	0.0
C	-0.372861	0.000575	-1.517894
Cl	1.806001	0.0	0.0
H	0.47831	0.427874	-2.058933
H	-0.297341	-0.947518	0.45258
N	-0.501272	1.051496	0.835935
H	-0.39146	1.944551	0.370637
H	-1.500386	0.890938	0.959762
C	-1.597668	0.838277	-1.86402
H	-2.500217	0.511499	-1.344371
H	-1.783128	0.764395	-2.941135
H	-1.438543	1.897218	-1.639557
C	-0.552028	-1.444525	-1.97789
H	-1.4475	-1.870403	-1.51593
H	0.313533	-2.058647	-1.710321
H	-0.679374	-1.494272	-3.063418
Br	-4.563422	0.0	0.0
