17

C	0.0	0.0	0.0
C	-0.542869	0.012143	-1.429857
F	1.361178	0.0	0.0
H	0.150537	-0.667259	-1.942154
N	-0.416047	1.254698	0.783177
O	0.376214	1.638633	1.633062
O	-1.505686	1.73647	0.511751
C	-0.435152	-1.15735	0.795547
N	-0.710652	-2.117308	1.414424
N	-0.307129	1.35306	-1.965833
H	-1.148747	1.902831	-1.83078
H	-0.146335	1.282298	-2.962168
C	-1.962002	-0.524635	-1.56558
H	-2.029639	-1.570902	-1.25765
H	-2.246119	-0.47025	-2.620296
H	-2.709903	0.023248	-0.98573
Cl	-5.08685	0.0	0.0
