17

C	0.0	0.0	0.0
C	-0.476921	-0.002492	-1.488415
F	1.363855	0.0	0.0
H	0.385782	0.46134	-1.982884
N	-0.363221	1.330343	0.652663
O	-1.034494	1.323521	1.67468
O	0.096135	2.313346	0.078816
C	-0.464977	-1.098295	0.846767
N	-0.70578	-2.060317	1.476579
N	-1.645691	0.751718	-1.82759
H	-2.484137	0.434975	-1.325251
H	-1.51272	1.735205	-1.632955
C	-0.633342	-1.443469	-1.955754
H	0.227822	-2.061928	-1.68655
H	-1.535813	-1.872547	-1.514016
H	-0.749932	-1.441536	-3.040147
Cl	-4.133127	0.0	0.0
