13

C	-0.259962	-0.02553	-1.509955
C	0.0	0.0	0.0
Br	-2.183891	-0.160131	-1.931181
H	1.099429	0.0	0.0
H	0.017728	0.956212	-1.909178
N	0.440127	-1.150205	-2.053242
H	0.449781	-1.103121	-3.064027
H	1.403517	-1.119038	-1.71337
C	-0.487302	-1.198572	0.675027
N	-0.869361	-2.153162	1.241826
C	-0.504618	1.212805	0.631018
N	-0.899826	2.200751	1.1279
Br	3.340183	0.0	0.0
