13

C	-0.493744	-0.035631	-1.452489
C	0.0	0.0	0.0
Br	0.279222	1.544766	-2.401742
H	1.0948	0.0	0.0
H	-0.029219	-0.886043	-1.950651
N	-1.907714	-0.114187	-1.528591
H	-2.215659	-0.198508	-2.488523
H	-2.33516	0.710916	-1.12341
C	-0.447318	-1.219709	0.680593
N	-0.787371	-2.209146	1.213897
C	-0.521098	1.174117	0.698042
N	-0.98226	2.116974	1.225553
Br	3.363096	0.0	0.0
