13

C	-0.341241	0.102694	-1.501848
C	0.0	0.0	0.0
Br	-0.122743	-1.743123	-2.334029
H	1.097498	0.0	0.0
H	-1.397287	0.30129	-1.683102
N	0.484943	1.09279	-2.04653
H	0.356659	1.21462	-3.040725
H	1.466181	0.930794	-1.818357
C	-0.547742	-1.1653	0.682598
N	-1.018495	-2.068202	1.267664
C	-0.466713	1.221338	0.661042
N	-0.875985	2.187245	1.189379
Br	3.363206	0.0	0.0
