13

C	-0.271874	-0.041417	-1.507159
C	0.0	0.0	0.0
Br	-2.189098	-0.172224	-1.914292
H	1.099447	0.0	0.0
H	0.013738	0.933342	-1.919028
N	0.414786	-1.180456	-2.041155
H	0.332529	-1.196112	-3.050766
H	1.400825	-1.102479	-1.781141
C	-0.489568	-1.190386	0.686465
N	-0.873078	-2.141806	1.257262
C	-0.500478	1.219957	0.619068
N	-0.894335	2.211582	1.108814
Br	3.349628	0.0	0.0
