13

C	-0.444284	-0.000986	-1.47225
C	0.0	0.0	0.0
Br	0.050666	1.683108	-2.313425
H	1.095896	0.0	0.0
H	0.173673	-0.74753	-1.984737
N	-1.874645	-0.171298	-1.588357
H	-2.141115	-0.164708	-2.56551
H	-2.133503	-1.069606	-1.19212
C	-0.440446	-1.262493	0.600185
N	-0.812253	-2.30019	1.007772
C	-0.536229	1.127975	0.756755
N	-0.954542	2.034855	1.374306
Br	3.347834	0.0	0.0
