13

C	-0.494432	-0.024707	-1.453079
C	0.0	0.0	0.0
Br	0.307294	1.539136	-2.401167
H	1.094797	0.0	0.0
H	-0.055178	-0.888094	-1.95344
N	-1.913108	-0.063988	-1.529147
H	-2.21782	-0.130836	-2.491543
H	-2.312335	0.77579	-1.123407
C	-0.456535	-1.217906	0.676983
N	-0.801533	-2.207006	1.20769
C	-0.512867	1.177269	0.701098
N	-0.961324	2.124075	1.232664
Br	3.361063	0.0	0.0
