15
Coordinates from ORCA-job run
  C   -0.76200734262406      0.65771344947387     -0.36414470184647
  C   0.59437096307329      0.00540780200615     -0.68909411764561
  Cl  -0.49935074389191      2.40925613215057     -0.07695728536117
  H   1.04140799848960      0.57574554049537     -1.51088903307039
  H   -1.38734861926986      0.60601591551846     -1.25799743169926
  C   -1.48481787354489      0.04130755514306      0.81706313972264
  H   -1.62246498946766     -1.03095121512520      0.65301747229107
  H   -0.92922937943929      0.19264787153731      1.74314048404113
  H   -2.46711013872018      0.50074593078875      0.93439911951655
  C   0.33948226168340     -1.35065914505517     -1.18448505017819
  N   0.11438840921806     -2.44165620343343     -1.55642029599737
  C   1.57772165233978     -0.03377894253764      0.48369766158159
  H   1.72376719248156      0.96967980686517      0.88453230414745
  H   2.54277511877774     -0.41456820802645      0.14556608568365
  H   1.21841549089441     -0.68690628980081      1.27957164881440
