15
Coordinates from ORCA-job run
  C   -0.93640434756197      0.11280411590340     -0.27724575823296
  C   0.57311750545603      0.07717307320795     -0.55150718994803
  Cl  -1.72904723649058      1.05838388790631     -1.57779864246985
  H   0.91627478974683      1.11421794201341     -0.64568341108346
  H   -1.33783046120697     -0.90058313432379     -0.36018997799642
  C   -1.28614850255069      0.71854409558645      1.06915482787398
  H   -0.93027514082619      0.08392306486827      1.88305417202515
  H   -2.36798668047910      0.81596504427800      1.16569803854706
  H   -0.84310279595678      1.71229176260748      1.17062077438799
  C   0.83764552853239     -0.59164253678569     -1.82895675644462
  N   1.07077678850497     -1.16775984223938     -2.82493614159038
  C   1.35774647279620     -0.62582919848007      0.56350629942085
  H   2.40470065735609     -0.73245053736279      0.27574936264014
  H   0.95473689030254     -1.62450383930807      0.74898711091173
  H   1.31679653237725     -0.05053389787148      1.48854729195883
