15
Coordinates from ORCA-job run
  C   -0.76127786958183      0.64891165220736     -0.38264404417768
  C   0.59659419371807     -0.01074403970020     -0.68542798007371
  Cl  -0.50059172789310      2.40621324419836     -0.13296502719271
  H   1.04642074348067      0.53949636205777     -1.51942946752258
  H   -1.38109077227217      0.57742731424975     -1.27900641761277
  C   -1.49153206610876      0.05845249728896      0.80714164055209
  H   -0.93993124850162      0.22610049227297      1.73270952658412
  H   -2.47293016390087      0.52301589892863      0.91077966074041
  H   -1.63190374238311     -1.01633243991458      0.66364998632383
  C   0.34610626351804     -1.37897765221899     -1.14899151829720
  N   0.13882832349588     -2.48218334358449     -1.49426388587772
  C   1.57562282798273     -0.02035317903049      0.49152023133276
  H   1.21242164487361     -0.65109809260477      1.30360379927922
  H   1.72238228328627      0.99336003441825      0.86541209763786
  H   2.54088131028620     -0.41228874856854      0.16691139830407
