11
Coordinates from ORCA-job run
  C   0.34998843205468      0.08404466823103     -0.63240104745098
  C   -0.99733233829869     -0.03679001572953      0.07367397903627
  Cl  0.13626768697953      1.38946478911224     -1.91438374670019
  H   -1.78938546027540     -0.19871068834560     -0.66001096416735
  H   0.56617159042335     -0.81762544824948     -1.20419660095147
  H   -1.22317576914813      0.90110587572073      0.59051373887111
  N   1.39175811125252      0.32773241362583      0.28593122375625
  H   1.26551200248046      1.19962403712146      0.78393095290302
  H   2.30166449072902      0.32097311877520     -0.15401526730807
  C   -0.99360119205977     -1.13741947285813      1.03591867306441
  N   -1.00786755413756     -2.03239927740374      1.79403905894700
