11
Coordinates from ORCA-job run
  C   0.24802997203224      0.29189284038028     -0.48545618134872
  C   -0.48102517503095     -0.36521441264216      0.68329656417268
  Cl  -0.60277602316564      1.79042494924441     -0.94578209064447
  H   0.11439387420381     -1.20943310497780      1.04729397120518
  H   0.19138203417942     -0.35126470444187     -1.37125991718962
  H   -0.56066861077674      0.36289130580311      1.49327070947308
  N   1.58490394938263      0.63546971693017     -0.05610248714679
  H   2.05364078714115      1.17417840001937     -0.77439504806293
  H   2.11800558834694     -0.21389550049070      0.09655502295709
  C   -1.80528098626145     -0.85542866188816      0.31191730069632
  N   -2.86060541005141     -1.26162082793666      0.00066215588818
