11
Coordinates from ORCA-job run
  C   0.45621380048757      0.00885267523640     -0.56611386715282
  C   -0.95450876555570     -0.29398126835605     -0.06926499450301
  Cl  0.25352271527920      0.81432491842679     -2.21062683135230
  H   -1.49501711985545      0.64460217314716      0.08743172846814
  H   0.99207620745367     -0.91379318058378     -0.78601624697965
  H   -1.50277958908048     -0.85889201219110     -0.82564417859957
  N   1.18066743619614      0.76898781648242      0.37467429985569
  H   2.14597071842281      0.89763219183942      0.10424791344321
  H   0.75572083133241      1.67148972785496      0.54485851961432
  C   -0.92326996621468     -1.05565759593498      1.17819984278146
  N   -0.90959626846550     -1.68456544592124      2.16825381442454
