11
Coordinates from ORCA-job run
  C   0.43054987818175      0.01488631139630     -0.62768349167294
  C   -0.97067827664296     -0.34209968519729     -0.13482769073876
  Cl  0.29625732796380      0.56887539842966     -2.32172818939507
  H   -1.59263503084329      0.55465399762168     -0.18603496642118
  H   1.04649689639574     -0.89107529040233     -0.67359546390884
  H   -1.41127431266966     -1.11133764868032     -0.77269340366894
  N   0.96808061862207      1.08829884145619      0.16914886366646
  H   1.87940066250191      1.36104414866066     -0.17742844225408
  H   1.07363223586614      0.78027011726516      1.13005356064814
  C   -0.91296064476274     -0.82326505600721      1.24402821097831
  N   -0.80686935461275     -1.19925113454249      2.35076101276690
