11
Coordinates from ORCA-job run
  C   0.38165448592672      0.09779949843692     -0.61237183627234
  C   -0.98715650446793     -0.16668072086621      0.00831333891148
  Cl  0.09463771601050      1.29655488012412     -1.98158616844410
  H   -1.69463862068298     -0.47083935500870     -0.76553688567450
  H   0.75480364711101     -0.79442982206663     -1.11374344201090
  H   -1.37096916999515      0.75743388073529      0.45130067587115
  N   1.31205551715647      0.52477569397720      0.35681114097858
  H   1.03814564216120      1.39624682315986      0.79218049961331
  H   2.24588567939175      0.61521675306882     -0.01893556610467
  C   -0.91121730630067     -1.20612394418916      1.03363534098232
  N   -0.86420108631092     -2.04895368737152      1.84793290214969
