11
Coordinates from ORCA-job run
  C   0.35777336735186      0.18788595552495     -0.58387037418949
  C   -0.53168455828669     -0.27520217765488      0.58097014339771
  Cl  -0.54233803624233      1.43296559620900     -1.50092596197843
  H   -0.79538962394623      0.59034008077038      1.19568126631644
  H   0.52411338813901     -0.64231892644495     -1.27239430186364
  H   0.04461696407208     -0.96791481218586      1.20281229670783
  N   1.63284630104481      0.71787326446416     -0.19423735503908
  H   1.53598305305853      1.42762245868429      0.52116344407873
  H   2.24364771988055     -0.01896155938102      0.13464950259271
  C   -1.75217470678978     -0.94550508895883      0.14023190333044
  N   -2.71639386828181     -1.50578479102723     -0.22408056335321
