11
Coordinates from ORCA-job run
  C   0.28694378842345      0.33475548387684     -0.63677268849398
  C   -0.73075707241138     -0.68721902479637     -0.14164678609803
  Cl  -0.51850010409676      1.90864682543179     -0.89002867833622
  H   -0.24828187003225     -1.66985864533809     -0.08618815552485
  H   0.61961527515642      0.02616806957667     -1.63572904970591
  H   -1.54995211087019     -0.76489916268132     -0.86022564851013
  N   1.33197162565229      0.50410385235945      0.33823899617331
  H   1.81141538747727     -0.37594152150243      0.49058520828487
  H   2.00630087689318      1.19108903852078      0.02520879144736
  C   -1.27349996914750     -0.35184099659458      1.17327483696869
  N   -1.73625582704453     -0.11500391885277      2.22428317379490
