11
Coordinates from ORCA-job run
  C   0.26883458140020      0.47977334446703     -0.29028255810478
  C   -0.53009675169935     -0.69544181291719      0.26530194518139
  Cl  0.37759548131503      1.75302129320043      1.02089482898825
  H   -0.03530380094755     -1.08356266649304      1.16045548811205
  H   -0.27876529893632      0.96592627580238     -1.09705361279619
  H   -0.53503854825875     -1.48410066837665     -0.49175280797530
  N   1.52369337533670      0.02726994613868     -0.77196278114501
  H   2.03663707675980      0.77337215228701     -1.22297807109857
  H   2.09277000256620     -0.34679119550502     -0.02231166384018
  C   -1.90506024428761     -0.33618992097116      0.59877603290017
  N   -3.01526587324834     -0.05427674763244      0.85091319977816
