11
Coordinates from ORCA-job run
  C   0.35415415908959      0.15954616124513     -0.69632598879135
  C   -0.79892506064159     -0.67756888704931     -0.15137407404387
  Cl  -0.31013629894269      1.82619163251964     -1.09644703511716
  H   -0.46033995768792     -1.71498911668570     -0.07908260343864
  H   0.66289198205751     -0.24064206571861     -1.66179331447386
  H   -1.65344701591616     -0.63093565659343     -0.82838267231432
  N   1.45146049379389      0.15845974788487      0.19359677136031
  H   1.21549295856222      0.58062096516466      1.08396865994254
  H   2.25224886021128      0.63666237357199     -0.19651099268411
  C   -1.20616242215704     -0.22343538251243      1.17642696657383
  N   -1.50523769836909      0.12509022817318      2.25592428298663
