14

C	-0.563697	0.028654	-1.418929
C	0.0	0.0	0.0
Cl	-0.092556	1.520598	-2.277395
H	1.092571	0.0	0.0
H	-0.31581	-0.970564	0.421547
C	-0.042839	-1.107054	-2.205543
N	0.238524	-2.068804	-2.81977
N	-2.020819	-0.003913	-1.363999
H	-2.293795	-0.894714	-0.958605
H	-2.392788	0.030787	-2.307368
N	-0.464953	1.149282	0.751642
H	-1.320719	0.956168	1.249477
H	0.256724	1.423318	1.403097
Cl	3.459653	0.0	0.0
