17

C	-0.421604	-0.043759	-1.478898
C	0.0	0.0	0.0
Cl	0.325554	1.350211	-2.247651
H	1.090531	0.0	0.0
C	-0.03137	-1.301154	-2.224202
H	-0.258572	-1.162528	-3.283893
H	-0.575208	-2.157177	-1.837325
H	1.038374	-1.460572	-2.090831
N	-1.948665	0.096703	-1.550653
O	-2.544576	-0.771565	-0.917357
O	-2.459989	0.987127	-2.210581
N	-0.417427	-1.215665	0.788003
O	0.060939	-2.281388	0.421498
O	-1.156771	-1.054277	1.752976
C	-0.513532	1.197979	0.648715
N	-0.911307	2.18649	1.144488
Br	3.299379	0.0	0.0
