17

C	-0.423532	-0.012064	-1.469336
C	0.0	0.0	0.0
Cl	-0.169808	1.636108	-2.099901
H	1.09551	0.0	0.0
C	0.366833	-0.983785	-2.313724
H	0.138133	-0.825313	-3.365861
H	1.426868	-0.801952	-2.120889
H	0.115517	-2.005903	-2.038225
N	-1.926733	-0.261808	-1.599752
O	-2.324235	-0.692337	-2.675552
O	-2.627275	0.026009	-0.636415
N	-0.389134	-1.263881	0.725087
O	-0.152242	-1.284425	1.92502
O	-0.872275	-2.185295	0.070458
C	-0.474156	1.131038	0.783605
N	-0.812278	2.045475	1.438265
Br	3.314404	0.0	0.0
