17

C	-0.451221	-0.002041	-1.452702
C	0.0	0.0	0.0
Cl	0.644345	1.042764	-2.37968
H	1.089384	0.0	0.0
C	-0.495406	-1.380975	-2.081775
H	0.479521	-1.858749	-1.977936
H	-1.258488	-1.98408	-1.585966
H	-0.740847	-1.286347	-3.141541
N	-1.869284	0.585653	-1.610287
O	-2.629833	0.336401	-0.673393
O	-2.164833	1.115908	-2.668461
N	-0.338264	-1.260661	0.783104
O	-1.53752	-1.561107	0.923762
O	0.581513	-2.084132	0.849213
C	-0.477454	1.124657	0.764835
N	-0.810773	2.027854	1.442462
Br	2.829537	0.0	0.0
