16

C	0.0	0.0	0.0
C	-0.563954	0.129577	-1.440532
Cl	1.791562	0.0	0.0
H	0.298622	0.026607	-2.108206
H	-0.294381	-0.957253	0.432398
C	-0.41885	1.060541	0.915548
N	-0.679798	1.93098	1.659344
C	-1.227052	1.481757	-1.695539
H	-1.501694	1.55369	-2.751781
H	-0.558236	2.315565	-1.46028
H	-2.144604	1.568475	-1.107046
C	-1.536726	-1.016301	-1.7101
H	-1.859904	-0.985184	-2.755139
H	-1.059441	-1.987246	-1.535785
H	-2.433669	-0.917272	-1.090387
Cl	-4.467636	0.0	0.0
