16

C	0.0	0.0	0.0
C	-0.532134	0.07924	-1.464196
Cl	1.79178	0.0	0.0
H	0.357405	0.098792	-2.103359
H	-0.305998	-0.936942	0.467954
C	-0.417886	1.107019	0.858523
N	-0.662229	2.034293	1.536597
C	-1.34607	1.342707	-1.736564
H	-2.264786	1.339547	-1.145136
H	-1.624611	1.359343	-2.794888
H	-0.764486	2.245655	-1.526225
C	-1.3357	-1.181409	-1.781612
H	-1.666736	-1.156019	-2.823414
H	-2.23129	-1.219251	-1.156556
H	-0.732242	-2.085238	-1.638021
Cl	-4.221968	0.0	0.0
