16

C	0.0	0.0	0.0
C	-0.572282	-0.139796	-1.409407
Cl	1.793318	0.0	0.0
H	-1.655731	-0.0838	-1.235861
H	-0.328027	-0.836572	0.618931
C	-0.399899	1.252651	0.647108
N	-0.627565	2.265347	1.195791
C	-0.246133	-1.508117	-1.994106
H	-0.743611	-1.621434	-2.960886
H	-0.612978	-2.304915	-1.341279
H	0.829383	-1.642844	-2.145216
C	-0.148323	0.996766	-2.329241
H	-0.403596	1.968478	-1.89923
H	-0.678831	0.908279	-3.281011
H	0.926411	0.976936	-2.534088
Cl	-3.648075	0.0	0.0
