18

C	0.0	0.0	0.0
C	-0.595187	0.061311	-1.407954
Cl	1.766444	0.0	0.0
H	-1.644579	0.360728	-1.248821
N	-0.356938	1.313712	0.73589
O	-0.82977	2.226903	0.071168
O	-0.109893	1.35182	1.935829
C	-0.526751	-1.14588	0.826758
H	-0.180262	-2.091239	0.407618
H	-1.620826	-1.104949	0.821897
H	-0.153599	-1.053652	1.845528
C	-0.598071	-1.303409	-2.101841
H	0.391833	-1.76559	-2.092393
H	-0.9109	-1.17578	-3.139744
H	-1.324563	-1.949857	-1.611645
C	0.07471	1.050884	-2.25063
N	0.624407	1.775924	-2.99364
Br	-3.882957	0.0	0.0
