12
Coordinates from ORCA-job run
  C   -0.16524605369532     -0.23441975768142      0.33393868748881
  C   0.04185480402180      1.25562843599725      0.16782842610071
  F   -0.41638783988250     -0.49387253976463      1.64157962844276
  H   -0.87888225825106      1.77002078274715      0.44951062709238
  H   0.84837327322734      1.59727116412542      0.81946796398907
  H   0.28552555601686      1.48686742910515     -0.86882701079617
  N   1.15483198375564     -0.91959838184133     -0.02456354771593
  O   1.41072069857273     -0.94742465296733     -1.22565470498597
  O   1.85337512418180     -1.33901718258811      0.88420573970204
  N   -1.15808019985993     -0.88503742022466     -0.45106617640453
  H   -0.91754311798256     -0.83613247937853     -1.43178779194456
  H   -2.06054197010480     -0.45528539752897     -0.29363184096861
