12
Coordinates from ORCA-job run
  C   -0.24217692249957     -0.14318461271262      0.28269137528034
  C   0.10697976906542      1.31747726726608      0.26195966305411
  F   -0.54157486782453     -0.54721535861918      1.56043451137101
  H   0.47582673900256      1.61419214058382     -0.72150460822317
  H   -0.79379654040496      1.88244206936964      0.50084246932221
  H   0.87828960216012      1.52198596114140      0.99976632300325
  N   1.04008244963568     -0.99261803976631     -0.00985681430150
  O   0.86371252120717     -2.07525108304610     -0.56230594143506
  O   2.11480563662905     -0.54908421455198      0.37836864981448
  N   -1.30268019686759     -0.48609816764093     -0.56131422442012
  H   -1.38264941949516     -1.49009815306483     -0.65958025499054
  H   -1.21681877060818     -0.05354780895899     -1.46950114847502
