12
Coordinates from ORCA-job run
  C   -0.23985934086862     -0.12769161606371      0.32698136632157
  C   0.12090207985073      1.32533101196238      0.17134584831944
  F   -0.52237982852338     -0.42007620232179      1.62054669238053
  H   -0.74659117385851      1.92253045654751      0.45071642611462
  H   0.95679172892573      1.56426882792072      0.83013139149245
  H   0.40187449621219      1.54173977244973     -0.85910685687793
  N   1.04331376920840     -0.94772336712126     -0.00298542531396
  O   1.65621715071277     -1.48996484283803      0.90549628696980
  O   1.34065971010788     -0.95662951616647     -1.19570827729711
  N   -1.32779506761361     -0.52885031015198     -0.47560355867074
  H   -1.12783549605325     -0.37894968683569     -1.45456881049254
  H   -1.55529802810034     -1.50298452738140     -0.31724508294614
