17

C	-0.482618	0.073809	-1.437982
C	0.0	0.0	0.0
Br	0.039401	-1.727117	-2.303914
H	1.092618	0.0	0.0
H	-0.351447	-0.933795	0.454412
N	-1.896701	0.232849	-1.535747
H	-2.358987	-0.508234	-1.018949
H	-2.192537	0.172953	-2.503623
C	0.252326	1.122046	-2.248479
H	1.328056	0.995494	-2.10313
H	0.002537	1.049282	-3.311109
H	-0.047389	2.110096	-1.886628
C	-0.459716	1.196936	0.832888
H	-0.042462	2.127513	0.440489
H	-1.547451	1.298093	0.879307
H	-0.068082	1.081063	1.847749
H	3.064281	0.0	0.0
