17

C	-0.374804	-0.063569	-1.482209
C	0.0	0.0	0.0
Br	-0.295876	1.783564	-2.260564
H	1.09544	0.0	0.0
H	-0.289765	-0.987751	0.394219
N	0.580345	-0.850117	-2.232951
H	1.514278	-0.618785	-1.877249
H	0.421415	-1.822586	-1.984081
C	-1.782379	-0.562959	-1.758548
H	-2.528713	0.063107	-1.265533
H	-1.975311	-0.578203	-2.832702
H	-1.872452	-1.583921	-1.367482
C	-0.592477	1.096411	0.866658
H	-1.684054	1.160966	0.789846
H	-0.173334	2.065578	0.595635
H	-0.336696	0.90717	1.91339
H	3.04373	0.0	0.0
