18

C	-0.431053	0.003461	-1.462405
C	0.0	0.0	0.0
Cl	0.175792	-1.497616	-2.168511
H	1.089265	0.0	0.0
N	-1.954654	0.066562	-1.611964
O	-2.485722	0.919891	-0.907763
O	-2.511274	-0.630434	-2.443902
C	0.139004	1.174615	-2.242687
H	1.218491	1.199111	-2.081616
H	-0.079802	1.021099	-3.301394
H	-0.300648	2.108586	-1.899126
N	-0.513235	-1.188344	0.740768
O	-1.571101	-1.685623	0.356425
O	0.149951	-1.551749	1.703706
N	-0.429738	1.204771	0.790571
O	0.029379	2.274721	0.413395
O	-1.156964	1.030686	1.761606
Cl	3.156535	0.0	0.0
