18

C	-0.450068	0.005579	-1.455652
C	0.0	0.0	0.0
Cl	0.161995	-1.484922	-2.177364
H	1.089239	0.0	0.0
N	-1.978005	0.050161	-1.579369
O	-2.50297	0.910427	-0.878814
O	-2.544005	-0.668224	-2.386541
C	0.090096	1.187968	-2.239573
H	-0.353116	2.114269	-1.880419
H	1.172444	1.224301	-2.101904
H	-0.150128	1.039215	-3.294543
N	-0.501193	-1.193381	0.743449
O	-1.563595	-1.691274	0.372483
O	0.177347	-1.559753	1.695033
N	-0.428112	1.200016	0.798739
O	-1.151102	1.020083	1.771947
O	0.028569	2.272211	0.425032
Cl	3.158266	0.0	0.0
