18

C	-0.411452	0.026774	-1.472405
C	0.0	0.0	0.0
Cl	-0.268444	-1.634558	-2.096634
H	1.090613	0.0	0.0
N	-1.856631	0.4821	-1.700785
O	-2.264195	0.420765	-2.854842
O	-2.470604	0.943256	-0.744901
C	0.496942	0.910527	-2.308744
H	0.347584	1.956564	-2.048783
H	1.530846	0.637638	-2.08581
H	0.27182	0.745003	-3.361403
N	-0.550069	-1.153912	0.763924
O	0.201985	-1.682251	1.574792
O	-1.720438	-1.460822	0.548107
N	-0.364173	1.240307	0.772662
O	-0.135367	2.307567	0.219472
O	-0.78029	1.091629	1.913956
Cl	3.191323	0.0	0.0
