18

C	-0.542024	-0.008156	-1.421137
C	0.0	0.0	0.0
Cl	-2.295999	-0.316867	-1.476675
H	1.087149	0.0	0.0
N	-0.265785	1.366463	-2.061325
O	-1.055301	1.78164	-2.900965
O	0.769363	1.913697	-1.686279
C	0.193859	-1.005083	-2.297027
H	-0.023869	-2.017829	-1.964331
H	1.269031	-0.822979	-2.200704
H	-0.147526	-0.878149	-3.326481
N	-0.443094	-1.222179	0.720151
O	0.072731	-2.28841	0.337879
O	-1.414848	-1.145863	1.466111
N	-0.458194	1.144966	0.829134
O	0.063927	1.230333	1.93432
O	-1.207874	1.984036	0.322879
Cl	3.050492	0.0	0.0
