18

C	-0.408716	0.004796	-1.469827
C	0.0	0.0	0.0
Cl	0.177679	-1.513983	-2.157203
H	1.089258	0.0	0.0
N	-1.926859	0.098389	-1.649089
O	-2.455644	0.962109	-0.955839
O	-2.479842	-0.586608	-2.493401
C	0.203729	1.158118	-2.245455
H	0.005169	1.002611	-3.307562
H	1.279871	1.157743	-2.060764
H	-0.221163	2.104419	-1.916597
N	-0.530457	-1.182908	0.734294
O	0.130512	-1.569122	1.689676
O	-1.601773	-1.652313	0.353335
N	-0.429405	1.206873	0.785892
O	0.040227	2.274225	0.414815
O	-1.166065	1.035534	1.750795
Cl	3.16354	0.0	0.0
