18

C	-0.403349	0.024464	-1.473411
C	0.0	0.0	0.0
Cl	0.443604	-1.218218	-2.40916
H	1.117919	0.0	0.0
N	-1.908337	-0.278552	-1.475541
O	-2.654212	0.700459	-1.340759
O	-2.275778	-1.454369	-1.459979
C	-0.063994	1.349259	-2.129184
H	-0.614521	2.177596	-1.695869
H	-0.282039	1.293564	-3.198972
H	1.010107	1.507767	-2.01317
N	-0.147005	-1.25216	0.793896
O	-0.226424	-1.13413	2.02416
O	0.008832	-2.327828	0.211739
N	-0.477444	1.073066	0.912608
O	-1.687589	1.147093	1.176683
O	0.3948	1.743089	1.486326
Cl	2.840445	0.0	0.0
