18

C	-0.626764	-0.002014	-1.400895
C	0.0	0.0	0.0
Cl	0.370295	0.995168	-2.478885
H	1.086736	0.0	0.0
N	-0.499246	-1.423416	-1.962281
O	0.453554	-2.08272	-1.574376
O	-1.325578	-1.759265	-2.803052
C	-2.063236	0.461297	-1.468519
H	-2.415388	0.387798	-2.494938
H	-2.686384	-0.154248	-0.821577
H	-2.114613	1.504181	-1.1542
N	-0.480712	-1.138294	0.843077
O	0.152038	-1.331568	1.872313
O	-1.47399	-1.766969	0.475267
N	-0.45475	1.244103	0.709662
O	-1.314812	1.135314	1.582096
O	0.049964	2.289767	0.320959
Cl	3.169232	0.0	0.0
