14

C	-0.601388	0.015261	-1.4031
C	0.0	0.0	0.0
Br	0.196035	1.609023	-2.3975
H	1.094719	0.0	0.0
H	-0.354478	-0.928584	0.460151
C	-0.206834	-1.145242	-2.199145
N	0.060623	-2.095537	-2.836864
N	-2.012481	0.098978	-1.311321
H	-2.211223	0.822569	-0.62595
H	-2.43967	0.308348	-2.201902
N	-0.552254	1.142669	0.744476
H	0.100919	1.911545	0.638459
H	-0.554525	0.904649	1.7283
Br	3.608085	0.0	0.0
