14

C	-0.603036	0.001564	-1.403822
C	0.0	0.0	0.0
Br	0.193594	1.586844	-2.4121
H	1.094811	0.0	0.0
H	-0.355362	-0.924148	0.467987
C	-0.210347	-1.1657	-2.191711
N	0.027621	-2.129738	-2.819759
N	-2.012599	0.083697	-1.312263
H	-2.219379	0.818993	-0.641293
H	-2.443663	0.268963	-2.208014
N	-0.553095	1.149169	0.733467
H	-0.559134	0.919651	1.719449
H	0.101266	1.91649	0.624208
Br	3.609742	0.0	0.0
