14

C	-0.551011	-0.013581	-1.428411
C	0.0	0.0	0.0
Br	-0.053265	-1.734611	-2.273432
H	1.091901	0.0	0.0
H	-0.350874	-0.90046	0.515951
C	-2.026249	-0.025115	-1.37581
N	-3.19922	0.029467	-1.303335
N	-0.0198	1.073828	-2.176499
H	0.072823	1.863057	-1.542877
H	-0.597486	1.312709	-2.971494
N	-0.424292	1.254672	0.62545
H	-1.271444	1.13498	1.165476
H	0.31368	1.571933	1.241036
Br	3.623401	0.0	0.0
