14

C	-0.594664	0.00381	-1.406958
C	0.0	0.0	0.0
Br	0.029199	1.600878	-2.367453
H	1.09574	0.0	0.0
H	-0.36733	0.909072	0.482077
C	-0.124837	-1.15978	-2.176135
N	0.179362	-2.141597	-2.747471
N	-2.032068	0.049418	-1.30042
H	-2.466012	-0.170754	-2.188384
H	-2.269742	-0.663897	-0.613801
N	-0.546931	-1.180707	0.698222
H	0.127756	-1.932861	0.594288
H	-0.583619	-0.973456	1.688026
Br	3.613274	0.0	0.0
