14

C	-0.339909	0.167483	-1.483647
C	0.0	0.0	0.0
Br	-0.076603	-1.664442	-2.392084
H	1.09128	0.0	0.0
H	-0.331626	0.929448	0.475661
C	-1.75366	0.449206	-1.733045
N	-2.878533	0.727537	-1.929333
N	0.49576	1.160954	-2.01477
H	0.40956	1.261907	-3.016831
H	1.466281	0.995341	-1.743514
N	-0.65873	-1.134837	0.62001
H	-0.793749	-0.933765	1.602758
H	-0.042879	-1.93758	0.561724
Br	3.586992	0.0	0.0
