17

C	-0.458888	-0.007861	-1.471655
C	0.0	0.0	0.0
Br	0.321178	1.495699	-2.48252
H	1.096394	0.0	0.0
C	-0.061362	-1.232589	-2.169469
N	0.24996	-2.211218	-2.741233
C	-1.916783	0.126552	-1.56665
N	-3.088116	0.229211	-1.588116
C	-0.480863	-1.274808	0.690943
H	-0.108998	-1.267143	1.718073
H	-1.574695	-1.340743	0.720753
H	-0.080268	-2.169314	0.209454
C	-0.487478	1.241334	0.735869
H	-0.142435	2.156622	0.253138
H	-1.57974	1.268949	0.818153
H	-0.064966	1.226859	1.743122
Br	3.523137	0.0	0.0
