17

C	-0.384593	-0.000977	-1.482403
C	0.0	0.0	0.0
Br	-2.379326	-0.007567	-1.728585
H	1.099198	0.0	0.0
C	0.081914	1.195362	-2.183504
N	0.448078	2.152473	-2.760642
C	0.084679	-1.197385	-2.180749
N	0.45066	-2.154238	-2.757022
C	-0.459136	-1.264802	0.710717
H	-0.098145	-2.163206	0.20446
H	-1.548994	-1.315441	0.797017
H	-0.02852	-1.266144	1.71478
C	-0.458102	1.265578	0.710015
H	-1.547931	1.31698	0.796853
H	-0.027002	1.267356	1.713995
H	-0.096604	2.163362	0.202928
Br	3.467907	0.0	0.0
