16

C	-0.468408	0.031178	-1.451044
C	0.0	0.0	0.0
Cl	-0.067168	-1.582324	-2.17366
H	1.093374	0.0	0.0
H	-0.376844	-0.891297	0.517148
C	-1.965465	0.227543	-1.59465
H	-2.238365	1.189885	-1.15448
H	-2.238462	0.221584	-2.650584
H	-2.506745	-0.567766	-1.075749
N	0.239633	1.04236	-2.218752
H	1.234904	0.851751	-2.082804
H	0.065288	1.905284	-1.705977
N	-0.403216	1.262516	0.644297
H	-1.171908	1.114021	1.285142
H	0.393249	1.588458	1.181768
H	3.028091	0.0	0.0
