16

C	-0.548429	-0.054152	-1.426018
C	0.0	0.0	0.0
Cl	-0.290865	1.57659	-2.166822
H	1.097699	0.0	0.0
H	-0.379609	0.896613	0.502553
C	0.214052	-1.075469	-2.242021
H	-0.142194	-1.076137	-3.273462
H	1.280952	-0.857394	-2.191042
H	0.042835	-2.061049	-1.80428
N	-1.981337	-0.324649	-1.505079
H	-2.101798	-1.139966	-0.905106
H	-2.461478	0.441257	-1.039478
N	-0.435911	-1.233607	0.697827
H	-0.876054	-0.990335	1.576729
H	0.414173	-1.738104	0.933329
H	3.026218	0.0	0.0
