16

C	-0.205437	-0.048326	-1.507188
C	0.0	0.0	0.0
Cl	-2.005	-0.244791	-1.940949
H	1.098533	0.0	0.0
H	-0.391253	0.936729	0.406293
C	0.252583	1.255436	-2.137607
H	0.157663	1.213232	-3.227109
H	1.3067	1.381976	-1.86422
H	-0.325233	2.106943	-1.769092
N	0.490401	-1.212594	-1.997304
H	1.429085	-1.164932	-1.583855
H	0.590856	-1.152329	-3.004803
N	-0.480321	-1.138124	0.765195
H	0.132151	-1.919352	0.565771
H	-1.402733	-1.395189	0.430301
H	2.958825	0.0	0.0
