16

C	-0.467239	-0.057483	-1.451198
C	0.0	0.0	0.0
Cl	-0.027421	1.580032	-2.208003
H	1.092069	0.0	0.0
H	-0.380579	0.918125	0.46403
C	0.280847	-1.108178	-2.244471
H	0.024397	-2.093438	-1.847992
H	0.008577	-1.07098	-3.303868
H	1.353962	-0.943352	-2.123386
N	-1.886224	-0.262865	-1.529104
H	-2.360004	0.49503	-1.049005
H	-2.187495	-0.257813	-2.497495
N	-0.424149	-1.176785	0.76374
H	0.34016	-1.840944	0.760282
H	-1.23427	-1.602037	0.331475
H	3.045867	0.0	0.0
