14
Coordinates from ORCA-job run
  C   -0.58771643295127     -0.12533053862908      0.45049588075154
  C   0.57258986610543      0.13342614137025     -0.49852618976419
  Br  -0.41461041289056      0.99642600188972      2.05565007620867
  H   0.36360726092362     -0.44555172409585     -1.40755626246630
  H   -0.53562159742556     -1.14790915886903      0.83365216523929
  H   0.56137576529856      1.18972947514648     -0.78750750870858
  C   -1.94159076600450      0.13535921081366     -0.18402482325521
  H   -2.07107981204601     -0.52655936678985     -1.04626535511521
  H   -2.75445794507922     -0.05017152517271      0.51931955313840
  H   -2.01254094966714      1.16980428916070     -0.52689906951160
  C   1.94148114902001     -0.25571770704658      0.04553457783208
  H   2.71363504631954     -0.10544794631988     -0.71246190778475
  H   1.96036941436095     -1.30931934913426      0.33774530315174
  H   2.20455941403614      0.34226219767644      0.91884356028411
