14

C	0.0	0.0	0.0
C	-0.179082	-0.198388	-1.593136
F	1.374685	0.0	0.0
H	0.453652	-1.082304	-1.745206
C	-0.504964	1.268026	0.522004
N	-0.566886	2.362308	0.964119
C	-0.524172	-1.137449	0.754669
N	-0.547712	-2.117837	1.416121
C	0.513393	0.929852	-2.233036
N	1.00484	1.811229	-2.835187
N	-1.475885	-0.410107	-2.199836
H	-2.106396	-0.449365	-1.362777
H	-1.755409	0.442907	-2.672812
H	-2.231357	0.0	0.0
