14

C	0.0	0.0	0.0
C	-0.200613	0.03777	-1.591981
F	1.374947	0.0	0.0
H	0.62552	-0.606807	-1.911953
C	-0.51054	1.155642	0.73191
N	-0.566805	2.136646	1.389293
C	-0.508092	-1.250098	0.572779
N	-0.545456	-2.324773	1.064185
C	0.141207	1.403585	-2.029505
N	0.384246	2.464299	-2.474622
N	-1.441796	-0.458895	-2.153294
H	-1.738121	0.155241	-2.903522
H	-2.112939	-0.336312	-1.355356
H	-2.238265	0.0	0.0
