14

C	0.0	0.0	0.0
C	-0.337249	0.093717	-1.520136
F	1.379445	0.0	0.0
H	-1.425699	0.142316	-1.532225
C	-0.492671	1.21453	0.686404
N	-0.578515	2.264303	1.221983
C	-0.555636	-1.21752	0.62706
N	-0.6192	-2.160567	1.341925
C	0.135102	-1.135053	-2.177535
N	0.517078	-2.07821	-2.760236
N	0.275502	1.289743	-2.05703
H	1.268898	1.136916	-2.179634
H	-0.123505	1.495346	-2.967661
H	-2.371451	0.0	0.0
