14

C	0.0	0.0	0.0
C	-0.336685	0.039012	-1.497681
F	1.37899	0.0	0.0
H	-1.422966	0.12812	-1.496717
C	-0.519759	1.241989	0.611347
N	-0.646359	2.310957	1.086857
C	-0.603414	-1.152063	0.693885
N	-0.583751	-2.124663	1.37559
C	0.0834	-1.235151	-2.109518
N	0.456058	-2.172093	-2.710086
N	0.298485	1.207327	-2.097877
H	-0.110711	1.391773	-2.998196
H	1.289206	1.036733	-2.224393
H	-2.373684	0.0	0.0
