14

C	0.0	0.0	0.0
C	-0.228677	-0.075607	-1.592863
F	1.373247	0.0	0.0
H	0.610998	-0.711954	-1.891496
C	-0.507053	1.198483	0.661301
N	-0.557267	2.227079	1.24281
C	-0.529329	-1.219858	0.617314
N	-0.554158	-2.305986	1.087584
C	0.056081	1.26312	-2.133602
N	0.27781	2.317785	-2.600576
N	-1.429982	-0.611741	-2.179337
H	-1.392006	-1.619855	-2.056019
H	-2.171712	-0.297299	-1.526815
H	-2.221873	0.0	0.0
