14

C	0.0	0.0	0.0
C	-0.165224	-0.032794	-1.594682
F	1.375082	0.0	0.0
H	0.615741	-0.763809	-1.847081
C	-0.47826	1.207791	0.67316
N	-0.600615	2.207119	1.289494
C	-0.537657	-1.213309	0.621301
N	-0.582347	-2.290267	1.106262
C	0.311254	1.273824	-2.101366
N	0.672107	2.275037	-2.595522
N	-1.418741	-0.453495	-2.174401
H	-2.11095	-0.297855	-1.400279
H	-1.651654	0.119547	-2.977401
H	-2.214004	0.0	0.0
