14

C	0.0	0.0	0.0
C	-0.302282	-0.052583	-1.546429
F	1.377818	0.0	0.0
H	-1.384758	-0.132559	-1.641404
C	-0.626416	1.222443	0.529484
N	-0.546919	2.33867	0.937917
C	-0.512105	-1.154326	0.748499
N	-0.520834	-2.102068	1.455942
C	0.331611	-1.238997	-2.128877
N	0.832026	-2.180263	-2.622146
N	0.165531	1.134692	-2.243929
H	-0.386938	1.920554	-1.913571
H	1.128547	1.31319	-1.977027
H	-2.183476	0.0	0.0
