14

C	0.0	0.0	0.0
C	-0.270813	-0.003784	-1.530359
F	1.371278	0.0	0.0
H	0.589989	0.565678	-1.897328
C	-0.466441	1.245829	0.625913
N	-0.693763	2.364699	0.922319
C	-0.459904	-1.19268	0.710185
N	-0.698577	-2.095078	1.413507
C	-1.464118	0.627037	-2.069808
N	-2.375298	1.038847	-2.666004
N	-0.089244	-1.374437	-2.002776
H	-0.920282	-1.900038	-1.775127
H	-0.003064	-1.345618	-3.010259
H	-2.09219	0.0	0.0
