16
Coordinates from ORCA-job run
  C   -0.54838027258110     -0.46221382291284      0.36330938940633
  C   0.64496072038106      0.31132486457850     -0.24875864097374
  Cl  -0.67210824198232     -2.08565625443698     -0.39110643647808
  H   0.57517457426129      1.31909676274088      0.19332147252894
  C   -1.85900310609298      0.28037342150483      0.14355663464997
  H   -2.68991010396977     -0.28722021696318      0.56331538813998
  H   -2.00259791088019      0.41764751971156     -0.92673414029570
  H   -1.81536078933977      1.25794076355443      0.63115732871471
  C   -0.30214343606835     -0.64817062046843      1.79429814627686
  N   -0.08145448882910     -0.73520118177623      2.94533115536732
  N   0.43523583718858      0.45884041069017     -1.66824081179887
  H   0.97836049999562      1.23312080690805     -2.02747962767893
  H   0.73649245953464     -0.39159142296576     -2.13113009110807
  N   1.89009437182537     -0.37547266811073      0.05464468034958
  H   2.04943632083137     -0.43608853791654      1.05478361537658
  H   2.66020356572565      0.14327017586227     -0.35026806247689
