16
Coordinates from ORCA-job run
  C   -0.50358520916009     -0.43325126210471      0.47804960699701
  C   0.70325768919905      0.29661145654855     -0.15400348744222
  Cl  -0.44476377706153     -2.18199718238397      0.07329165335981
  H   0.67635094567083      1.30911001212692      0.27917116604662
  C   -1.83068479841406      0.12650817841609     -0.01656300956939
  H   -1.92003898743654     -0.05961914018785     -1.08676387339727
  H   -1.87677200405844      1.20168980401137      0.18214448571967
  H   -2.66222119292635     -0.35799695147440      0.49543059869788
  C   -0.41028643887764     -0.30306652214426      1.93286650001771
  N   -0.38809954745610     -0.14070901204530      3.09583419996570
  N   0.55346403270262      0.29996935053563     -1.60664591888849
  H   -0.05044307043893      1.05487498284124     -1.91059806567494
  H   1.46153448120702      0.44547422730088     -2.02914707721562
  N   1.91980229073875     -0.31917251014436      0.30124084941160
  H   2.05506411896030     -1.21106733194149     -0.15941407988864
  H   2.71842146735109      0.27564190064565      0.12410645186058
