16
Coordinates from ORCA-job run
  C   -0.52951280515149     -0.52469192079330      0.45116601614690
  C   0.64652310354035     -0.21039840331739     -0.50441432117382
  Cl  -0.66165755241869     -2.30639625621185      0.60883774122639
  H   0.49652945528794     -0.85106490506755     -1.38520253625486
  C   -1.85915209726910      0.01115339114983     -0.06499432976901
  H   -2.04117207810988     -0.37146843702483     -1.07270980114426
  H   -2.67315813395362     -0.31984235477843      0.58009988024788
  H   -1.83996524239106      1.10144603140662     -0.07497838894234
  C   -0.23335234325677      0.03464826119615      1.76980515637911
  N   0.01309848143000      0.51023643328855      2.81510879976010
  N   1.88245491731505     -0.60274606970265      0.11498505752729
  H   2.16135869834458      0.08190550346896      0.80899685545127
  H   2.62090343528157     -0.71088796256516     -0.56658859706646
  N   0.60191780371065      1.22133742728310     -0.80369187014523
  H   1.50417063183339      1.50713678891994     -1.16378520267455
  H   -0.09098627419293      1.42963247274802     -1.51363445956840
