16
Coordinates from ORCA-job run
  C   -0.43970669312762     -0.37235521829759      0.67781781429053
  C   0.87661565374178      0.03047823361107     -0.03048117970203
  Cl  -0.30052755169179     -2.09204902109103      1.21730140518295
  H   1.67571493551114     -0.08784445537951      0.71602111645887
  C   -1.66099120799588     -0.22901417661954     -0.21605984967175
  H   -1.52829892790363     -0.83029118470025     -1.11421895233995
  H   -1.77723873275884      0.82088411798102     -0.49072184769274
  H   -2.55512888590396     -0.55429103029328      0.31658421340875
  C   -0.57748002862092      0.44368418041689      1.88379640166992
  N   -0.69616053864268      1.09143134781687      2.85625639553889
  N   0.77591128808274      1.43193048668350     -0.37074254994357
  H   0.45540933130175      1.52702368563974     -1.32665070188520
  H   1.65838175692939      1.91067438947343     -0.26219451283055
  N   1.05598855707272     -0.78633821372006     -1.22189904727528
  H   1.10319155755886     -1.76928554076667     -0.97921838561043
  H   1.93631948644694     -0.53463760075458     -1.65659031959840
