15

C	0.0	0.0	0.0
C	-0.543495	-0.099177	-1.414699
Cl	1.791724	0.0	0.0
H	-1.629901	-0.099949	-1.264313
H	-0.328177	-0.846714	0.600911
H	-0.329463	0.920972	0.478455
C	-0.137526	-1.401874	-2.095336
H	0.942652	-1.450516	-2.264685
H	-0.4302	-2.264456	-1.489815
H	-0.637483	-1.492184	-3.063829
C	-0.165085	1.111847	-2.260241
H	-0.497095	2.037392	-1.781415
H	-0.649038	1.053933	-3.239326
H	0.916181	1.172967	-2.418823
Cl	-3.720338	0.0	0.0
