16

C	0.0	0.0	0.0
C	-0.344779	-0.004874	-1.540166
Cl	1.782116	0.0	0.0
H	0.425914	0.581909	-2.052123
N	-0.560514	1.114374	0.700603
H	-0.481145	1.930094	0.10084
H	-1.572687	0.905863	0.760583
C	-0.405694	-1.235342	0.687727
N	-0.61461	-2.221538	1.290644
N	-1.637652	0.447851	-1.77246
H	-1.938635	0.309254	-2.729153
H	-2.392798	0.15285	-1.038611
N	-0.026327	-1.418359	-2.115585
O	-0.841017	-2.31798	-1.922616
O	1.001601	-1.525035	-2.792173
H	-3.260385	0.0	0.0
