16

C	0.0	0.0	0.0
C	-0.532245	0.068668	-1.452954
Cl	1.792707	0.0	0.0
H	-1.631513	0.089718	-1.296653
N	-0.562723	1.072081	0.738431
H	-1.603073	0.909909	0.605139
H	-0.357708	0.944312	1.725784
C	-0.342971	-1.360057	0.499151
N	-0.517488	-2.452818	0.900868
N	-0.140321	-0.979369	-2.3406
H	0.84988	-1.17879	-2.260007
H	-0.678414	-1.809039	-2.123021
N	-0.130088	1.38005	-2.055024
O	-0.903007	2.327573	-1.937335
O	0.950165	1.415012	-2.648129
H	-2.922632	0.0	0.0
