16

C	-0.597986	-0.027782	-1.399736
C	0.0	0.0	0.0
Cl	0.123296	-1.374459	-2.302527
H	1.089236	0.0	0.0
C	-2.048992	-0.200948	-1.37399
N	-3.19976	-0.418672	-1.276599
N	-0.270414	1.222096	-2.227639
O	0.825563	1.722109	-2.046116
O	-1.1175	1.562137	-3.04824
N	-0.329271	-1.204254	0.695567
H	0.455888	-1.439647	1.288201
H	-1.173075	-1.128405	1.249317
N	-0.498833	1.206841	0.713953
O	-1.077217	2.091064	0.066613
O	-0.292804	1.257256	1.925161
F	2.474672	0.0	0.0
