16

C	-0.472145	-0.011293	-1.478286
C	0.0	0.0	0.0
Cl	-0.141304	-1.599938	-2.184195
H	1.09079	0.0	0.0
C	-1.897159	0.278854	-1.619405
N	-3.05284	0.49899	-1.651785
N	0.298089	1.006434	-2.362012
O	-0.381049	1.861253	-2.925108
O	1.500032	0.844786	-2.441116
N	-0.537444	-1.091195	0.724775
H	-1.37381	-0.821752	1.227357
H	0.160447	-1.40918	1.383741
N	-0.424354	1.329771	0.550036
O	-1.063194	1.364126	1.605555
O	-0.091434	2.323678	-0.097419
F	2.485575	0.0	0.0
