16

C	-0.608886	-0.020069	-1.39848
C	0.0	0.0	0.0
Cl	0.065454	-1.39551	-2.294573
H	1.08923	0.0	0.0
C	-2.063944	-0.15002	-1.353771
N	-3.220979	-0.315233	-1.225882
N	-0.251665	1.211918	-2.241988
O	-1.12411	1.619434	-3.001443
O	0.885303	1.63049	-2.132902
N	-0.344231	-1.201407	0.696562
H	-1.148605	-1.088373	1.298901
H	0.457631	-1.469447	1.252177
N	-0.482167	1.2121	0.715284
O	-0.366449	1.224011	1.939999
O	-0.944387	2.146975	0.050666
F	2.472949	0.0	0.0
