16

C	-0.505244	-0.007076	-1.465335
C	0.0	0.0	0.0
Cl	-0.086634	-1.581489	-2.19518
H	1.09265	0.0	0.0
C	-1.954458	0.163023	-1.546674
N	-3.127962	0.225826	-1.503762
N	0.146895	1.035807	-2.401074
O	1.357766	1.099529	-2.374547
O	-0.614684	1.649159	-3.138671
N	-0.457708	-1.080031	0.783862
H	0.215752	-1.827085	0.787866
H	-1.390103	-1.406318	0.575116
N	-0.437516	1.30481	0.580586
O	-0.605365	1.401678	1.789508
O	-0.537269	2.245309	-0.21952
F	2.477896	0.0	0.0
