16

C	-0.56246	0.043152	-1.410859
C	0.0	0.0	0.0
Cl	-2.330419	0.311764	-1.439495
H	1.109766	0.0	0.0
C	0.072048	0.993458	-2.317724
N	0.519839	1.710851	-3.134282
N	-0.270654	-1.365568	-1.996744
O	0.905381	-1.544022	-2.274739
O	-1.187774	-2.156936	-2.107136
N	-0.415319	-1.173794	0.680452
H	-1.272833	-1.043056	1.199018
H	0.324767	-1.443542	1.31431
N	-0.376969	1.267237	0.689697
O	-0.679222	1.20496	1.883373
O	-0.307756	2.311947	0.042226
F	2.46437	0.0	0.0
