16

C	-0.551574	0.186735	-1.404342
C	0.0	0.0	0.0
Cl	-2.318815	0.458698	-1.411217
H	1.092331	0.0	0.0
C	0.086996	1.226362	-2.202712
N	0.553338	1.989373	-2.965658
N	-0.256916	-1.154177	-2.131254
O	-1.177705	-1.923401	-2.340665
O	0.921497	-1.310475	-2.407684
N	-0.428378	-1.231832	0.555823
H	0.291038	-1.556474	1.188028
H	-1.306386	-1.154469	1.051643
N	-0.383126	1.197814	0.809058
O	-0.27902	2.301727	0.27486
O	-0.724475	1.016717	1.979113
F	2.469866	0.0	0.0
