16

C	-0.44678	0.011987	-1.448688
C	0.0	0.0	0.0
Cl	0.479616	1.112634	-2.467683
H	1.101268	0.0	0.0
C	-0.3183	-1.332923	-2.013269
N	-0.246174	-2.371524	-2.558007
N	-1.967935	0.334294	-1.589685
O	-2.373553	0.812461	-2.635675
O	-2.651722	-8.9e-05	-0.629104
N	-0.370268	-1.198121	0.673989
H	-1.264196	-1.125225	1.139858
H	0.358205	-1.427054	1.336278
N	-0.455025	1.234922	0.689115
O	-0.443469	1.216376	1.919711
O	-0.778387	2.213178	0.010688
F	2.475644	0.0	0.0
