16

C	-0.493865	0.130313	-1.425497
C	0.0	0.0	0.0
Cl	-2.280291	0.233682	-1.505313
H	1.093067	0.0	0.0
C	0.080894	1.217153	-2.212989
N	0.514987	2.018316	-2.955902
N	-0.072963	-1.150782	-2.211303
O	0.840951	-1.809811	-1.749845
O	-0.654704	-1.337129	-3.27211
N	-0.487845	-1.198989	0.598882
H	0.292396	-1.628217	1.079993
H	-1.215347	-0.994772	1.271365
N	-0.394913	1.225229	0.748361
O	-0.270129	2.309168	0.180453
O	-0.777084	1.094313	1.913514
F	2.473337	0.0	0.0
