15

C	-0.619825	-0.002598	-1.390225
C	0.0	0.0	0.0
Br	0.242171	1.236829	-2.587222
H	1.09602	0.0	0.0
H	-1.671246	0.269671	-1.334078
N	-0.601442	-1.350265	-2.047647
O	0.382879	-2.060159	-1.876633
O	-1.58335	-1.638029	-2.728845
N	-0.54764	-1.171637	0.709541
H	-0.284773	-1.048555	1.683366
H	-0.02992	-1.987312	0.394197
N	-0.435341	1.23278	0.627337
H	0.282409	1.557572	1.26108
H	-1.298431	1.070483	1.134338
Br	3.607111	0.0	0.0
