15

C	-0.583399	0.007542	-1.408854
C	0.0	0.0	0.0
Br	0.167185	1.390928	-2.53565
H	1.096368	0.0	0.0
H	-1.66176	0.161777	-1.370592
N	-0.418744	-1.30229	-2.129142
O	-1.295436	-1.586555	-2.943761
O	0.565389	-1.981755	-1.866987
N	-0.590029	-1.176242	0.65015
H	0.048308	-1.952871	0.514041
H	-0.586726	-0.958867	1.639952
N	-0.410844	1.181563	0.736519
H	-1.347789	1.475268	0.481785
H	0.237621	1.935643	0.550036
Br	3.630135	0.0	0.0
