15

C	-0.499726	-0.075811	-1.434875
C	0.0	0.0	0.0
Br	-2.424613	-0.382085	-1.527593
H	1.093928	0.0	0.0
H	-0.022299	-0.897135	-1.962149
N	-0.15052	1.181422	-2.187292
O	-0.966015	2.087816	-2.286148
O	0.999047	1.18625	-2.615206
N	-0.358461	-1.259825	0.646442
H	0.322554	-1.446328	1.370884
H	-1.279349	-1.200304	1.062595
N	-0.421604	1.248543	0.600827
H	-1.378682	1.19977	0.934087
H	0.199421	1.471439	1.369487
Br	3.519799	0.0	0.0
