14

C	-0.550778	0.004906	-1.411972
C	0.0	0.0	0.0
Cl	0.209469	-1.209801	-2.493544
H	1.088092	0.0	0.0
H	-0.34156	0.901317	0.512386
N	-1.977413	-0.251442	-1.414481
H	-2.35375	-0.119952	-2.347226
H	-2.429131	0.396379	-0.778893
C	-0.229304	1.321453	-2.005459
N	-0.10691	2.388456	-2.483535
N	-0.486728	-1.127138	0.782957
O	-1.005411	-0.87541	1.881295
O	-0.272529	-2.264083	0.358806
H	2.609691	0.0	0.0
