14

C	-0.480344	-0.008638	-1.419803
C	0.0	0.0	0.0
Cl	-2.463895	0.057316	-1.378203
H	1.092108	0.0	0.0
H	-0.355461	-0.869897	0.545171
N	0.047844	0.984092	-2.225289
H	-0.353795	1.024643	-3.149529
H	0.074619	1.873155	-1.743606
C	-0.276535	-1.333858	-2.009921
N	-0.10726	-2.395535	-2.484238
N	-0.386858	1.169127	0.745455
O	-0.646643	1.023996	1.948733
O	-0.294684	2.28116	0.18928
H	2.484881	0.0	0.0
