14

C	-0.323598	-0.009525	-1.501515
C	0.0	0.0	0.0
Cl	-0.109174	1.620502	-2.226743
H	1.088878	0.0	0.0
H	-0.368142	-0.94058	0.413321
N	0.588962	-0.914743	-2.168159
H	0.363852	-1.862013	-1.877182
H	1.523429	-0.701907	-1.787157
C	-1.712877	-0.413816	-1.767578
N	-2.81377	-0.785868	-1.941693
N	-0.598554	1.066043	0.80683
O	-1.561052	0.7609	1.528223
O	-0.098447	2.190551	0.749311
H	2.728763	0.0	0.0
