14

C	-0.272001	0.203322	-1.484341
C	0.0	0.0	0.0
Cl	-1.985009	0.842003	-1.80941
H	1.090393	0.0	0.0
H	-0.428574	-0.917313	0.392695
N	0.699633	1.070474	-2.040496
H	0.821019	0.919141	-3.032094
H	1.588054	0.932006	-1.532433
C	-0.287472	-1.131489	-2.116533
N	-0.23535	-2.157669	-2.689332
N	-0.446259	1.095227	0.856054
O	-0.226675	2.24985	0.493592
O	-0.956866	0.783081	1.939205
H	2.637623	0.0	0.0
