14

C	-0.282857	0.196541	-1.483557
C	0.0	0.0	0.0
Cl	-1.993543	0.843171	-1.801103
H	1.090322	0.0	0.0
H	-0.425454	-0.915293	0.400425
N	0.68964	1.052712	-2.056038
H	0.797559	0.893588	-3.048538
H	1.582645	0.914739	-1.556187
C	-0.314355	-1.142263	-2.107151
N	-0.28561	-2.172951	-2.673819
N	-0.436986	1.098781	0.855325
O	-0.910573	0.792145	1.956405
O	-0.239716	2.252081	0.475127
H	2.636646	0.0	0.0
