14

C	-0.506045	0.079117	-1.426192
C	0.0	0.0	0.0
Cl	-0.15104	-1.528428	-2.175467
H	1.088772	0.0	0.0
H	-0.333504	-0.915351	0.483168
N	-1.93876	0.276397	-1.494343
H	-2.119396	1.168768	-1.043609
H	-2.214461	0.354593	-2.468008
C	0.231112	1.06651	-2.241961
N	0.684996	1.890722	-2.946521
N	-0.415024	1.11261	0.801031
O	-0.337825	0.98426	2.033091
O	-0.684118	2.195029	0.230524
H	2.493777	0.0	0.0
