14

C	-0.295889	0.053311	-1.478518
C	0.0	0.0	0.0
Cl	-2.072192	0.42155	-1.791833
H	1.092002	0.0	0.0
H	-0.352923	0.913276	0.471914
N	0.507004	1.141067	-1.963197
H	1.449858	1.012482	-1.562918
H	0.568296	1.111859	-2.973172
C	-0.044938	-1.195055	-2.222381
N	0.187142	-2.071737	-2.970708
N	-0.540792	-1.128332	0.732116
O	-0.916674	-0.916777	1.892112
O	-0.519271	-2.242566	0.199077
H	2.608276	0.0	0.0
