14

C	-0.550856	0.06451	-1.416398
C	0.0	0.0	0.0
Cl	-0.183729	1.750677	-2.020244
H	1.091205	0.0	0.0
H	-0.322849	0.862701	0.579077
N	0.05168	-0.879453	-2.300584
H	0.163135	-1.75127	-1.793481
H	-0.518274	-1.018722	-3.12374
C	-2.029156	-0.008194	-1.410297
N	-3.199292	-0.122955	-1.440696
N	-0.403319	-1.175092	0.72115
O	-0.497893	-2.25952	0.103145
O	-0.462942	-1.090258	1.959223
H	2.495041	0.0	0.0
