14

C	-0.279309	0.03815	-1.496896
C	0.0	0.0	0.0
Cl	-2.016287	0.459571	-1.850292
H	1.09224	0.0	0.0
H	-0.415534	-0.865797	0.509661
N	0.578111	0.92257	-2.24962
H	0.404097	1.850549	-1.876402
H	1.526386	0.688405	-1.925415
C	-0.095676	-1.333803	-1.995939
N	0.04416	-2.433969	-2.382697
N	-0.424041	1.18508	0.716628
O	-0.807978	1.040574	1.883669
O	-0.291671	2.287139	0.166824
H	2.593535	0.0	0.0
