17

C	-0.466895	-0.138771	-1.439815
C	0.0	0.0	0.0
Cl	-2.245065	-0.244137	-1.550136
H	1.094593	0.0	0.0
N	0.005059	1.055185	-2.296665
O	1.219445	1.141219	-2.4018
O	-0.823692	1.767555	-2.84342
C	0.189741	-1.371169	-2.035891
H	0.022924	-1.402782	-3.114414
H	-0.239436	-2.265735	-1.584467
H	1.25436	-1.306043	-1.801
C	-0.432454	-1.148137	0.770118
N	-0.745414	-2.12547	1.343813
N	-0.443377	1.248346	0.657842
O	-0.712988	1.207335	1.85742
O	-0.437178	2.268104	-0.030465
F	2.448873	0.0	0.0
