17

C	-0.43713	-0.112385	-1.452124
C	0.0	0.0	0.0
Cl	-2.196919	-0.350094	-1.604706
H	1.094489	0.0	0.0
N	-0.042649	1.147582	-2.248993
O	1.157594	1.374796	-2.259104
O	-0.904127	1.768768	-2.853589
C	0.331907	-1.262191	-2.081152
H	0.186435	-1.265292	-3.163684
H	1.381675	-1.116718	-1.812537
H	-0.02638	-2.206873	-1.671868
C	-0.4076	-1.183835	0.729994
N	-0.695141	-2.186493	1.272426
N	-0.478703	1.211739	0.69808
O	-0.604033	2.235886	0.028183
O	-0.647659	1.139473	1.913797
F	2.454359	0.0	0.0
