17

C	-0.427714	-0.093855	-1.456255
C	0.0	0.0	0.0
Cl	-2.185628	-0.33856	-1.622625
H	1.094327	0.0	0.0
N	-0.033386	1.179067	-2.234005
O	-0.894285	1.801529	-2.837784
O	1.165434	1.413323	-2.231138
C	0.353119	-1.229791	-2.095225
H	0.218435	-1.218703	-3.178734
H	1.399155	-1.080082	-1.815095
H	-0.002671	-2.182394	-1.701845
C	-0.410217	-1.193582	0.712434
N	-0.70175	-2.202903	1.24006
N	-0.485416	1.200794	0.712661
O	-0.610858	2.23471	0.057398
O	-0.660705	1.109159	1.926229
F	2.456625	0.0	0.0
