17

C	-0.289337	0.037556	-1.507968
C	0.0	0.0	0.0
Cl	-0.013241	-1.595179	-2.148039
H	1.092179	0.0	0.0
N	-1.775808	0.359984	-1.72109
O	-2.593561	-0.522154	-1.49039
O	-2.043938	1.520475	-2.033752
C	0.619851	1.004239	-2.229157
H	1.626258	0.774297	-1.865023
H	0.376134	2.028353	-1.968409
H	0.530051	0.864852	-3.307034
C	-0.585854	-1.124233	0.700274
N	-0.973747	-2.064188	1.291742
N	-0.458129	1.275657	0.636011
O	-1.41671	1.240002	1.408813
O	0.167328	2.290311	0.345612
F	2.488672	0.0	0.0
