14

C	-0.262255	-0.070338	-1.503943
C	0.0	0.0	0.0
Br	-0.17218	1.91471	-2.203293
H	1.101892	0.0	0.0
H	-0.438745	0.891012	0.44448
N	0.714471	-0.890806	-2.060138
H	0.710089	-0.93592	-3.069039
H	1.64291	-0.677136	-1.66256
C	-1.616663	-0.457978	-1.903272
N	-2.704542	-0.762565	-2.227362
N	-0.550334	-1.211985	0.62518
H	0.098888	-1.963956	0.413292
H	-0.500308	-1.078851	1.629273
H	2.944515	0.0	0.0
