14

C	-0.27478	0.023079	-1.495165
C	0.0	0.0	0.0
Br	-2.170936	0.571222	-1.876505
H	1.102276	0.0	0.0
H	-0.336216	0.954616	0.416084
N	0.60299	0.939013	-2.192248
H	0.440053	1.856818	-1.787094
H	1.55343	0.675139	-1.885761
C	-0.133604	-1.319348	-2.07034
N	-0.001892	-2.403875	-2.503296
N	-0.61628	-1.1299	0.683781
H	-0.867671	-0.854763	1.624168
H	0.08975	-1.851681	0.770159
H	2.889058	0.0	0.0
