14

C	-0.261131	-0.064066	-1.505104
C	0.0	0.0	0.0
Br	-0.224111	1.937009	-2.186137
H	1.101861	0.0	0.0
H	-0.441202	0.887384	0.448181
N	0.733116	-0.851661	-2.070446
H	0.725094	-0.897913	-3.079306
H	1.659134	-0.633077	-1.668416
C	-1.605703	-0.475333	-1.913005
N	-2.683194	-0.795236	-2.254527
N	-0.542418	-1.219221	0.618109
H	0.140371	-1.952966	0.451145
H	-0.550813	-1.070983	1.62133
H	2.943474	0.0	0.0
