14

C	-0.196078	0.131386	-1.486504
C	0.0	0.0	0.0
Br	-2.107994	0.698069	-2.000359
H	1.105286	0.0	0.0
H	-0.431965	-0.924564	0.387565
N	0.708281	1.125539	-1.963423
H	1.625718	0.938904	-1.513603
H	0.795513	1.101163	-2.971841
C	-0.075918	-1.174949	-2.150538
N	0.060204	-2.194896	-2.721133
N	-0.485125	1.171754	0.741982
H	0.232184	1.371398	1.435614
H	-0.457107	1.96126	0.101869
H	2.810462	0.0	0.0
