14

C	-0.195581	0.136934	-1.48847
C	0.0	0.0	0.0
Br	-2.095912	0.704279	-2.005306
H	1.105416	0.0	0.0
H	-0.431469	-0.925487	0.385334
N	0.71399	1.134424	-1.954452
H	0.796037	1.123083	-2.963502
H	1.633323	0.93479	-1.513467
C	-0.066511	-1.167773	-2.154501
N	0.076275	-2.19604	-2.708055
N	-0.503033	1.16773	0.735808
H	-0.333122	1.972881	0.139568
H	0.134263	1.287679	1.519687
H	2.826193	0.0	0.0
