14

C	-0.263285	0.229497	-1.48344
C	0.0	0.0	0.0
Br	-2.184655	0.87942	-1.807327
H	1.094381	0.0	0.0
H	-0.402769	-0.969688	0.311502
N	0.653328	1.190675	-1.974032
H	0.761888	1.137222	-2.97689
H	1.55707	1.043484	-1.498868
C	-0.246819	-1.046493	-2.216685
N	-0.182116	-2.058457	-2.815354
N	-0.405397	1.128863	0.815536
H	-1.224299	0.916691	1.366469
H	0.362598	1.359613	1.431501
H	2.825649	0.0	0.0
