11

C	0.0	0.0	0.0
C	-0.519112	-0.171165	-1.420195
Br	1.949979	0.0	0.0
H	-0.057569	-1.057918	-1.866321
H	-0.313461	-0.820376	0.643387
H	-0.326633	0.94289	0.434062
H	-1.593221	-0.344036	-1.319209
N	-0.31862	0.968307	-2.308042
H	0.631099	1.311781	-2.218741
H	-0.948823	1.706773	-2.017508
Cl	-3.642246	0.0	0.0
