17
Coordinates from ORCA-job run
  C   0.75420026687243     -0.10393246092617      0.11383997264871
  C   -0.72491269437308     -0.49650578433070      0.31792170075476
  Br  1.68202397599625     -0.53432153173735      1.85661034335454
  H   -0.72642467899500     -1.54827705877546      0.64717578604217
  C   0.93571535999403      1.37780100695433     -0.13074445910642
  H   0.41003799380021      1.64952753609035     -1.04838209574003
  H   1.99565535942154      1.62248276591165     -0.23105310542593
  H   0.52713983250106      1.94171777190040      0.70598054460706
  N   1.30103135236100     -0.87293326218999     -0.95571494583766
  H   2.24735478244749     -0.58178877444002     -1.16837478569026
  H   1.32016584852091     -1.85918764897442     -0.72062609089710
  N   -1.40201567188567     -0.28009731811274     -0.95766385318331
  H   -0.85055656632100     -0.67981525608177     -1.70796089937288
  H   -2.30974952351421     -0.72990654460296     -0.93706213361576
  N   -1.33861007328790      0.30704845295181      1.35335022305577
  H   -1.88564037286432      1.03490510144560      0.91094911521082
  H   -1.93541519067374     -0.24471699508257      1.95175468319553
