17
Coordinates from ORCA-job run
  C   0.69463319956120      0.13048258681098      0.15446707089278
  C   -0.82833288889014      0.01955136666377      0.31518261812568
  Br  1.42050304539869      0.14267172759431      2.11521024798452
  H   -1.15616125434324      0.84512703708963      0.95967707353872
  C   1.15008732018810      1.45152368492374     -0.42186401185428
  H   0.77495162363195      1.52848162498758     -1.44239726179956
  H   0.76012523998371      2.28177876228441      0.16737598873042
  H   2.24044822985721      1.51285786576433     -0.42083813075906
  N   1.16178153416591     -0.96632315416286     -0.57235378275058
  H   2.16427514932358     -0.97675933929026     -0.69655359299980
  H   0.81201198168768     -1.83778709473448     -0.19354549430980
  N   -1.14364030362952     -1.30309388746057      0.86467525511972
  H   -2.14484735190981     -1.44923197564162      0.81633940657295
  H   -0.86803810098912     -1.34399987942964      1.84016668250028
  N   -1.41785332644261      0.22415508740073     -0.99057381167371
  H   -2.42416186601600      0.30966902300567     -0.91600511399197
  H   -1.19478223157760     -0.57110343580572     -1.57796314332631
