17
Coordinates from ORCA-job run
  C   0.69996898711120      0.03281971311135     -0.07864599438154
  C   -0.82678537677267     -0.04312555540613     -0.18668989059394
  Br  1.17572062231111     -1.17338649793479      1.58913687097169
  H   -1.06461658857383      0.60426209008407     -1.03960399005409
  C   1.22897700896655      1.40006655589220      0.28744610005183
  H   0.94807482727129      2.09340672984187     -0.51128943622731
  H   2.31797483909477      1.37813755189492      0.36670108171979
  H   0.80411810533288      1.74563913511397      1.22542711668880
  N   1.27197124174347     -0.46776462849207     -1.24386844787150
  H   0.84617348540401     -1.34286957696109     -1.52192073362957
  H   2.28050096400005     -0.51363369329466     -1.21740088368053
  N   -1.45565801623157      0.54420901060797      0.98025297656674
  H   -2.45490713258876      0.61396789538674      0.83210246284007
  H   -1.29136818223901     -0.04142558996000      1.79145111963009
  N   -1.19814616538181     -1.39960072255566     -0.58176799196073
  H   -2.15483998298176     -1.41528404341569     -0.91299652713543
  H   -1.12715863646591     -2.01341837391301      0.22266616706562
