19

C	-0.39202	-0.03927	-1.497912
C	0.0	0.0	0.0
Cl	-0.177273	1.632696	-2.159909
H	1.092098	0.0	0.0
N	0.527023	-0.886002	-2.226244
H	0.347965	-1.853345	-1.979441
H	1.483142	-0.665811	-1.941548
C	-1.820523	-0.460396	-1.786179
H	-2.523596	0.185212	-1.262247
H	-1.99028	-0.40297	-2.861773
H	-1.98051	-1.493262	-1.462981
C	-0.464657	-1.226005	0.771249
H	-0.087573	-2.129173	0.287702
H	-1.550592	-1.274446	0.854745
H	-0.028842	-1.195269	1.772547
N	-0.533619	1.202952	0.696024
O	0.254872	2.05487	1.090023
O	-1.76107	1.262934	0.839703
Cl	3.385368	0.0	0.0
