19

C	-0.451348	-0.032883	-1.462416
C	0.0	0.0	0.0
Cl	-2.368758	0.205174	-1.430951
H	1.094134	0.0	0.0
N	0.169371	0.936101	-2.249499
H	0.238291	1.837907	-1.802663
H	-0.210451	0.986917	-3.183139
C	-0.247714	-1.4034	-2.079248
H	-0.499703	-1.357901	-3.141512
H	0.810689	-1.657416	-1.97459
H	-0.871571	-2.162263	-1.61143
C	-0.458635	-1.178444	0.833105
H	-1.542412	-1.300422	0.823783
H	0.026468	-2.079623	0.457863
H	-0.127997	-1.036967	1.860856
N	-0.424263	1.284991	0.650877
O	-0.07363	2.338649	0.115841
O	-1.083673	1.234729	1.687786
Cl	3.31722	0.0	0.0
