19

C	-0.402593	-0.009102	-1.482798
C	0.0	0.0	0.0
Cl	-0.118624	1.713933	-2.139465
H	1.092102	0.0	0.0
N	0.460514	-0.952686	-2.096541
H	0.337777	-0.957041	-3.100542
H	1.435239	-0.759739	-1.866763
C	-1.856536	-0.312959	-1.785973
H	-2.509724	0.408951	-1.302044
H	-2.097551	-1.31696	-1.43467
H	-2.021809	-0.271272	-2.865567
C	-0.466108	-1.242528	0.742961
H	-1.550009	-1.276976	0.846045
H	-0.111231	-2.119583	0.204369
H	-0.010783	-1.246734	1.736111
N	-0.520879	1.19944	0.70914
O	0.272828	2.048049	1.097155
O	-1.744636	1.252984	0.88204
Cl	3.381373	0.0	0.0
