19

C	-0.387753	-0.066725	-1.49866
C	0.0	0.0	0.0
Cl	-0.189477	1.596937	-2.187271
H	1.092098	0.0	0.0
N	0.542271	-0.914032	-2.210714
H	0.373302	-1.879305	-1.950026
H	1.495167	-0.680109	-1.925985
C	-1.810248	-0.508184	-1.785177
H	-1.976037	-0.471979	-2.862309
H	-2.522804	0.138765	-1.275829
H	-1.960545	-1.536902	-1.443896
C	-0.462855	-1.214529	0.79021
H	-1.548888	-1.266335	0.870531
H	-0.030829	-1.165319	1.792447
H	-0.07988	-2.123869	0.323106
N	-0.538389	1.212571	0.674512
O	-1.766923	1.273775	0.808041
O	0.246994	2.070331	1.062005
Cl	3.386646	0.0	0.0
