19

C	-0.395785	-0.102212	-1.48303
C	0.0	0.0	0.0
Cl	-0.104091	1.577897	-2.24728
H	1.089426	0.0	0.0
N	0.469508	-1.082207	-2.031375
H	0.361226	-1.146273	-3.035568
H	1.442778	-0.88183	-1.798547
C	-1.848644	-0.420716	-1.779698
H	-2.094203	-1.404658	-1.375151
H	-2.00446	-0.438602	-2.861376
H	-2.503243	0.32976	-1.341062
C	-0.48658	-1.182242	0.822772
H	-0.03972	-1.124761	1.818209
H	-1.572926	-1.192567	0.918835
H	-0.141807	-2.100635	0.347845
N	-0.5144	1.249565	0.62609
O	-1.741371	1.346856	0.746275
O	0.2906	2.092389	1.004844
Cl	3.385228	0.0	0.0
