19

C	-0.387063	-0.042264	-1.499764
C	0.0	0.0	0.0
Cl	-0.183287	1.631755	-2.162922
H	1.092096	0.0	0.0
N	0.539543	-0.880317	-2.22688
H	1.49299	-0.652078	-1.942086
H	0.368139	-1.849161	-1.980728
C	-1.809918	-0.472301	-1.790932
H	-1.974806	-0.418664	-2.867771
H	-1.965607	-1.503951	-1.463592
H	-2.518251	0.170268	-1.272316
C	-0.466549	-1.225435	0.771128
H	-0.03934	-1.190365	1.775942
H	-1.5527	-1.27802	0.846479
H	-0.081741	-2.128156	0.292524
N	-0.538114	1.20324	0.690804
O	0.246852	2.056066	1.089819
O	-1.766668	1.262967	0.824394
Cl	3.389279	0.0	0.0
