11
Coordinates from ORCA-job run
  C   -0.47391600167394     -0.60190316655421      0.15450093246523
  C   0.92157537871058     -0.09996132951970      0.48060883834229
  Br  -1.31721352118484     -1.34665275121567      1.71999845115637
  H   1.51182102399084     -0.92625874772893      0.88388091595239
  H   -0.48985496409027     -1.35891317271430     -0.62684396141764
  H   0.85855962369866      0.68385860843619      1.23697857732996
  N   -1.33341224357076      0.53117248833928     -0.35154298639904
  O   -2.13685242928065      0.24345601838383     -1.23148170971209
  O   -1.16825561601289      1.62927299217894      0.16693333220977
  C   1.56545394213185      0.42226441442043     -0.72424493361721
  N   2.06209480728141      0.82366464597414     -1.70878745631003
