11
Coordinates from ORCA-job run
  C   -0.47202417820888     -0.50030535499237      0.37642504413951
  C   0.98376311592377     -0.06921338720125      0.33949074332907
  Br  -1.06311120887551     -0.76031373607426      2.19251803774639
  H   1.09550813918944      0.87630373939084      0.87251679682027
  H   -0.66561084535557     -1.41820395952608     -0.17463339006881
  H   1.59280920433692     -0.82534914751352      0.84044295474159
  N   -1.34232033218698      0.55507606939672     -0.26102241333434
  O   -1.05628647897297      1.72402181670618     -0.03050052336743
  O   -2.27023182557801      0.14338134936530     -0.94815883411776
  C   1.43084078280134      0.08446935438648     -1.04449084067178
  N   1.76766362692646      0.19013325606198     -2.16358757521671
