11
Coordinates from ORCA-job run
  C   -0.46227108562261     -0.41644771636012      0.05865005773491
  C   0.82754544461217      0.37729672497271     -0.07946112803125
  Br  -0.67834784889660     -1.14336447023013      1.82904839511684
  H   0.86501266957581      1.15312796772740      0.68695103224893
  H   -0.53774022092939     -1.24013765420100     -0.64846469960135
  H   0.83492674954357      0.87379960191628     -1.05589869009233
  N   -1.63447050065670      0.48539264975640     -0.23145056765711
  O   -2.57149128978227     -0.02522502784158     -0.83519511341876
  O   -1.55751871134629      1.64423035370385      0.16122045645480
  C   1.99036145217180     -0.49888302290363      0.02291830815668
  N   2.92199334133051     -1.20878940654016      0.09068194908865
