11
Coordinates from ORCA-job run
  C   -0.48657344309679     -0.61134729109200     -0.05185544360851
  C   0.96639896701145     -0.29526304583122      0.25613359739144
  Br  -1.16257737316653     -1.96165844837976      1.14663613070075
  H   1.55586779064193     -1.21171032473119      0.17679120875699
  H   -0.64813068728864     -0.95647309851446     -1.07087731087353
  H   1.04704238548588      0.08337080625049      1.27626056144232
  N   -1.33277453175049      0.62848930186119      0.10389535424794
  O   -1.06024785653793      1.37310841687841      1.03811979883261
  O   -2.23005543674136      0.77343514312864     -0.71861653067437
  C   1.47819944429882      0.69972650517821     -0.68586331425253
  N   1.87185074114369      1.47932203525164     -1.46962405196313
