11
Coordinates from ORCA-job run
  C   -0.54202041632410     -0.55497939258567      0.33608213498363
  C   0.86697227535466     -0.50972194221339     -0.24576168760240
  Br  -0.55198706863738     -0.43022615368028      2.24512362078404
  H   1.45063774437543     -1.33397960359753      0.17069167270582
  H   -1.04269079558056     -1.47838877183714      0.04869433467056
  H   0.79619570508124     -0.65011845127577     -1.32798541071993
  N   -1.35100267994243      0.55238569518950     -0.32142879459807
  O   -1.68290610713810      1.53509012097298      0.32018545636016
  O   -1.56228149111534      0.33810590493101     -1.51241347917314
  C   1.53955423546235      0.75603492263344      0.03693719499073
  N   2.08152859846425      1.77479767146286      0.24887495759861
