11
Coordinates from ORCA-job run
  C   -0.52352414368197     -0.57191201941173      0.18278953602130
  C   0.93683966541670     -0.40017347824634     -0.19661479851291
  Br  -0.80052730683627     -0.49980898564468      2.08642969015784
  H   1.48135469604869     -1.27412812742509      0.17214762430795
  H   -0.91012745580607     -1.53227108638731     -0.15877292933026
  H   1.02098474036347     -0.38505510566775     -1.28682838286576
  N   -1.40443471629054      0.46473964979327     -0.48450989524336
  O   -0.84475239165329      1.39305523681015     -1.05923678695240
  O   -2.60946882961565      0.26502021965222     -0.41401902341387
  C   1.55641139517422      0.80341660642506      0.35202894743348
  N   2.09724434688072      1.73911709010217      0.80758601839801
