15

C	-0.433819	-0.032287	-1.439599
C	0.0	0.0	0.0
F	-1.762996	-0.365488	-1.604792
H	1.099949	0.0	0.0
H	-0.248834	0.91028	-1.951072
N	0.331265	-1.057065	-2.244442
O	0.952848	-0.634585	-3.217552
O	0.241209	-2.230808	-1.901338
C	-0.410212	-1.216958	0.834379
H	-0.186759	-1.00644	1.882024
H	-1.471822	-1.454831	0.736186
H	0.186791	-2.075459	0.530496
C	-0.51799	1.223664	0.58251
N	-0.946713	2.205492	1.070246
H	2.648868	0.0	0.0
