15

C	-0.512177	-0.028851	-1.42696
C	0.0	0.0	0.0
F	-0.247509	-1.225745	-2.013409
H	1.09596	0.0	0.0
H	-1.58593	0.168996	-1.518107
N	0.140925	1.051207	-2.268806
O	0.877634	0.720314	-3.183805
O	-0.176211	2.195201	-1.960093
C	-0.394427	-1.284748	0.732883
H	0.099908	-2.129956	0.252725
H	-1.476966	-1.452608	0.753732
H	-0.023902	-1.223422	1.757879
C	-0.509	1.157841	0.714002
N	-0.911184	2.050173	1.366846
H	2.687773	0.0	0.0
