17

C	-0.391508	0.00059	-1.476738
C	0.0	0.0	0.0
Cl	-2.215668	0.124814	-1.648707
H	1.091475	0.0	0.0
C	0.247088	1.208748	-2.145806
H	0.053627	1.199276	-3.219453
H	-0.157354	2.124253	-1.714243
H	1.323528	1.154462	-1.941633
C	0.003366	-1.199945	-2.215318
N	0.294897	-2.071764	-2.948126
N	-0.497246	-1.253068	0.645247
O	-1.329115	-1.17987	1.549869
O	-0.011975	-2.304383	0.219046
N	-0.387739	1.139811	0.740537
H	0.375805	1.801609	0.773827
H	-1.265039	1.557678	0.469209
H	2.628549	0.0	0.0
