17

C	-0.437033	0.006745	-1.476096
C	0.0	0.0	0.0
Cl	0.108852	1.601172	-2.15316
H	1.092839	0.0	0.0
C	0.267398	-1.073238	-2.289807
H	-0.112994	-2.053536	-2.012127
H	1.333351	-1.005943	-2.054158
H	0.106112	-0.904577	-3.356267
C	-1.893873	-0.002521	-1.63749
N	-3.061487	0.052775	-1.765604
N	-0.437547	-1.264702	0.661099
O	-0.049702	-1.430825	1.813378
O	-1.122526	-2.085488	0.029235
N	-0.414312	1.098422	0.810584
H	0.380006	1.71562	0.940233
H	-1.194871	1.607958	0.420473
H	2.637396	0.0	0.0
