17

C	-0.449262	0.0187	-1.450045
C	0.0	0.0	0.0
Cl	-2.278038	0.083088	-1.534835
H	1.092819	0.0	0.0
C	0.117855	1.268828	-2.108185
H	1.205304	1.234052	-1.979476
H	-0.273176	2.144069	-1.594059
H	-0.141274	1.292466	-3.167925
C	-0.041773	-1.139534	-2.249634
N	0.242392	-1.95337	-3.048777
N	-0.41604	-1.238347	0.695111
O	-0.259337	-2.30778	0.09941
O	-0.802047	-1.147142	1.868277
N	-0.378178	1.187685	0.691798
H	0.36554	1.399573	1.35021
H	-1.233637	1.04172	1.212086
H	2.550261	0.0	0.0
