17

C	-0.561919	-0.008672	-1.434285
C	0.0	0.0	0.0
Cl	0.009479	-1.392283	-2.433314
H	1.090347	0.0	0.0
C	-2.087615	-0.004658	-1.446317
H	-2.458255	0.057715	-2.471231
H	-2.461975	-0.92299	-0.989683
H	-2.441359	0.859954	-0.881685
C	-0.077027	1.204704	-2.104336
N	0.222423	2.160188	-2.718915
N	-0.474976	-1.187724	0.744442
O	-0.057754	-2.289205	0.37933
O	-1.228751	-1.022749	1.720415
N	-0.400716	1.231222	0.622718
H	-1.136396	1.054417	1.29541
H	0.416288	1.587268	1.112759
H	2.584281	0.0	0.0
