17

C	-0.4487	0.009254	-1.450222
C	0.0	0.0	0.0
Cl	-2.277571	0.071387	-1.536332
H	1.092829	0.0	0.0
C	0.117347	1.255716	-2.115851
H	1.20483	1.222597	-1.986958
H	-0.141867	1.272333	-3.175846
H	-0.27408	2.134047	-1.607485
C	-0.039732	-1.153496	-2.242116
N	0.250122	-1.971829	-3.034444
N	-0.416318	-1.233762	0.703042
O	-0.800476	-1.134607	1.875943
O	-0.260336	-2.307416	0.114163
N	-0.378821	1.19245	0.68324
H	0.363387	1.406903	1.343426
H	-1.236124	1.050216	1.201971
H	2.549954	0.0	0.0
