17

C	-0.450877	-0.033341	-1.446264
C	0.0	0.0	0.0
Cl	-2.281791	0.00893	-1.538364
H	1.107895	0.0	0.0
C	0.099512	1.199812	-2.149802
H	-0.299388	2.088191	-1.665661
H	1.187883	1.183054	-2.02604
H	-0.163475	1.182371	-3.208741
C	-0.024563	-1.212308	-2.204528
N	0.312942	-2.047412	-2.959821
N	-0.409493	-1.19919	0.747316
O	-0.371027	-2.287915	0.164982
O	-0.6642	-1.068226	1.953408
N	-0.355809	1.219494	0.649572
H	0.403488	1.449128	1.28469
H	-1.199581	1.100905	1.195618
H	2.511312	0.0	0.0
