17

C	-0.524463	-0.179415	-1.426442
C	0.0	0.0	0.0
Cl	0.347846	-1.480317	-2.333697
H	1.109097	0.0	0.0
C	-2.022483	-0.456779	-1.49119
H	-2.547252	0.34746	-0.968791
H	-2.358625	-0.490253	-2.529849
H	-2.225423	-1.413641	-1.012774
C	-0.239841	1.056655	-2.167712
N	-0.076298	2.003509	-2.844348
N	-0.402056	-1.045291	0.892395
O	-0.539936	-2.203056	0.446395
O	-0.443077	-0.776341	2.115048
N	-0.335974	1.314041	0.491602
H	-0.921158	1.208804	1.312549
H	0.540907	1.730473	0.810718
H	2.38512	0.0	0.0
