17

C	-0.468942	0.098708	-1.435177
C	0.0	0.0	0.0
Cl	-2.299991	0.1842	-1.503441
H	1.109284	0.0	0.0
C	0.093839	1.38063	-2.035601
H	-0.287588	2.226994	-1.468022
H	-0.182217	1.462391	-3.088588
H	1.182614	1.340072	-1.928
C	-0.073484	-1.020426	-2.294711
N	0.23437	-1.804277	-3.11483
N	-0.424107	-1.24	0.656593
O	-0.542583	-1.218268	1.890238
O	-0.553154	-2.260686	-0.029556
N	-0.315634	1.172121	0.75708
H	-1.102397	0.99967	1.367195
H	0.495801	1.368908	1.337729
H	2.494516	0.0	0.0
