15

C	-0.4983	0.107093	-1.446576
C	0.0	0.0	0.0
Br	-0.314791	-1.608121	-2.378234
H	1.095117	0.0	0.0
H	-1.57326	0.308563	-1.444171
C	0.274453	1.176946	-2.19403
H	1.33837	0.931893	-2.188059
H	0.134589	2.126355	-1.674829
H	-0.079296	1.268807	-3.223043
C	-0.507351	-1.189442	0.694048
N	-0.969845	-2.069557	1.321363
N	-0.399409	1.233102	0.696325
H	0.353997	1.497943	1.320788
H	-1.234006	1.080009	1.248949
Br	3.496917	0.0	0.0
