15

C	-0.441837	0.099256	-1.470633
C	0.0	0.0	0.0
Br	-0.128266	-1.592345	-2.410347
H	1.096049	0.0	0.0
H	-1.527708	0.239613	-1.520632
C	0.308455	1.207457	-2.18917
H	0.030939	1.245096	-3.244289
H	0.067418	2.173619	-1.735236
H	1.384058	1.037123	-2.095015
C	-0.550592	-1.190231	0.657036
N	-1.047924	-2.111737	1.188727
N	-0.391789	1.184455	0.767151
H	0.350777	1.868583	0.709919
H	-1.253676	1.587456	0.420784
Br	3.498588	0.0	0.0
