15

C	-0.350865	0.016646	-1.477717
C	0.0	0.0	0.0
Br	-2.311286	0.084649	-1.734985
H	1.097634	0.0	0.0
H	0.001068	0.974284	-1.862605
C	0.243079	-1.151747	-2.234272
H	1.32299	-1.146439	-2.055648
H	-0.170222	-2.098923	-1.881916
H	0.050381	-1.062772	-3.304541
C	-0.462424	-1.242428	0.640925
N	-0.821731	-2.229625	1.168558
N	-0.43974	1.212675	0.674505
H	-1.413387	1.132483	0.948128
H	0.124438	1.339555	1.507819
Br	3.481366	0.0	0.0
