15

C	-0.527553	0.005498	-1.439148
C	0.0	0.0	0.0
Br	0.232308	1.516229	-2.410979
H	1.093674	0.0	0.0
H	-0.138846	-0.877388	-1.951114
C	-2.04109	0.076784	-1.520918
H	-2.37596	0.05955	-2.559421
H	-2.485394	-0.775969	-0.998686
H	-2.391142	1.002526	-1.062156
C	-0.44102	-1.261958	0.623479
N	-0.8612	-2.23196	1.138722
N	-0.447957	1.167418	0.75324
H	0.291338	1.437581	1.391591
H	-1.282725	0.964918	1.28951
Br	3.507223	0.0	0.0
