15

C	-0.340165	0.012636	-1.483795
C	0.0	0.0	0.0
Br	-2.281203	0.049554	-1.799768
H	1.104501	0.0	0.0
H	0.021592	0.960618	-1.890496
C	0.295218	-1.153011	-2.215422
H	0.12952	-1.071888	-3.291431
H	1.370202	-1.14036	-2.007294
H	-0.123657	-2.100369	-1.86918
C	-0.488084	-1.216607	0.646311
N	-0.875535	-2.194753	1.168014
N	-0.527148	1.18218	0.699107
H	0.024411	1.969485	0.366651
H	-0.281563	1.084112	1.680216
Br	3.489481	0.0	0.0
