15

C	-0.45572	0.083598	-1.466817
C	0.0	0.0	0.0
Br	-0.083993	-1.595857	-2.406012
H	1.096098	0.0	0.0
H	-1.546503	0.182214	-1.507912
C	0.242092	1.22122	-2.192979
H	-0.046199	2.177257	-1.747214
H	-0.03676	1.238559	-3.248116
H	1.324186	1.101507	-2.099769
C	-0.539038	-1.19317	0.66316
N	-1.031561	-2.115047	1.198715
N	-0.398497	1.179748	0.768289
H	-1.292797	1.543845	0.459992
H	0.313704	1.89116	0.667963
Br	3.495687	0.0	0.0
