15

C	-0.292809	-0.025746	-1.500888
C	0.0	0.0	0.0
Br	-2.234732	0.133449	-1.856881
H	1.098876	0.0	0.0
H	0.130656	0.888091	-1.923831
C	0.269742	-1.252694	-2.185546
H	-0.21353	-2.16	-1.81774
H	0.135471	-1.195073	-3.267361
H	1.339119	-1.297231	-1.953043
C	-0.504317	-1.213732	0.650258
N	-0.906037	-2.189199	1.166541
N	-0.431201	1.182037	0.727087
H	-1.320776	1.512313	0.371718
H	0.270937	1.901207	0.607555
Br	3.457737	0.0	0.0
