13

C	-0.454916	-0.075654	-1.452611
C	0.0	0.0	0.0
F	-1.789795	-0.309574	-1.553128
H	1.095713	0.0	0.0
H	0.103477	-0.84409	-1.985687
N	-0.169951	1.225026	-2.162233
O	-1.032504	2.094541	-2.082336
O	0.900121	1.29129	-2.757706
C	-0.437628	-1.22479	0.672021
N	-0.782022	-2.218267	1.194354
C	-0.522533	1.170357	0.700901
N	-0.947795	2.103507	1.273249
Cl	3.124006	0.0	0.0
