13

C	-0.459452	-0.128219	-1.447027
C	0.0	0.0	0.0
F	-1.798573	-0.353782	-1.533221
H	1.095651	0.0	0.0
H	0.089506	-0.923131	-1.951494
N	-0.165799	1.141108	-2.209453
O	0.890972	1.164583	-2.829684
O	-1.010847	2.028716	-2.145112
C	-0.437196	-1.199678	0.716396
N	-0.780371	-2.175353	1.272099
C	-0.520288	1.195064	0.659746
N	-0.944161	2.147087	1.200934
Cl	3.123081	0.0	0.0
