13

C	-0.483053	0.020065	-1.454122
C	0.0	0.0	0.0
F	-0.164198	1.198935	-2.025916
H	1.096784	0.0	0.0
H	-1.557066	-0.152873	-1.550928
N	0.17393	-1.094012	-2.241682
O	-0.160948	-2.221253	-1.887486
O	0.913044	-0.79068	-3.165457
C	-0.496319	-1.159874	0.736662
N	-0.889029	-2.076079	1.3581
C	-0.477908	1.221571	0.648932
N	-0.887245	2.200029	1.152466
Cl	3.122477	0.0	0.0
