13

C	-0.344665	0.073074	-1.485122
C	0.0	0.0	0.0
F	0.002715	-1.080715	-2.089199
H	1.09774	0.0	0.0
H	0.151828	0.920771	-1.956481
N	-1.828747	0.275235	-1.691118
O	-2.200189	1.44643	-1.735634
O	-2.535642	-0.723444	-1.762655
C	-0.51767	-1.218945	0.613845
N	-0.929666	-2.195218	1.119742
C	-0.460047	1.185377	0.717466
N	-0.819894	2.134859	1.30753
Cl	3.114966	0.0	0.0
