13

C	-0.340551	0.049455	-1.487079
C	0.0	0.0	0.0
F	0.005914	-1.115891	-2.070445
H	1.097577	0.0	0.0
H	0.161697	0.887188	-1.970383
N	-1.822892	0.253551	-1.703557
O	-2.188268	1.424405	-1.782279
O	-2.534346	-0.743178	-1.751349
C	-0.518656	-1.208605	0.632972
N	-0.929614	-2.173824	1.160421
C	-0.461525	1.197444	0.696014
N	-0.822854	2.15992	1.263778
Cl	3.114414	0.0	0.0
