15

C	0.0	0.0	0.0
C	-0.290476	0.114664	-1.59234
Cl	1.762058	0.0	0.0
H	0.561078	-0.408361	-2.034829
C	-0.505707	1.066703	0.843522
N	-0.657642	2.002257	1.540434
N	-0.422949	-1.353085	0.529569
O	-0.388953	-2.275603	-0.277583
O	-0.639782	-1.44835	1.725768
C	-0.106213	1.541639	-1.911609
N	0.061596	2.663551	-2.216144
N	-1.475831	-0.384972	-2.219402
H	-2.219341	-0.157646	-1.524123
H	-1.393731	-1.394612	-2.204821
F	-2.414646	0.0	0.0
