15

C	0.0	0.0	0.0
C	-0.28956	0.197414	-1.584818
Cl	1.762171	0.0	0.0
H	0.561112	-0.302478	-2.054374
C	-0.511242	1.022047	0.894745
N	-0.649248	1.924427	1.637168
N	-0.424021	-1.378131	0.457833
O	-0.388316	-2.258228	-0.395923
O	-0.64393	-1.535453	1.647147
C	-0.10409	1.639486	-1.82779
N	0.057348	2.775341	-2.077848
N	-1.476932	-0.263744	-2.234945
H	-2.218801	-0.07947	-1.524756
H	-1.395478	-1.271682	-2.289141
F	-2.418548	0.0	0.0
