15

C	0.0	0.0	0.0
C	-0.289038	-0.010337	-1.596472
Cl	1.763373	0.0	0.0
H	0.561654	-0.567611	-1.996282
C	-0.509442	1.129248	0.756428
N	-0.645876	2.116442	1.381782
N	-0.422346	-1.307705	0.633796
O	-0.390346	-2.290619	-0.099047
O	-0.636316	-1.309729	1.834243
C	-0.09934	1.387544	-2.025251
N	0.074348	2.488274	-2.397084
N	-1.4757	-0.552951	-2.182578
H	-2.217072	-0.28609	-1.49826
H	-1.388134	-1.559231	-2.117056
F	-2.415382	0.0	0.0
