15

C	0.0	0.0	0.0
C	-0.273852	0.105375	-1.596093
Cl	1.76212	0.0	0.0
H	0.544757	-0.48186	-2.018729
C	-0.508203	1.078987	0.82637
N	-0.66817	2.023738	1.508755
N	-0.438081	-1.345216	0.531194
O	-0.409689	-2.270601	-0.273445
O	-0.664918	-1.433427	1.726731
C	0.013111	1.511354	-1.938798
N	0.264097	2.611375	-2.265188
N	-1.487447	-0.318554	-2.219002
H	-1.457379	-1.331053	-2.231136
H	-2.216006	-0.078655	-1.507668
F	-2.437268	0.0	0.0
