15

C	0.0	0.0	0.0
C	-0.389636	0.363898	-1.46948
Cl	1.753766	0.0	0.0
H	0.398321	1.062823	-1.77628
C	-0.434752	1.071414	0.895649
N	-0.546883	2.020096	1.582091
N	-0.463909	-1.327064	0.589868
O	-0.629886	-2.279944	-0.152869
O	-0.497263	-1.356148	1.811831
C	-1.65274	1.115425	-1.633705
N	-2.385813	1.838787	-2.213309
N	-0.283118	-0.782356	-2.36211
H	-1.039261	-1.415286	-2.128964
H	-0.450965	-0.432109	-3.299162
F	-2.320369	0.0	0.0
