15

C	0.0	0.0	0.0
C	-0.302376	-0.018096	-1.592933
Cl	1.763496	0.0	0.0
H	0.566831	-0.535752	-2.004796
C	-0.504094	1.1308	0.756796
N	-0.660186	2.109007	1.390953
N	-0.41652	-1.304747	0.645573
O	-0.367102	-2.295601	-0.075517
O	-0.644734	-1.296554	1.842957
C	-0.178286	1.386568	-2.020043
N	-0.051858	2.493118	-2.392457
N	-1.469641	-0.611696	-2.167181
H	-2.217252	-0.357002	-1.4863
H	-1.344897	-1.612892	-2.092937
F	-2.412377	0.0	0.0
