15

C	0.0	0.0	0.0
C	-0.389924	-0.205957	-1.494978
Cl	1.760675	0.0	0.0
H	0.003678	0.701194	-1.971351
C	-0.468391	1.280587	0.515768
N	-0.613691	2.385572	0.889003
N	-0.454159	-1.121781	0.915643
O	-0.612418	-2.222894	0.408288
O	-0.517427	-0.857909	2.106055
C	-1.839915	-0.262528	-1.810958
N	-2.620994	-0.387476	-2.695618
N	0.333742	-1.327368	-2.103123
H	-0.108741	-2.175549	-1.770605
H	0.129275	-1.269601	-3.093804
F	-2.377568	0.0	0.0
