15
Coordinates from ORCA-job run
  C   0.46830180921226      0.49208479418384      0.77749963239508
  C   -0.83614456767073      0.08835674909647      0.07916212144564
  Br  0.46101547554488      2.42005908352314      1.09507558777504
  H   -1.66212064467585      0.61347529214932      0.57739394933457
  H   0.48262129430238      0.05589446391175      1.78019661836769
  C   1.71101984761262      0.09874990862103      0.00494917186099
  H   1.75559199926431      0.64471750264725     -0.93791328574253
  H   1.68021720012390     -0.97489686094317     -0.19591889852549
  H   2.61143206196201      0.32667467913521      0.57693250341702
  N   -0.93635518917495     -1.37317356885999      0.18535054379522
  H   -1.01082890844684     -1.65457573867156      1.15771667510805
  H   -1.78261648166537     -1.67864416429184     -0.28257319523524
  N   -0.83003853699088      0.51242305873993     -1.30141308580317
  H   -1.77179318781304      0.60480386130839     -1.65729094839690
  H   -0.33930217158470     -0.17494906054978     -1.86116738979595
