15
Coordinates from ORCA-job run
  C   0.48938531782037      0.58316237268931      0.49400412918655
  C   -0.55366224813772     -0.07472815588577     -0.41085934785590
  Br  0.61929675649545      2.49825564892294      0.05790075875993
  H   -0.20167861273918      0.03376694086870     -1.44870202809352
  H   0.11893232335995      0.56059469243157      1.52228269073184
  C   1.86652295247016     -0.03736105794994      0.37658133450178
  H   1.80450756074577     -1.09061882605950      0.64894283594720
  H   2.57653953562355      0.46966889172483      1.03138563345041
  H   2.23272494865581      0.03561009220943     -0.65009978404057
  N   -1.86703310192168      0.51551967380422     -0.17010646597731
  H   -2.52952672289369      0.13351389877580     -0.83560797183340
  H   -1.83829650527747      1.51890464945286     -0.30912434494633
  N   -0.57207798056451     -1.49706497064444     -0.10788084552811
  H   -0.95865523663861     -2.01570848195617     -0.88664981919799
  H   -1.18597898699821     -1.63251536838385      0.68893322489543
