15
Coordinates from ORCA-job run
  C   0.64401643192898      0.10003161616507      0.68794222197237
  C   -0.74097963340723     -0.02115739230266      0.04796326750926
  Br  0.48867211056256      1.11023007424119      2.35377337373460
  H   -1.19113269394429      0.98208183261857      0.01926464526418
  H   0.97360907129886     -0.89918515346316      0.98369493771950
  C   1.68108961476912      0.76365441746062     -0.20000566128285
  H   2.62103576503176      0.89613765658710      0.33615734667027
  H   1.87353583282033      0.13622973392866     -1.07294012422094
  H   1.33929741823503      1.74992533973514     -0.52627016785848
  N   -1.58751371643996     -0.84993056457150      0.87299850948325
  H   -1.33057946918500     -1.82168471455332      0.73797222675618
  H   -2.56168279709571     -0.73664731373620      0.62432779957185
  N   -0.56254124119122     -0.61198311300809     -1.28709483981067
  H   -0.16820936996077      0.06598258698700     -1.93032335682321
  H   -1.47661732342247     -0.86368500608841     -1.64646017868530
