15
Coordinates from ORCA-job run
  C   0.58663205928505      0.14783345786260      0.73947653495410
  C   -0.52646560982316     -0.51404244201859     -0.06853987041835
  Br  -0.06450334471122      1.74516330864968      1.66699191144156
  H   -0.07927630301860     -1.46092567198379     -0.42062123863294
  H   0.85004472218317     -0.54346120032788      1.54139470015926
  C   1.80209416959467      0.51720312666309     -0.09125872979192
  H   2.61909199980411      0.85638108806370      0.54663532224076
  H   1.56978133654548      1.32249353020662     -0.79003963892912
  H   2.14671672597506     -0.35815256922911     -0.65297761685566
  N   -0.95428856894239      0.34984554298650     -1.16630353346873
  H   -0.21405077117375      0.46347335332226     -1.84985486191623
  H   -1.73643659954962     -0.08541969240472     -1.64116744364801
  N   -1.61795788315116     -0.88535374473448      0.80165885104005
  H   -2.25568568223219     -1.50708313444214      0.31925135372617
  H   -2.12669625078544     -0.04795495261374      1.06335426009908
