15
Coordinates from ORCA-job run
  C   0.48263341600547      0.53898773198228      0.42295511935295
  C   -0.57924975513108     -0.09382726531152     -0.48995198165322
  Br  0.59882253550265      2.46279869845094      0.04906202488115
  H   -0.23156683543154      0.01754139223113     -1.52304344484691
  H   0.13670834637998      0.48668458683794      1.46167279755023
  C   1.86054263016331     -0.07766720478290      0.27429183681803
  H   2.20719618353635      0.02169134335416     -0.75679444291074
  H   2.58299690652781      0.41223834397765      0.92890033749504
  H   1.80772045632078     -1.13909798306357      0.51667551003154
  N   -1.91189894568369      0.49253911391838     -0.42949794110884
  H   -1.89739012073978      1.43946592761036     -0.78975743108650
  H   -2.22139667235772      0.54287209787121      0.53629964556076
  N   -0.60363213716558     -1.51634450258547     -0.18312559605445
  H   -1.29729376527346     -1.94389012156820     -0.78708557997434
  H   -0.93419224265350     -1.64399215892238      0.76939914594529
