15

C	0.0	0.0	0.0
C	-0.387529	-0.029356	-1.503108
Br	1.966069	0.0	0.0
H	-0.222222	-1.065374	-1.845519
H	0.358978	0.587868	-2.01664
C	-0.53961	1.218544	0.723924
H	-1.633388	1.12077	0.742962
H	-0.148507	1.263445	1.74288
H	-0.265499	2.121867	0.176724
C	-0.379773	-1.236267	0.683734
N	-0.601738	-2.255393	1.227681
N	-1.706943	0.52299	-1.741818
H	-2.036368	0.179777	-2.640882
H	-2.438241	0.229534	-1.029778
H	-3.575279	0.0	0.0
