15

C	0.0	0.0	0.0
C	-0.353256	-6.8e-05	-1.514558
Br	1.966114	0.0	0.0
H	0.353298	0.705153	-1.970773
H	-0.077792	-0.997606	-1.891748
C	-0.545353	1.208727	0.736092
H	-0.265705	2.118493	0.202738
H	-0.157219	1.246065	1.75744
H	-1.639847	1.106792	0.74988
C	-0.38806	-1.245428	0.660824
N	-0.649404	-2.239932	1.229561
N	-1.712796	0.407516	-1.794849
H	-2.06689	-0.13881	-2.571472
H	-2.406234	0.227119	-1.012866
H	-3.54727	0.0	0.0
