14
Coordinates from ORCA-job run
  C   -0.28606259157373     -0.59974811639837      0.55035640448095
  C   0.73503252540856      0.38137682206030     -0.06734330744272
  Cl  0.25648106310898     -1.12443283346094      2.13997566724781
  H   1.70387153281969     -0.12175364764471     -0.02081949621623
  N   -0.35331448211466     -1.84590215295856     -0.34890641182358
  O   -1.46161805590413     -2.27316262823377     -0.63576603731803
  O   0.73379295496338     -2.29915748245895     -0.67705873131073
  C   -1.60289566570104      0.01339582743401      0.63151176445338
  N   -2.62049683418155      0.59852744748911      0.69833203699870
  N   0.77298816716654      1.58442500321219      0.72891562885214
  H   0.01046799000496      2.20785889696916      0.49076671108082
  H   1.64749467683447      2.07397459238338      0.59454311821685
  C   0.38152875843046      0.58899272754349     -1.48522647969621
  N   0.08372996073808      0.81660554406367     -2.59928086752314
