14
Coordinates from ORCA-job run
  C   -0.11938897259597     -0.71072053468149      0.39368673746849
  C   0.20928264008067      0.71517383150868     -0.09918856611176
  Cl  1.25077135421063     -1.78478110314966      0.19592557015998
  H   -0.69486053483309      1.30429711718920      0.08115910282367
  N   -1.31144017412813     -1.16643479548038     -0.49367862419749
  O   -2.29958062775326     -0.45959486397391     -0.35579384769878
  O   -1.16645810761921     -2.12444538832983     -1.22385696945289
  C   -0.57912020056911     -0.70644015356574      1.77470094359927
  N   -0.93954217162172     -0.67798732283115      2.89355309804911
  N   0.44644088450676      0.66789729163879     -1.52284388056286
  H   0.31880231102808      1.58284601764514     -1.93482334868967
  H   1.38278626147506      0.34393923621629     -1.73122133602594
  C   1.30205729338724      1.27308933993899      0.71480618525966
  N   2.20125004443204      1.74316132787509      1.30757493537921
