14
Coordinates from ORCA-job run
  C   -0.28040946543343     -0.52728342686005      0.51426990060257
  C   0.77213228873364      0.41163564502011     -0.15769920845842
  Cl  0.23467070166646     -0.89702642800482      2.16185847454001
  H   1.72393555763634     -0.12485697368830     -0.09140932563955
  N   -0.31433890468256     -1.83921441855268     -0.28171744657039
  O   -1.39001324770070     -2.18401064219109     -0.74926512558475
  O   0.76789626771534     -2.39635376075783     -0.39364068874750
  C   -1.59640891690061      0.08838987403861      0.51914350873893
  N   -2.60904803009730      0.68607799532010      0.53335038721136
  N   0.91140603577764      1.71158888471097      0.43334318033548
  H   1.24714967903023      1.65477670269001      1.38532199201357
  H   0.04980437333941      2.24261021591326      0.39686000117528
  C   0.40479300705354      0.53817031574313     -1.57372241799730
  N   0.07843065386198      0.63449601661859     -2.69769323161929
