14
Coordinates from ORCA-job run
  C   -0.16008952126618     -0.70809974838006      0.38362408176821
  C   0.25989686867167      0.69936363464048     -0.09261684147360
  Cl  1.11559385464136     -1.87861725366985      0.11539256187209
  H   -0.58957954623737      1.35144356418517      0.13146619926712
  N   -1.41369979772936     -1.05211536985795     -0.46871453888429
  O   -1.36760170558100     -2.00131465382441     -1.22296019188725
  O   -2.33939604706558     -0.27555254183681     -0.28144207648432
  C   -0.57039782629499     -0.69939992182065      1.78015241781664
  N   -0.88917267681751     -0.66962255648203      2.91155487171981
  N   0.44419413378450      0.66617856661296     -1.52440278002590
  H   0.37193338940036      1.59683482267148     -1.91378482889457
  H   1.34550570181666      0.27761167059244     -1.77267961781699
  C   1.41964924294504      1.15352950275062      0.69294165327965
  N   2.37216392973242      1.53976028441860      1.26246908974338
