17

C	-0.454408	0.006239	-1.440425
C	0.0	0.0	0.0
Br	0.063808	1.677495	-2.385242
H	1.096093	0.0	0.0
H	0.140035	-0.736368	-1.985146
N	-1.889412	-0.130568	-1.609083
H	-2.107557	-0.366189	-2.570313
H	-2.203122	-0.887325	-1.01246
C	-0.35519	-1.35425	0.623912
H	0.226202	-1.46154	1.543393
H	-0.056542	-2.178763	-0.033197
H	-1.419299	-1.472513	0.880018
C	-0.542808	1.14419	0.838644
H	-1.639376	1.164035	0.874753
H	-0.161001	1.047247	1.859877
H	-0.193454	2.103068	0.451162
F	2.684976	0.0	0.0
