17

C	-0.490399	-0.060935	-1.423335
C	0.0	0.0	0.0
Br	0.183972	1.578041	-2.474216
H	1.094565	0.0	0.0
H	0.025545	-0.856542	-1.961299
N	-1.898849	-0.194376	-1.572781
H	-2.367727	0.574127	-1.108906
H	-2.16366	-0.184783	-2.549776
C	-0.371083	-1.317827	0.684981
H	0.138623	-1.354152	1.652094
H	-0.001558	-2.166614	0.100804
H	-1.44953	-1.44438	0.835771
C	-0.516962	1.187456	0.797022
H	-0.287506	2.129977	0.2951
H	-1.598666	1.146525	0.997893
H	-0.003752	1.202079	1.762448
F	2.678594	0.0	0.0
