17

C	-0.470289	-0.003824	-1.4433
C	0.0	0.0	0.0
Br	0.221065	1.5822	-2.407778
H	1.095849	0.0	0.0
H	0.010678	-0.835959	-1.963043
N	-1.900801	-0.064817	-1.715876
H	-2.365378	0.623995	-1.133944
H	-2.230334	-0.980982	-1.427161
C	-0.418985	-1.31729	0.650445
H	-0.061268	-2.170233	0.063383
H	0.057619	-1.388532	1.632101
H	-1.505601	-1.416522	0.791239
C	-0.489091	1.185192	0.816912
H	-0.036534	1.132817	1.8112
H	-1.581757	1.213289	0.950025
H	-0.167676	2.12645	0.366679
F	2.681723	0.0	0.0
