14
Coordinates from ORCA-job run
  C   0.53109235097347     -0.43133503554019     -0.73345782309653
  C   -0.86314104353973      0.11791979192599     -0.39142533129702
  Cl  0.37119188149080     -2.15063884098925     -1.19078020296212
  H   -1.53915473720253     -0.16754150358827     -1.20252801073423
  H   0.88953147182052      0.08305944646265     -1.62811681593841
  C   1.52220177340102     -0.28336469448845      0.40342349310687
  H   2.50640882610959     -0.63654347385749      0.09435383654275
  H   1.61139921290132      0.76753209592511      0.69442592774463
  H   1.20319163582959     -0.87669293932933      1.26099720764998
  C   -0.78412088155128      1.59467178309624     -0.37317303674290
  N   -0.70558706183246      2.76524306546373     -0.30746277382271
  N   -1.37435758477627     -0.45106492238425      0.84359878248001
  H   -2.38100814320028     -0.35869712664537      0.88279760074629
  H   -0.98864770042377      0.02845235394888      1.64734714632339
