14
Coordinates from ORCA-job run
  C   0.55252990523567     -0.43822427458915     -0.71386689689095
  C   -0.84749275202079      0.12463475213012     -0.42164093380766
  Cl  0.39226924021964     -2.15737644780168     -1.17199893432935
  H   -1.49752139287508     -0.15631561488880     -1.25529261319471
  H   0.94634084660673      0.07002216145382     -1.59709465725359
  C   1.50528061563526     -0.29617325982557      0.45601962934714
  H   2.49581233269239     -0.66062752295442      0.18222543154847
  H   1.15081376715853     -0.88295813349897      1.30412147045946
  H   1.59525808748896      0.75482710826915      0.74636368246613
  C   -0.75626962581757      1.60069447112919     -0.40284821066911
  N   -0.67089920033080      2.77070210745430     -0.33529314823038
  N   -1.40660842924243     -0.43698699681984      0.79610888350752
  H   -1.04534750855212      0.04174487177637      1.61158869377965
  H   -2.41316588619840     -0.33596322183451      0.79960760326738
