14
Coordinates from ORCA-job run
  C   0.64218730824401     -0.10374249482323     -0.61225648788835
  C   -0.78276923577981      0.19344725871449     -0.12591289908237
  Cl  0.53699741574224     -0.89736283264438     -2.21286324446037
  H   -1.34908779405811     -0.74921063189252     -0.15995747559881
  H   1.15822181574154      0.84607427720337     -0.76282461222270
  C   1.40182448862194     -0.98518012151936      0.35756638390270
  H   2.39053620252096     -1.21851613946099     -0.03868485134887
  H   0.87106461348421     -1.92693661140649      0.52159144660555
  H   1.52601384292797     -0.46223554626351      1.30722560622901
  C   -1.44809747962598      1.13200559241320     -1.03596069313002
  N   -1.99001970052275      1.91031364359108     -1.72729166600766
  N   -0.71249252077444      0.79161821894489      1.20993336326609
  H   -1.49950031038362      1.40763003446220      1.36870105564068
  H   -0.74487864613815      0.06209535268125      1.91073407409512
