16

C	-0.54138	0.0455	-1.424716
C	0.0	0.0	0.0
F	0.006089	-1.032767	-2.150013
H	1.098501	0.0	0.0
N	-1.964152	-0.029822	-1.409805
H	-2.32128	-0.196324	-2.342795
H	-2.172855	-0.818594	-0.800297
C	-0.12251	1.269941	-2.140989
N	0.180874	2.226092	-2.749704
N	-0.547841	-1.24178	0.594255
H	-0.662036	-1.020433	1.577147
H	0.19878	-1.927945	0.532719
N	-0.449178	1.150921	0.765407
H	-1.271062	1.582698	0.361822
H	0.31192	1.816712	0.788345
F	2.65329	0.0	0.0
