16

C	-0.507893	-0.015047	-1.426485
C	0.0	0.0	0.0
F	-1.963678	-0.094879	-1.363861
H	1.093	0.0	0.0
N	-0.104558	1.12731	-2.130628
H	-0.176183	1.917157	-1.499148
H	-0.632645	1.253413	-2.980067
C	-0.129966	-1.240866	-2.154458
N	0.113921	-2.184425	-2.807011
N	-0.469158	-1.205855	0.65179
H	-1.451266	-1.134643	0.895101
H	0.082027	-1.358219	1.486454
N	-0.407526	1.284582	0.585387
H	-1.328375	1.210116	1.003024
H	0.267636	1.510992	1.304332
F	2.636897	0.0	0.0
