16

C	-0.183447	0.125749	-1.518237
C	0.0	0.0	0.0
F	-0.113489	1.488065	-1.856384
H	1.099426	0.0	0.0
N	0.880775	-0.546655	-2.206463
H	0.677095	-1.539116	-2.19158
H	1.721697	-0.406384	-1.611792
C	-1.510626	-0.339148	-1.985888
N	-2.568893	-0.695502	-2.348571
N	-0.43347	-1.333704	0.379389
H	-1.375449	-1.273756	0.751836
H	0.185461	-1.682786	1.099604
N	-0.695437	1.050465	0.744342
H	-0.209621	1.140041	1.632107
H	-0.532648	1.923191	0.253984
F	2.719513	0.0	0.0
