16

C	-0.530841	-0.024825	-1.430244
C	0.0	0.0	0.0
F	-0.203942	-1.231181	-2.040657
H	1.099092	0.0	0.0
N	-1.964082	0.085621	-1.421089
H	-2.165578	0.850797	-0.781631
H	-2.31664	0.313156	-2.342641
C	0.106041	1.037174	-2.252311
N	0.504571	1.921701	-2.916631
N	-0.478746	-1.156945	0.742153
H	0.289611	-1.815859	0.769207
H	-1.259685	-1.592119	0.264716
N	-0.512394	1.251662	0.608207
H	-0.793314	0.98603	1.545941
H	0.294488	1.860598	0.711433
F	2.650263	0.0	0.0
