16

C	-0.195746	0.129063	-1.503271
C	0.0	0.0	0.0
F	-1.494612	0.576157	-1.810533
H	1.094307	0.0	0.0
N	0.75556	1.062035	-2.060684
H	1.654768	0.762828	-1.646865
H	0.546651	1.932315	-1.572149
C	-0.04886	-1.178734	-2.183666
N	0.031738	-2.180042	-2.789469
N	-0.560299	-1.220324	0.54329
H	-1.545531	-1.107548	0.753398
H	-0.069544	-1.458827	1.39456
N	-0.395507	1.276367	0.59687
H	-1.37538	1.267928	0.85432
H	0.164278	1.41892	1.427708
F	2.676292	0.0	0.0
