16

C	-0.566151	-0.142438	-1.400581
C	0.0	0.0	0.0
F	-1.990176	-0.42738	-1.284054
H	1.098806	0.0	0.0
N	-0.3629	1.014564	-2.167944
H	-0.959242	1.02392	-2.984285
H	-0.538746	1.800324	-1.547844
C	-0.049995	-1.34356	-2.089878
N	0.294142	-2.315328	-2.651004
N	-0.407575	-1.118479	0.846008
H	0.400831	-1.716192	0.967879
H	-1.161494	-1.653333	0.435927
N	-0.436302	1.302849	0.52064
H	-1.190174	1.142227	1.178965
H	0.356282	1.660552	1.042116
F	2.626099	0.0	0.0
