16

C	-0.530042	0.110602	-1.426797
C	0.0	0.0	0.0
F	0.064088	-0.890795	-2.215314
H	1.099657	0.0	0.0
N	-1.94953	-0.022803	-1.433783
H	-2.127202	-0.863905	-0.887381
H	-2.286687	-0.142391	-2.381644
C	-0.156809	1.399053	-2.052439
N	0.119425	2.414241	-2.573091
N	-0.53519	-1.26778	0.542217
H	-0.833791	-1.043953	1.484745
H	0.262238	-1.891143	0.622869
N	-0.441529	1.127864	0.807585
H	0.347708	1.756945	0.900367
H	-1.224331	1.621221	0.394325
F	2.650814	0.0	0.0
