14
Coordinates from ORCA-job run
  C   -0.26844621210077      0.02120568082376      0.23024824985561
  C   1.17897392589649      0.05671865705042     -0.27021071428511
  Br  -0.15039350442832     -0.36445631594386      2.22987493054856
  H   1.16053730620089      0.41046555284388     -1.30679145883589
  H   1.76558980801744      0.75685170757710      0.32757512146120
  C   -0.92207395042649      1.38406287482291      0.10229690528202
  H   -0.34929090223290      2.14385587994242      0.63424482326967
  H   -0.98591500061993      1.64442115887791     -0.95790154676843
  H   -1.93007541169480      1.36510715121321      0.52082680553461
  N   -1.00151642503142     -0.95842118350723     -0.47206303989375
  H   -0.60813880965184     -1.88687020360900     -0.37147631658489
  H   -1.97341746714482     -0.97614803466662     -0.19075340160778
  C   1.80779310598931     -1.26071543193058     -0.23977721830189
  N   2.27537353722715     -2.33707749349433     -0.23609313967394
