14
Coordinates from ORCA-job run
  C   -0.34936215524729     -0.19206525636771      0.43298054975032
  C   1.14436977265595     -0.54286018623082      0.36182480886600
  Br  -0.91300407436045     -0.58157970555235      2.28125587839063
  H   1.71008651881107      0.05927217147661      1.07649078522817
  H   1.26955089391201     -1.59713569362562      0.61777185313714
  C   -0.60174814380115      1.28826065819367      0.17861944463614
  H   -0.29679942748225      1.53309117728095     -0.84373406459900
  H   -0.04553679049196      1.91976757552000      0.87455772941379
  H   -1.66497612708322      1.51077365485226      0.28623413267750
  N   -1.07128879384522     -1.10218961810836     -0.42685402098898
  H   -2.06717886877166     -0.92126212174198     -0.37116837232007
  H   -0.77693308338831     -0.96056857196306     -1.38926001041936
  C   1.65397184380174     -0.30703941950982     -0.98932316673766
  N   2.00884843529074     -0.10646466422379     -2.09039554703463
