14
Coordinates from ORCA-job run
  C   -0.28601061200221     -0.14579713039056      0.49343228230772
  C   1.20404033094160     -0.45299292218141      0.28221566976816
  Br  -0.60715208699285     -0.31176875054921      2.43120610785905
  H   1.40981823342921     -1.46082055696078      0.64922182525895
  H   1.82027743800270      0.25450024654545      0.84172171979196
  C   -0.63855866710109      1.27999719251540      0.09033292882763
  H   -0.46886886451002      1.40085844479683     -0.98425411831681
  H   -0.03558776009090      2.01429456306148      0.62860047601856
  H   -1.69120630192274      1.47895420673653      0.29990985806482
  N   -1.05959940495769     -1.18292921740577     -0.15082042297712
  H   -2.04951134424340     -1.02835768524565      0.00377407680179
  H   -0.88791174679238     -1.15709279509885     -1.15225500935749
  C   1.53835964298475     -0.37673051489056     -1.14016534234048
  N   1.75091114325503     -0.31011508093291     -2.29292005170673
