14
Coordinates from ORCA-job run
  C   -0.27336964655494      0.10324618215672      0.34551331444547
  C   1.11915655970100     -0.06985833165790     -0.30028940391169
  Br  0.01251103166069      0.12710433943637      2.29619812200303
  H   1.80886195373106      0.70243184557812      0.04954336576509
  H   1.00378572480779      0.04791232616466     -1.38476077452085
  C   -0.87528447783866      1.43346066172396     -0.06929902596394
  H   -1.83114228431092      1.57441611250510      0.43421506822222
  H   -1.04490755677167      1.43418311934116     -1.15214402285432
  H   -0.21158987642017      2.26242412877074      0.17972686968083
  N   -1.20814695773447     -0.95458990524063      0.06915783106183
  H   -0.82410756779222     -1.86266810054940      0.30578483525385
  H   -1.46316200479390     -0.94527781552966     -0.91268631326607
  C   1.68436562428991     -1.38966701223303     -0.03814788138828
  N   2.10202947802649     -2.46511755046617      0.17718801547284
