14
Coordinates from ORCA-job run
  C   -0.39832350297899     -0.16687539499779      0.30629328914648
  C   0.88264025793262     -0.69911778002131     -0.36985808292108
  Br  -0.24364495309959     -0.59291827790316      2.22400949473660
  H   0.97399688931479     -1.77313775052772     -0.18480268944249
  H   0.77009560710125     -0.55636608996775     -1.45138947427942
  C   -0.53772249227371      1.33483174872356      0.14826796751917
  H   -0.59194767744289      1.58316990505667     -0.91825260633204
  H   -1.45559445660705      1.66628675200419      0.63322373284073
  H   0.31169638978329      1.86143931597547      0.58275991125680
  N   -1.59496545470988     -0.81279633951381     -0.17180200711048
  H   -1.51389234006398     -1.82223743010577     -0.13456770585590
  H   -1.78697515065903     -0.52644855560402     -1.12586703281567
  C   2.10568830358397     -0.03027069106907      0.06471472162628
  N   3.07994858011922      0.53344058795052      0.39727048163104
