14
Coordinates from ORCA-job run
  C   -0.33154247686648     -0.26131915265480      0.27328942366860
  C   0.96772069483332     -0.69442708912521     -0.41685074725187
  Br  -0.19722471173773     -0.73886062294052      2.17482117110701
  H   0.84830468334909     -0.54136023831694     -1.49675504111052
  H   1.11286163578391     -1.76341776717883     -0.24903586202738
  C   -0.55895457260002      1.24129750814099      0.18521790355020
  H   0.24664929357605      1.80597665060295      0.65682622144327
  H   -1.50046807584547      1.50627191225560      0.66967709474184
  H   -0.61813761487559      1.52937073147968     -0.87072094657484
  N   -1.39074244714911     -1.08026448049200     -0.28678058051458
  H   -2.25591057578860     -0.91869884328290      0.21671460343354
  H   -1.53941374413589     -0.80711997269327     -1.25447400062637
  C   2.14000981488469      0.05174797442644      0.02929923040202
  N   3.07584809657182      0.67180338977880      0.37077152975906
