14
Coordinates from ORCA-job run
  C   -0.40407863580079     -0.16564816127794      0.29843937861243
  C   0.88288836176878     -0.70352547014370     -0.36219950958685
  Br  -0.27999330435305     -0.60462430652333      2.21627590395719
  H   0.96392074648342     -1.77901837932045     -0.18107463620207
  H   0.78525607741027     -0.55490875086181     -1.44435906259352
  C   -0.52936425555197      1.33815282040145      0.14847599363320
  H   -0.55975213241044      1.59452607246402     -0.91712394376952
  H   0.31481559914742      1.85541093401548      0.60379550748779
  H   -1.45457660416389      1.67256388401748      0.61724229998794
  N   -1.59789180385141     -0.79900448266975     -0.20085361791894
  H   -1.52440787874505     -1.80925575424034     -0.17497974087527
  H   -1.78058312329087     -0.49871014073639     -1.15229856716892
  C   2.10395352810687     -0.04560166342882      0.09365172615626
  N   3.07881342525071      0.49964339830413      0.45400826828031
