14
Coordinates from ORCA-job run
  C   -0.33825384026414     -0.26022102941136      0.26375406031008
  C   0.96499782692491     -0.70274700450775     -0.41289633685634
  Br  -0.23999224156456     -0.76590254345375      2.15945654992538
  H   0.86219888713451     -0.53611862460499     -1.49254075587302
  H   1.09393806131255     -1.77538957493408     -0.25597514876286
  C   -0.54327768898313      1.24640609108113      0.19190786256014
  H   0.26211644464355      1.79359729725166      0.68402614099789
  H   -1.48922542152055      1.51808317275867      0.66380972727142
  H   -0.58023361263718      1.54898642189224     -0.86101722505923
  N   -1.40086503713883     -1.05629202040030     -0.32431341535098
  H   -2.26571076515381     -0.90682777636673      0.18346242267735
  H   -1.54758746027497     -0.74879351124659     -1.28204893380266
  C   2.14068133178335      0.02296992463921      0.05736916622784
  N   3.08121351573831      0.62124917730266      0.42400588573497
