10
Coordinates from ORCA-job run
  C   -0.23113836202442      0.46004339233853     -0.03900921924006
  C   1.13110819462079     -0.19670779211755     -0.03504575302213
  Cl  -0.45155994974275      1.37849312950985     -1.57050049182326
  H   1.18778344943327     -0.91617007758861     -0.85225190868845
  H   -0.28603857940056      1.22976615266402      0.73943033020010
  H   1.28816703329100     -0.72080558489648      0.91274150109329
  H   1.92059124148810      0.54542817606854     -0.15235557182813
  N   -1.26887019135827     -0.53981652159060      0.03297106417446
  H   -2.17875032010522     -0.10600856020713      0.12623783182585
  H   -1.11029251620193     -1.13422231418059      0.83778221730833
