16

C	-0.229474	0.209796	-1.503674
C	0.0	0.0	0.0
Br	-1.940072	1.247378	-1.937436
H	1.095394	0.0	0.0
N	0.865962	0.858084	-1.989381
H	1.732378	0.612729	-1.453761
H	0.959906	0.842218	-2.993273
N	-0.551591	-1.151511	-2.239307
O	-1.558393	-1.759361	-1.91465
O	0.243317	-1.471214	-3.115959
N	-0.357252	-1.314371	0.551939
O	-1.074699	-1.374622	1.55209
O	0.210098	-2.27144	0.021434
C	-0.487373	1.081581	0.819281
N	-0.7902	2.002228	1.485118
H	2.464811	0.0	0.0
