16

C	-0.545869	0.08458	-1.378968
C	0.0	0.0	0.0
Br	-2.654715	-0.204162	-1.403156
H	1.115074	0.0	0.0
N	-0.213658	1.28589	-2.001292
H	-0.625654	1.346035	-2.923289
H	-0.43718	2.093205	-1.435457
N	-0.016916	-1.002875	-2.307487
O	0.847903	-1.746094	-1.867888
O	-0.429482	-0.964625	-3.462696
N	-0.362249	-1.171025	0.777342
O	-0.826004	-2.162012	0.205481
O	-0.060108	-1.115027	1.977618
C	-0.324231	1.199822	0.732544
N	-0.52034	2.244548	1.23987
H	2.276344	0.0	0.0
