16

C	-0.412049	-0.028614	-1.489571
C	0.0	0.0	0.0
Br	0.271965	1.600691	-2.384602
H	1.115076	0.0	0.0
N	0.137079	-1.196937	-2.145768
H	-0.037504	-1.144389	-3.158149
H	1.161661	-1.169916	-2.021817
N	-1.905646	0.033917	-1.683581
O	-2.447663	1.10222	-1.146831
O	-2.253509	-0.204644	-2.92351
N	-0.48186	-1.205869	0.726411
O	0.284243	-1.443019	1.785045
O	-1.764433	-1.079305	0.996544
C	-0.347109	1.238558	0.874871
N	0.215149	1.452304	1.893166
H	2.485884	0.0	0.0
