16

C	-0.281115	-0.066031	-1.477215
C	0.0	0.0	0.0
Br	-2.181129	0.162564	-1.98936
H	1.114161	0.0	0.0
N	0.507105	0.943348	-2.058678
H	0.505138	0.879471	-3.069099
H	1.45789	0.865437	-1.665453
N	0.157659	-1.450401	-2.046885
O	-0.110924	-1.660963	-3.225921
O	0.883204	-2.137549	-1.340081
N	-0.536087	-1.083597	0.82685
O	-0.222619	-1.04123	2.019606
O	-1.224664	-1.961673	0.300378
C	-0.387049	1.271261	0.565154
N	-0.656911	2.309733	1.047387
H	2.418535	0.0	0.0
