16

C	-0.204336	0.010029	-1.507518
C	0.0	0.0	0.0
Br	-0.410686	2.02012	-2.124229
H	1.115868	0.0	0.0
N	0.805702	-0.637961	-2.121542
H	1.707468	-0.487698	-1.636327
H	0.804306	-0.624811	-3.12911
N	-1.574888	-0.506958	-1.963029
O	-2.49499	-0.392176	-1.167284
O	-1.645404	-0.953627	-3.106802
N	-0.423059	-1.282586	0.603615
O	-0.830255	-1.265211	1.765978
O	-0.267189	-2.300763	-0.070088
C	-0.516335	1.101927	0.774778
N	-0.824347	1.98914	1.480729
H	2.461931	0.0	0.0
