16

C	-0.503554	0.002447	-1.447587
C	0.0	0.0	0.0
Br	0.155987	-1.625584	-2.327158
H	1.092217	0.0	0.0
C	-1.961346	-0.0071	-1.551414
N	-3.125737	0.057458	-1.705307
C	0.059037	1.215439	-2.190304
H	1.148372	1.204196	-2.132763
H	-0.253409	1.190087	-3.23589
H	-0.321543	2.13053	-1.729169
N	-0.426883	-1.25529	0.729172
O	-1.633372	-1.445214	0.870191
O	0.473859	-1.983505	1.12774
C	-0.522569	1.143622	0.716407
N	-0.934316	2.100841	1.267305
Cl	2.685069	0.0	0.0
