16

C	-0.411445	-0.088356	-1.484764
C	0.0	0.0	0.0
Br	-2.34591	-0.500306	-1.622265
H	1.094336	0.0	0.0
C	-0.242268	1.238756	-2.076751
N	-0.09699	2.282906	-2.598096
C	0.397306	-1.099779	-2.294355
H	0.170286	-0.97446	-3.354486
H	1.457439	-0.903839	-2.10317
H	0.161729	-2.112966	-1.98224
N	-0.410327	-1.220527	0.775424
O	-0.997268	-1.056421	1.839256
O	-0.090233	-2.302274	0.299176
C	-0.533259	1.187132	0.648385
N	-0.949606	2.162215	1.154916
Cl	3.135985	0.0	0.0
