16

C	-0.436821	0.032075	-1.479552
C	0.0	0.0	0.0
Br	0.049706	-1.679246	-2.307868
H	1.092197	0.0	0.0
C	-1.878639	0.199404	-1.656937
N	-3.019894	0.397635	-1.861308
C	0.335159	1.152058	-2.17775
H	0.032192	2.115649	-1.758108
H	1.403697	0.999835	-2.003541
H	0.11583	1.144759	-3.246195
N	-0.545608	-1.211043	0.70443
O	0.251782	-2.068882	1.056561
O	-1.767384	-1.245529	0.851914
C	-0.502212	1.186805	0.681497
N	-0.888192	2.163676	1.208727
Cl	3.209669	0.0	0.0
