16

C	-0.54001	-0.025006	-1.442091
C	0.0	0.0	0.0
Br	0.090572	1.646886	-2.275658
H	1.093405	0.0	0.0
C	0.030047	-1.110049	-2.238727
N	0.388854	-1.956179	-2.971719
C	-2.064024	-0.048064	-1.524449
H	-2.47434	0.805063	-0.981335
H	-2.380102	0.011152	-2.566754
H	-2.436211	-0.97888	-1.093372
N	-0.381325	-1.244248	0.765616
O	-0.705526	-2.237899	0.118597
O	-0.277606	-1.185761	1.984398
C	-0.511951	1.145494	0.738017
N	-0.955256	2.062013	1.325118
Cl	3.105895	0.0	0.0
