16

C	-0.404776	-0.079949	-1.487307
C	0.0	0.0	0.0
Br	-2.344442	-0.464996	-1.634149
H	1.094261	0.0	0.0
C	-0.214157	1.243798	-2.07887
N	-0.0593	2.273453	-2.625663
C	0.3918	-1.103039	-2.292163
H	0.139406	-2.112878	-1.982234
H	1.453161	-0.923486	-2.095353
H	0.172452	-0.974016	-3.353415
N	-0.423337	-1.225477	0.760694
O	-0.046902	-2.301631	0.309424
O	-1.084565	-1.070812	1.783868
C	-0.534589	1.184811	0.650552
N	-0.947348	2.166111	1.148056
Cl	3.138321	0.0	0.0
