16

C	-0.547395	-0.001516	-1.437176
C	0.0	0.0	0.0
Br	0.209416	1.609131	-2.2865
H	1.093402	0.0	0.0
C	-0.052263	-1.140896	-2.207353
N	0.261453	-2.038359	-2.898397
C	-2.067837	0.093193	-1.531939
H	-2.411654	0.988597	-1.011642
H	-2.517431	-0.793942	-1.084797
H	-2.367561	0.158324	-2.578715
N	-0.391176	-1.24385	0.76792
O	-0.947673	-2.156491	0.158778
O	-0.079427	-1.255932	1.951112
C	-0.495212	1.141228	0.75654
N	-0.932365	2.051516	1.357889
Cl	3.119407	0.0	0.0
