16

C	-0.436377	0.033763	-1.480544
C	0.0	0.0	0.0
Br	0.061192	-1.669314	-2.317022
H	1.092207	0.0	0.0
C	-1.878943	0.188207	-1.653275
N	-3.022723	0.366	-1.856932
C	0.324655	1.161388	-2.174909
H	0.015509	2.12083	-1.752391
H	1.393334	1.017799	-2.003229
H	0.103803	1.15424	-3.242877
N	-0.547323	-1.212307	0.70053
O	0.243723	-2.093464	1.008412
O	-1.765672	-1.224016	0.888532
C	-0.503043	1.185724	0.681749
N	-0.88895	2.165036	1.204082
Cl	3.209999	0.0	0.0
