16

C	0.0	0.0	0.0
C	-0.457961	-0.149916	-1.461426
F	1.41458	0.0	0.0
H	-1.547561	-0.073905	-1.483048
N	-0.463148	1.207005	0.571885
H	-0.258844	1.217253	1.564285
H	-1.482972	1.223195	0.456313
C	-0.337197	-1.246387	0.740601
N	-0.49423	-2.226448	1.369829
N	-0.001534	-1.33494	-2.117477
H	0.946761	-1.559787	-1.844626
H	-0.619889	-2.105075	-1.898737
N	0.077573	1.043169	-2.215318
O	1.233804	0.970764	-2.62829
O	-0.676421	2.000297	-2.366067
Br	-3.61148	0.0	0.0
