16

C	0.0	0.0	0.0
C	-0.390005	0.11369	-1.489539
F	1.408385	0.0	0.0
H	-1.480032	0.174244	-1.549382
N	-0.487647	1.059633	0.793027
H	-0.81768	0.718953	1.685376
H	-1.291897	1.486335	0.341913
C	-0.348925	-1.353893	0.487
N	-0.506431	-2.435473	0.916988
N	0.136649	-0.913518	-2.329104
H	-0.432492	-1.744548	-2.242339
H	1.093942	-1.120903	-2.075026
N	0.16408	1.43936	-1.960707
O	1.280685	1.439268	-2.469257
O	-0.538497	2.432126	-1.778615
Br	-3.59761	0.0	0.0
