16

C	0.0	0.0	0.0
C	-0.577226	-0.079925	-1.417791
F	1.405668	0.0	0.0
H	-1.661339	0.097891	-1.287841
N	-0.497487	1.086117	0.735992
H	-0.246775	1.039732	1.711781
H	-0.251565	1.962658	0.306556
C	-0.352258	-1.259003	0.70201
N	-0.473911	-2.26634	1.293183
N	-0.341914	-1.309309	-2.089561
H	-1.146457	-1.912688	-2.0057
H	0.491578	-1.777343	-1.760045
N	-0.072521	1.080053	-2.278388
O	0.360378	2.087478	-1.711758
O	-0.186965	0.96571	-3.489385
Br	-3.773855	0.0	0.0
