15

C	-0.625389	0.051626	-1.376981
C	0.0	0.0	0.0
Cl	-0.112952	-1.35095	-2.355863
H	1.09654	0.0	0.0
H	-1.715478	0.055355	-1.36026
N	-0.265547	1.275189	-2.188984
O	0.846007	1.756073	-2.03827
O	-1.125146	1.651072	-2.982835
N	-0.279874	-1.205426	0.729127
H	0.5976	-1.716105	0.805928
H	-0.977698	-1.787894	0.289115
N	-0.472614	1.163951	0.760133
O	-0.144299	1.236893	1.943552
O	-1.097905	2.055721	0.147604
H	2.496765	0.0	0.0
