15

C	-0.526386	0.499887	-1.319797
C	0.0	0.0	0.0
Cl	-1.838478	-0.472744	-2.016213
H	1.097889	0.0	0.0
H	-0.867789	1.525926	-1.240185
N	0.627599	0.568073	-2.300659
O	1.225231	1.641903	-2.288719
O	0.943063	-0.430886	-2.932887
N	-0.245512	-1.366479	0.302055
H	-1.079537	-1.470265	0.866045
H	0.552373	-1.691421	0.843514
N	-0.359683	0.939825	1.052625
O	-0.453428	0.490571	2.210412
O	-0.386178	2.156093	0.784523
H	2.367719	0.0	0.0
