15

C	-0.410877	0.169353	-1.450576
C	0.0	0.0	0.0
Cl	-0.09826	1.738328	-2.18465
H	1.096923	0.0	0.0
H	0.129101	-0.584123	-2.02093
N	-1.874431	-0.161188	-1.613238
O	-2.131885	-1.311448	-1.981328
O	-2.701566	0.684904	-1.294033
N	-0.326752	-1.275793	0.53819
H	0.491758	-1.869081	0.462029
H	-1.151257	-1.723962	0.168615
N	-0.559546	1.093993	0.850537
O	-0.002562	2.189722	0.77489
O	-1.521735	0.841731	1.57629
H	2.590848	0.0	0.0
