15

C	-0.456391	0.25577	-1.412743
C	0.0	0.0	0.0
Cl	-0.256253	1.863904	-2.116203
H	1.100444	0.0	0.0
H	0.092482	-0.442572	-2.04203
N	-1.91024	-0.122613	-1.58223
O	-2.213528	-0.737294	-2.6013
O	-2.686175	0.22049	-0.695173
N	-0.380545	-1.345887	0.313604
H	0.388568	-1.764119	0.828651
H	-1.203218	-1.343043	0.90317
N	-0.4323	0.986478	1.009318
O	-0.167501	2.171299	0.796381
O	-0.926236	0.563091	2.063038
H	2.547719	0.0	0.0
