13
Coordinates from ORCA-job run
  C   -0.43119539350058      0.25938290963778     -0.28651473822717
  C   1.04137408346574     -0.17637629183726     -0.23369421012917
  Cl  -1.15375909426245     -0.27478121227883     -1.79307990122876
  H   1.47387410418867      0.20156768146167      0.69645071250599
  H   1.56112990465898      0.28747966203243     -1.07584639783529
  N   -0.67410080782393      1.65486922983593     -0.10991531423615
  H   -0.19279158098631      2.00297639735619      0.70972823657950
  H   -0.41198907053099      2.17841926457698     -0.93396641356809
  N   -1.11570809603944     -0.42490112843032      0.91338815624250
  O   -0.69090607373206     -0.01240313353418      1.98977647656380
  O   -1.96373758928733     -1.28061480828423      0.73649949430828
  C   1.21058882180123     -1.62525928352270     -0.28873588465189
  N   1.34622079204845     -2.79035928701346     -0.32509021632353
