13
Coordinates from ORCA-job run
  C   -0.46698087730158      0.17113133596597     -0.22969478358722
  C   0.64488331489800     -0.87002232975582      0.00226194091554
  Cl  -1.05304525550509      0.04015539096695     -1.87947829353776
  H   0.89602401251225     -0.87158220356884      1.06702490611706
  H   0.29353879539703     -1.86751425496884     -0.27618008639659
  N   -0.15925013222030      1.53075277192362      0.05889250162218
  H   0.23344875416218      1.62118587355090      0.98753712637493
  H   0.46742125985355      1.91622995203572     -0.63532802832192
  N   -1.57625262180674     -0.22399669433855      0.76826867334536
  O   -1.27357031831548      0.01059765181076      1.93497818208958
  O   -2.60404809330982     -0.74270126488621      0.36823341155129
  C   1.82775359483503     -0.51792056394383     -0.77303454752849
  N   2.77107756680096     -0.19631566479183     -1.39248100264396
