12
Coordinates from ORCA-job run
  C   0.72690401699950      0.22753973027789      0.22031479379877
  C   -0.56445139560051      0.17432711552162     -0.60270798007674
  H   0.63078188394337      1.01741327136464      0.97196121842713
  H   -0.57141950857440     -0.65564113432737     -1.30698831384673
  H   -0.72045612157536      1.11536008315839     -1.13399414677378
  C   1.85088083431358      0.54206069877341     -0.66771544997226
  N   2.72454979931612      0.81280912401739     -1.40345438041798
  C   0.95118974350137     -1.04440648612938      0.91678090389769
  N   1.10449301911851     -2.07246287609779      1.46210936466937
  N   -1.74779068964359     -0.00683301843544      0.29967360338049
  O   -1.66758805335658      0.46470439605476      1.43063320180292
  O   -2.71709352844201     -0.57487090417813     -0.18761281488888
