12
Coordinates from ORCA-job run
  C   0.58223786899305     -0.41297470463467      0.34529064482933
  C   -0.56989168536165     -0.09824399191312     -0.61457358908733
  H   0.17500081917553     -0.91572302996635      1.22819015078348
  H   -1.04980898784677     -1.01852690982508     -0.95354150953203
  H   -0.24473685857839      0.48878740609949     -1.47164608296721
  C   1.24412969259365      0.82104239759609      0.78382909748714
  N   1.75372770450703      1.82428142771152      1.11790146868694
  C   1.53386885601524     -1.30734544168924     -0.32205293343839
  N   2.26514367861127     -2.03700373614500     -0.87950149763044
  N   -1.62690643599283      0.69995899885939      0.08756444082154
  O   -1.76329181830057      0.51143608073551      1.29326056176109
  O   -2.29847283381554      1.44431150317147     -0.61572075171413
