17

C	-0.186481	-0.00499	-1.556324
C	0.0	0.0	0.0
Br	-0.046133	-1.925006	-2.07839
H	1.091361	0.0	0.0
C	-1.543551	0.476013	-2.03415
H	-2.346441	-0.092934	-1.563925
H	-1.60757	0.355664	-3.11537
H	-1.656538	1.535158	-1.790181
N	0.896123	0.667758	-2.214777
H	0.736175	1.662348	-2.091653
H	1.746547	0.45009	-1.670447
C	-0.646486	-1.053513	0.746073
N	-1.168403	-1.9055	1.366177
N	-0.39089	1.314898	0.580946
O	-0.139218	2.328449	-0.075769
O	-0.883502	1.336336	1.710052
F	2.518396	0.0	0.0
