17

C	-0.169219	0.041102	-1.538153
C	0.0	0.0	0.0
Br	-0.032347	-2.010572	-2.134604
H	1.091584	0.0	0.0
C	-1.529001	0.442747	-2.069628
H	-2.3094	-0.189919	-1.64582
H	-1.721504	1.485937	-1.798663
H	-1.554827	0.348885	-3.157788
N	0.892773	0.775638	-2.016362
H	0.98357	0.788638	-3.022781
H	1.768323	0.572676	-1.485999
C	-0.670572	-1.066309	0.704792
N	-1.195592	-1.905841	1.338789
N	-0.486997	1.317809	0.53492
O	0.288074	2.267292	0.48265
O	-1.643832	1.375749	0.962726
F	2.571266	0.0	0.0
