13

C	-0.434417	0.01771	-1.446394
C	0.0	0.0	0.0
F	-1.818118	0.19457	-1.57971
H	1.095349	0.0	0.0
H	0.053215	0.850889	-1.965455
C	-0.088256	-1.242631	-2.121001
N	0.203042	-2.231397	-2.681342
N	-0.411434	-1.216962	0.683736
H	0.358621	-1.501561	1.280297
H	-1.237317	-1.077444	1.247876
C	-0.450074	1.227228	0.652879
N	-0.819731	2.195118	1.209865
H	2.660816	0.0	0.0
