13

C	-0.457223	-0.017456	-1.458923
C	0.0	0.0	0.0
F	-0.010629	-1.176569	-2.070705
H	1.095693	0.0	0.0
H	-1.553888	-0.033558	-1.52478
C	0.022526	1.145136	-2.226195
N	0.350476	2.05476	-2.891991
N	-0.37251	-1.205921	0.726037
H	-1.177759	-1.660531	0.312299
H	0.423789	-1.832878	0.651633
C	-0.543044	1.19462	0.636894
N	-0.986236	2.159873	1.142393
H	2.662694	0.0	0.0
