13

C	-0.531723	-0.024496	-1.424191
C	0.0	0.0	0.0
F	-0.046213	-1.1521	-2.066301
H	1.101121	0.0	0.0
H	-1.623734	-0.111705	-1.411757
C	-0.158557	1.166475	-2.206266
N	0.056095	2.114719	-2.863817
N	-0.4749	-1.239666	0.655185
H	-0.364705	-1.103147	1.655316
H	0.231863	-1.931742	0.410038
C	-0.51821	1.172654	0.682913
N	-0.919978	2.118283	1.255414
H	2.698045	0.0	0.0
