13

C	-0.403384	0.020584	-1.461082
C	0.0	0.0	0.0
F	-1.753235	0.294618	-1.66166
H	1.102213	0.0	0.0
H	0.173918	0.798095	-1.972563
C	-0.116236	-1.276488	-2.092242
N	0.05941	-2.30529	-2.627665
N	-0.481838	-1.22276	0.671406
H	-0.682842	-1.002279	1.639975
H	0.327394	-1.838245	0.690503
C	-0.482869	1.202202	0.651827
N	-0.842065	2.173886	1.20854
H	2.672487	0.0	0.0
