13

C	-0.433976	-0.034148	-1.456361
C	0.0	0.0	0.0
F	-0.261969	1.197805	-2.063727
H	1.094236	0.0	0.0
H	0.206177	-0.763755	-1.96084
C	-1.848235	-0.426713	-1.604583
N	-2.974083	-0.73641	-1.728212
N	-0.344555	-1.286503	0.597562
H	-1.179656	-1.233791	1.166298
H	0.443379	-1.570758	1.172461
C	-0.538388	1.158137	0.699616
N	-0.989365	2.066253	1.296648
H	2.659045	0.0	0.0
