17

C	-0.505009	-0.068486	-1.445056
C	0.0	0.0	0.0
Cl	-0.283432	1.62305	-2.078238
H	1.089058	0.0	0.0
H	-0.370289	0.888146	0.508658
C	0.344008	-0.97883	-2.314504
H	0.190028	-2.012582	-2.003175
H	1.397856	-0.729497	-2.167782
H	0.066066	-0.866165	-3.366538
C	-1.989641	-0.374414	-1.544991
H	-2.17327	-1.390143	-1.188221
H	-2.322408	-0.300663	-2.583626
H	-2.571672	0.326935	-0.941997
N	-0.443223	-1.132531	0.807313
O	-0.373207	-2.271934	0.324105
O	-0.810023	-0.907433	1.968969
H	2.708853	0.0	0.0
