17

C	-0.534513	-0.022613	-1.419401
C	0.0	0.0	0.0
Cl	0.164249	-1.393787	-2.372061
H	1.08881	0.0	0.0
H	-0.292302	0.941473	0.470979
C	-2.048355	-0.138609	-1.503843
H	-2.507472	0.682061	-0.941784
H	-2.382631	-1.088067	-1.08628
H	-2.376351	-0.077854	-2.545238
C	-0.020789	1.253917	-2.076785
H	1.065002	1.302111	-1.963347
H	-0.468705	2.128047	-1.591928
H	-0.282075	1.266757	-3.13784
N	-0.479964	-1.041643	0.903417
O	-0.761668	-2.160259	0.455333
O	-0.491224	-0.761919	2.109519
H	2.684314	0.0	0.0
