19

C	0.016182	0.058749	0.035304
C	-0.424791	0.128696	-1.435473
F	1.418214	-0.223167	-0.006303
H	0.280933	0.838039	-1.896412
C	-0.123894	1.402529	0.716555
H	-1.178016	1.637964	0.852642
H	0.324582	2.186566	0.099855
H	0.385769	1.378393	1.684841
C	-0.633605	-1.062906	0.813714
H	-0.426633	-0.9524	1.883346
H	-1.710685	-1.105282	0.625227
H	-0.228901	-2.019659	0.480418
N	-1.764092	0.680623	-1.512963
H	-2.417481	-0.089428	-1.270667
H	-1.945005	0.858917	-2.496425
N	-0.325216	-1.141705	-2.156179
H	0.508595	-1.637234	-1.856257
H	-1.149482	-1.688583	-1.893132
H	-3.197949	-1.739034	-1.03558
