19

C	0.016432	-0.059272	0.03471
C	-0.424532	-0.114324	-1.436701
F	1.418665	0.222109	-0.00407
H	0.28084	-0.819395	-1.904679
C	-0.632599	1.055058	0.824213
H	-0.227136	2.014772	0.500495
H	-0.425782	0.933727	1.892702
H	-1.709655	1.100118	0.636134
C	-0.124571	-1.409661	0.702557
H	0.32344	-2.187814	0.078115
H	-1.178859	-1.645738	0.836211
H	0.385032	-1.395497	1.671073
N	-0.324292	1.163152	-2.144698
H	0.509792	1.65522	-1.839866
H	-1.148258	1.707818	-1.876204
N	-1.764105	-0.664774	-1.519723
H	-2.417089	0.103145	-1.269731
H	-1.945077	-0.833102	-2.504924
H	-3.196916	1.750519	-1.018082
