15

C	-0.425599	0.103177	-1.458983
C	0.0	0.0	0.0
F	-0.255202	-1.225364	-1.998054
H	1.086812	0.0	0.0
H	-0.400418	0.845156	0.557863
N	-1.789712	0.480957	-1.632665
H	-2.041832	0.35763	-2.60768
H	-2.358449	-0.14679	-1.075924
N	0.456627	1.006627	-2.087504
H	1.423366	0.740784	-1.914265
H	0.279081	1.064465	-3.082369
N	-0.550987	-1.232909	0.611311
O	0.213164	-2.124161	0.955111
O	-1.783038	-1.280207	0.731773
Br	3.565928	0.0	0.0
