15

C	-0.422473	0.104681	-1.460616
C	0.0	0.0	0.0
F	-0.263864	-1.225746	-1.998016
H	1.086807	0.0	0.0
H	-0.398743	0.84711	0.555806
N	-1.782425	0.495886	-1.637377
H	-2.030209	0.382373	-2.614312
H	-2.359559	-0.130873	-1.088912
N	0.469261	0.999662	-2.08862
H	1.433584	0.72606	-1.913472
H	0.29496	1.055022	-3.08364
N	-0.555887	-1.230095	0.611011
O	0.204089	-2.121723	0.961082
O	-1.78827	-1.274283	0.724469
Br	3.570244	0.0	0.0
