15

C	-0.463496	-0.029783	-1.45179
C	0.0	0.0	0.0
F	0.044709	1.110065	-2.081452
H	1.091425	0.0	0.0
H	-0.335688	-0.900335	0.514604
N	0.07529	-1.225549	-1.999644
H	-0.123671	-1.231334	-2.992689
H	1.081858	-1.238005	-1.85374
N	-1.879844	0.000376	-1.719054
H	-2.248782	0.86565	-1.344493
H	-2.31469	-0.782167	-1.247108
N	-0.501362	1.137838	0.806039
O	-1.079036	2.073057	0.246842
O	-0.310745	1.065969	2.017505
Br	3.48709	0.0	0.0
