18

C	-0.429761	-0.060832	-1.466726
C	0.0	0.0	0.0
F	-1.816066	-0.268736	-1.544228
H	1.091912	0.0	0.0
C	-0.171264	1.191144	-2.203795
N	0.004742	2.139861	-2.87387
C	0.276777	-1.205546	-2.172383
H	-0.066891	-2.152281	-1.75405
H	0.040432	-1.187625	-3.237534
H	1.354512	-1.108676	-2.020447
C	-0.486078	-1.193473	0.799854
H	-1.561041	-1.342301	0.707623
H	-0.240768	-1.037051	1.850446
H	0.049325	-2.08534	0.47197
N	-0.497552	1.269549	0.614439
O	-1.465765	1.208133	1.375902
O	0.087354	2.305495	0.307286
Cl	3.298955	0.0	0.0
