18

C	-0.429202	0.089454	-1.483395
C	0.0	0.0	0.0
F	-0.347562	-1.211843	-1.990063
H	1.091389	0.0	0.0
C	-1.850884	0.47695	-1.595836
N	-2.985486	0.76777	-1.672446
C	0.465421	0.952056	-2.350956
H	1.501185	0.669208	-2.150794
H	0.335803	2.003928	-2.113174
H	0.212172	0.769534	-3.397568
C	-0.534005	-1.228563	0.702596
H	-1.627493	-1.25957	0.698795
H	-0.184933	-1.231978	1.734455
H	-0.140381	-2.112092	0.201825
N	-0.432326	1.246294	0.709106
O	-0.936123	1.140049	1.825264
O	-0.239085	2.320729	0.140613
Cl	3.304386	0.0	0.0
