18

C	-0.41627	0.069736	-1.48205
C	0.0	0.0	0.0
F	-0.184496	-1.203779	-2.007192
H	1.091372	0.0	0.0
C	-1.870445	0.309504	-1.618221
N	-3.025171	0.49601	-1.734475
C	0.395978	1.053544	-2.300396
H	1.453159	0.869185	-2.093256
H	0.176411	0.89414	-3.3587
H	0.158404	2.080289	-2.026727
C	-0.543292	-1.217554	0.712911
H	-1.627288	-1.300817	0.628806
H	-0.070335	-2.099642	0.28474
H	-0.278693	-1.166109	1.768386
N	-0.457822	1.260737	0.665851
O	-1.415395	1.193405	1.442904
O	0.134514	2.299792	0.379768
Cl	3.326168	0.0	0.0
