18

C	0.0	0.0	0.0
C	-0.494961	-0.081287	-1.459608
Cl	1.795868	0.0	0.0
H	-1.592513	-0.100104	-1.367889
N	-0.476917	1.251196	0.544204
H	-0.195786	1.303831	1.51825
H	-1.500427	1.186549	0.525549
C	-0.437657	-1.225457	0.792874
H	-0.029881	-2.147288	0.373355
H	-1.529739	-1.253983	0.779509
H	-0.089927	-1.129124	1.825468
C	-0.077523	-1.333202	-2.089302
N	0.272465	-2.313325	-2.634356
C	-0.072627	1.108409	-2.323387
H	-0.581498	1.062594	-3.288845
H	-0.346163	2.030484	-1.813235
H	1.005634	1.102484	-2.492777
Cl	-3.666209	0.0	0.0
