18

C	0.0	0.0	0.0
C	-0.266102	-0.282979	-1.527135
Cl	1.807256	0.0	0.0
H	0.369437	-1.133531	-1.797073
N	-0.507323	1.238486	0.500893
H	-1.519749	1.149906	0.594259
H	-0.302595	1.999465	-0.137515
C	-0.516566	-1.137645	0.855627
H	-1.611101	-1.123156	0.839469
H	-0.17333	-0.994968	1.881381
H	-0.15594	-2.099124	0.484423
C	0.214594	0.861455	-2.308004
N	0.550557	1.794448	-2.937952
C	-1.703979	-0.592041	-1.933116
H	-2.077629	-1.476098	-1.420243
H	-2.39213	0.210852	-1.685041
H	-1.732338	-0.771949	-3.012051
Cl	-4.227589	0.0	0.0
