18

C	0.0	0.0	0.0
C	-0.364246	0.031068	-1.502687
Cl	1.85719	0.0	0.0
H	0.245012	-0.734329	-1.995904
N	-0.52647	1.127907	0.653631
H	-0.452745	1.077285	1.659197
H	-0.162855	2.004687	0.305952
C	-0.476139	-1.270624	0.671856
H	-0.137813	-2.150557	0.122384
H	-0.074701	-1.325227	1.686967
H	-1.567953	-1.251251	0.717727
C	0.047934	1.319881	-2.068213
N	0.35746	2.362057	-2.51285
C	-1.85125	-0.222812	-1.766371
H	-2.100903	-1.265949	-1.571911
H	-2.504133	0.376642	-1.131533
H	-2.081564	-0.011447	-2.813319
Cl	-4.8162	0.0	0.0
