18

C	0.0	0.0	0.0
C	-0.299378	-0.383708	-1.483033
Cl	1.800476	0.0	0.0
H	0.368355	-1.223722	-1.703974
N	-0.503889	1.318634	0.27585
H	-0.352542	1.534971	1.255988
H	-1.515443	1.290716	0.13225
C	-0.490702	-1.076568	0.954225
H	-1.585029	-1.060196	0.956144
H	-0.132836	-2.068743	0.665613
H	-0.132594	-0.859567	1.964318
C	0.124298	0.70546	-2.372051
N	0.454333	1.528001	-3.14184
C	-1.723045	-0.819915	-1.824261
H	-1.990283	-1.719108	-1.268343
H	-2.478938	-0.076019	-1.586009
H	-1.768066	-1.046088	-2.893754
Cl	-4.303734	0.0	0.0
