16
Coordinates from ORCA-job run
  C   -0.74955665859286     -0.39228649074676     -0.10576194306211
  C   0.71595013462830     -0.43295524514256      0.34483595776167
  Cl  -1.52711933685831     -1.98239469567129      0.34224258004724
  H   1.14839703529162     -1.36278598087044     -0.03109185890484
  N   -1.41875417968587      0.74607073700837      0.35193350987416
  H   -1.45144526968435      0.77595311104799      1.36373777137193
  H   -2.34740746626168      0.82316574139193     -0.04220168198004
  N   -0.80986559486834     -0.39436514243059     -1.63632133566103
  O   -1.75952125722959      0.18490798220071     -2.14707538918152
  O   0.06765250155883     -1.01542876257563     -2.22114949490291
  C   0.72424962510882     -0.46645297742927      1.80822267808628
  N   0.71992262788677     -0.43466665420342      2.98218862324739
  C   1.51860033046854      0.77098036556166     -0.16012510792158
  H   1.56109364336326      0.76717035762547     -1.24893045995948
  H   1.06834859898571      1.70241265726542      0.18027376549107
  H   2.53945526588914      0.70967499696842      0.22022238569376
