16
Coordinates from ORCA-job run
  C   -0.60928210881984     -0.17830189900059     -0.41878724541517
  C   0.55975714714193      0.48247659996232      0.31690500080096
  Cl  0.00319803874357     -1.02157345794398     -1.90480417830957
  H   0.10541146385361      1.17392688161002      1.03355740293119
  N   -1.37732200597713     -0.98912040411577      0.43915885322376
  H   -2.22118584682347     -1.29102852759795     -0.03559674070917
  H   -0.85521229078442     -1.80025791386164      0.74348544079661
  N   -1.58408877152183      0.88680399395787     -0.94314595948092
  O   -1.23987580734090      2.05909769113516     -0.87361591039123
  O   -2.64440352739294      0.46003431596998     -1.38042262198729
  C   1.40693976609116      1.26217655029421     -0.58598653194192
  N   2.16050606795841      1.86209440252319     -1.25674132595901
  C   1.41062104755244     -0.54492151297742      1.07189699246925
  H   2.26870357904808     -0.04378755538589      1.52079233512924
  H   1.78342155127774     -1.31563828949414      0.39549841827292
  H   0.83381169699359     -1.00198087507536      1.87680607057036
