16
Coordinates from ORCA-job run
  C   -0.80433171779680     -0.43262437519948     -0.00416796422115
  C   0.66291870146575     -0.44216565209890      0.44019126981854
  Cl  -1.63246895308899     -1.89806095533113      0.54202417908853
  H   1.09623301810480     -1.37602671892273      0.07218276687118
  N   -1.50390417098787      0.69877444976799      0.43761796291447
  H   -2.48771637432159      0.64400566565244      0.20777632646717
  H   -1.11952289630925      1.54882958976488      0.04603300512555
  N   -0.75556431475394     -0.55244750207803     -1.57114965642031
  O   -0.08074159992207     -1.45931573297094     -2.03868576517294
  O   -1.37536388094956      0.29770998858127     -2.20021985216444
  C   0.72273297575117     -0.44653741063410      1.90117789644326
  N   0.82829673091736     -0.42939914721241      3.07006159430740
  C   1.45302341838933      0.74395691716993     -0.12496514269417
  H   2.50114218627539      0.64631649945519      0.16114850808104
  H   1.40402318439616      0.76460051161075     -1.21538053640068
  H   1.09124369283010      1.69238387244527      0.27635540795653
