16
Coordinates from ORCA-job run
  C   -0.58338845209300     -0.28265472492314     -0.43792148110735
  C   0.56735049627135      0.34967155905825      0.36271731431296
  Cl  -0.02097024662031     -0.98852720011650     -1.94234228644219
  H   0.10323679050526      0.76053090341842      1.26748848627487
  N   -1.24676680279770     -1.26084878860773      0.34375554807830
  H   -1.91888126402477     -1.77981583359577     -0.20836773180341
  H   -1.71591337122471     -0.81481556704736      1.12411681091117
  N   -1.54562072043719      0.91154902410666     -0.77957844284264
  O   -2.11740303189702      1.34975651422636      0.21716227216226
  O   -1.64968942132708      1.32486689382728     -1.92158237992534
  C   1.14548732735826      1.47228417814912     -0.37649559041597
  N   1.63897784118648      2.36797632525929     -0.95373128344371
  C   1.63917264871022     -0.66913020688072      0.75255255731040
  H   2.16896561927467     -1.02863734480315     -0.12889161237811
  H   1.17382953248748     -1.51366655287234      1.25865644962643
  H   2.36061305462805     -0.19853917919869      1.42246136968231
