16
Coordinates from ORCA-job run
  C   -0.77954490851929     -0.31088130684610     -0.15380659310396
  C   0.64323453254192     -0.50677312933234      0.38404742938028
  Cl  -1.74544553815374     -1.81213747364406      0.23106831598726
  H   0.99729403156910     -1.47648938634120      0.02728735399096
  N   -1.35261833027097      0.88991163137916      0.27299875848152
  H   -2.24168904078981      1.06651859957663     -0.17636768348709
  H   -1.44374566361210      0.92090793429916      1.28096683517930
  N   -0.74486078624023     -0.30254269329068     -1.68531812353300
  O   0.09329320900361     -1.01602073102976     -2.22027998279852
  O   -1.58966499141369      0.38122394002321     -2.24815727055449
  C   0.56090093967032     -0.54380991177197      1.84487962362856
  N   0.49435606498033     -0.51374667324625      3.01699520476389
  C   1.59707025660768      0.60660744453065     -0.06290417789269
  H   1.22351181653809      1.58015030141372      0.25170967724575
  H   1.70949583943720      0.59548269997561     -1.14681105896341
  H   2.57941256865158      0.44159875430420      0.38269169167563
