16
Coordinates from ORCA-job run
  C   -0.85030798598981     -0.44270527940109     -0.15457897585973
  C   0.60640944340943     -0.51400398196294      0.37545560564555
  Cl  -1.64250558387105     -1.99057176127356      0.18870073978611
  H   1.03870630971372     -1.45407627227241      0.01994810551256
  N   -1.68143386604058      0.60942520333256      0.29127857417002
  H   -1.36822309586161      1.51360981528218     -0.03241344259138
  H   -1.80333832960468      0.58416353826792      1.29502121428192
  N   -0.68315745498152     -0.30573848809689     -1.67623528796455
  O   -0.98234409197096      0.77526624558060     -2.16954182030901
  O   -0.16825464569323     -1.25385900369175     -2.25215452459674
  C   0.53973923933311     -0.54133592609318      1.83501232437951
  N   0.47191522637291     -0.50668834449505      3.00696751863732
  C   1.46314629353326      0.66421450631800     -0.09733079836534
  H   1.01591359733661      1.61836801480862      0.18721446766388
  H   1.59475298269281      0.63853937263950     -1.17995445087856
  H   2.44998196162158      0.60539236105750      0.36361075048843
