16
Coordinates from ORCA-job run
  C   -0.75674841455557     -0.31339231080241     -0.17413576555525
  C   0.55852155499141     -0.11132844095220      0.59516850863693
  Cl  -0.75278992077013     -1.98667457491412     -0.90225189999085
  H   0.45541775992674     -0.77258178751479      1.46633365365421
  N   -1.86179257982261     -0.04307814054820      0.64373015020507
  H   -1.87265196679154     -0.61842959190411      1.47494397529946
  H   -2.73320322106760     -0.12475572736129      0.13471572045254
  N   -0.89567530208931      0.62320667034083     -1.37767746969084
  O   -2.01522419398140      0.68538230980135     -1.86717893624730
  O   0.10145123443893      1.22277419606013     -1.75633081750487
  C   0.60260308128659      1.26223589278611      1.10529978200773
  N   0.69566699235314      2.35254330974833      1.53024479325146
  C   1.87305931011586     -0.47686898103867     -0.10248146065575
  H   2.68888850036253     -0.33732753267198      0.60913031710302
  H   2.04973932149723      0.15869620298143     -0.96560823368636
  H   1.86373784410572     -1.52040149401042     -0.41290231727920
