16
Coordinates from ORCA-job run
  C   -0.73445635083898     -0.53862976020993      0.02574100552135
  C   0.73620128991262     -0.34176595385065      0.41186037753589
  Cl  -1.32816904047519     -2.10309951010298      0.59994100080642
  H   1.28252252585423     -1.20490598171434      0.02224484609911
  N   -1.56664227390814      0.48640606995136      0.49839573270206
  H   -2.54231691427182      0.28798286470037      0.31770153837228
  H   -1.32940106238119      1.37666328900811      0.07976164124970
  N   -0.72947867965667     -0.65301155474823     -1.54213305467129
  O   0.03947815415365     -1.46491517800114     -2.03780190142089
  O   -1.47723885903393      0.10896577574775     -2.14468979329040
  C   0.85440988876483     -0.34059557729645      1.86919603987011
  N   1.00019046328266     -0.34452362799309      3.03384416772863
  C   1.32638192667194      0.94491034374882     -0.17730444451787
  H   2.38943124215913      0.99505773894128      0.06185851413967
  H   0.85204371197067      1.83116905810745      0.24767331911597
  H   1.22704397779619      0.96129200371167     -1.26428898924073
