16
Coordinates from ORCA-job run
  C   -0.65220833552441     -0.15566591734070     -0.35895124837155
  C   0.62735200760911      0.45018546549237      0.22393647334096
  Cl  -0.23502606091859     -1.22688777999486     -1.76432805915983
  H   0.29825658795021      1.26574905168473      0.87561086427961
  N   -1.43927996160343     -0.77214702773547      0.63260024321877
  H   -0.98371006230147     -1.59444445128159      1.00568795916620
  H   -2.34014553455635     -1.03222411587368      0.24620636269495
  N   -1.54461647401419      0.94399892653670     -0.95361332028992
  O   -2.67146183164908      0.59111529072547     -1.27500441111339
  O   -1.07548685404048      2.07039502603093     -1.04741802327626
  C   1.48732866229197      1.02123117423116     -0.81297325512131
  N   2.25099989516826      1.45257552439317     -1.59300408542844
  C   1.41627295882323     -0.57248720363096      1.04961134104556
  H   2.35278557569767     -0.12346067924900      1.38188326452074
  H   0.85332548502240     -0.86344542520527      1.93735590634082
  H   1.65561394204515     -1.45448785878302      0.45339998815309
