16
Coordinates from ORCA-job run
  C   -0.62792974869060     -0.35155596906301     -0.30820631056292
  C   0.61424233841763      0.38974286531348      0.21345541762270
  Cl  -0.20762681286833     -1.58251707888951     -1.48549054320216
  H   0.23413243870139      1.13021149825439      0.92794299068311
  N   -1.34334140266154     -0.92932589671059      0.76975046450316
  H   -2.08786955972389     -1.53015500738300      0.43720965037749
  H   -1.73010303025396     -0.19747028666681      1.35532924769009
  N   -1.48674862843763      0.74958233454764     -1.02772842438564
  O   -1.59409129766543      0.76513079157569     -2.24204107030372
  O   -1.97761718793831      1.55167654290586     -0.23503815959435
  C   1.26320380778373      1.12730629279215     -0.87136715902658
  N   1.81505502134865      1.71799860626338     -1.72288910476386
  C   1.60089292865729     -0.54292791441149      0.91762819662820
  H   1.08174091566575     -1.10772492899861      1.69075208966806
  H   2.04954453957612     -1.23755567942391      0.20807304268080
  H   2.39651567808912      0.04858382989435      1.37361967198562
