16
Coordinates from ORCA-job run
  C   -0.73464330449829     -0.53694612774197     -0.06335316878263
  C   0.58313532558873     -0.15367498964436      0.64078034988406
  Cl  -0.68657257393250     -2.23483053132878     -0.54173059862792
  H   0.66384897721544     -0.87127091570182      1.46451430866961
  N   -1.84153276476679     -0.31718347054601      0.77984919037447
  H   -1.94867655502642      0.66991759743860      0.98423483719103
  H   -2.69592589657562     -0.67390125502597      0.36971430704734
  N   -0.79967570338705      0.31728137951260     -1.37721848898095
  O   -1.36539770704135      1.39933468379920     -1.24302852993572
  O   -0.24493968647208     -0.09489401971352     -2.38522173810492
  C   0.44205473303994      1.17846291572250      1.23393287066000
  N   0.33855041973476      2.24942396983081      1.70481913772954
  C   1.83553789749025     -0.22017371672412     -0.23595514972856
  H   2.71671261701924     -0.08983122263617      0.39405345744727
  H   1.83633317324431      0.56554815313605     -0.99120857861183
  H   1.90119104836744     -1.18626245037703     -0.73518220623078
