16
Coordinates from ORCA-job run
  C   -0.78250594477434     -0.50125501454167     -0.17762456250919
  C   0.50752602144022     -0.16867271655092      0.62327172716291
  Cl  -0.76342770371835     -2.22297060356914     -0.55580162087398
  H   0.54667162189254     -0.91891043751767      1.42155675560474
  N   -2.03290457242172     -0.17216760812277      0.41692890541023
  H   -2.06207550140195      0.80647248112113      0.67736253863527
  H   -2.21962227692045     -0.76214327015314      1.21675614241820
  N   -0.69515294554319      0.31768812188518     -1.47464185136332
  O   -0.98718925860371      1.50021164212401     -1.32088397890275
  O   -0.29165309756001     -0.20979140455989     -2.49869756919013
  C   0.36778908382883      1.13722748190050      1.26993159323155
  N   0.26502201754653      2.17564675719646      1.80911659327361
  C   1.79503542604645     -0.23466683452770     -0.20239465613155
  H   2.65787388713932     -0.13251433763783      0.45734182445223
  H   1.82957326337107      0.57383507566843     -0.93407279885116
  H   1.86403997967875     -1.18798933271498     -0.72614904236666
