19
Coordinates from ORCA-job run
  C   -0.60737955363131     -0.43888205461099      0.30575251578527
  C   0.81676388577942     -0.29743773396335     -0.25325750081135
  H   -0.56759295984148     -1.25409105273604      1.04199691345775
  H   1.10640585826199     -1.29639952590708     -0.62561795248657
  C   -1.58315513242789     -0.85021785570398     -0.79632349607039
  H   -1.75032680178531     -0.02476711509482     -1.49390940053823
  H   -1.21209553197078     -1.71257726355317     -1.36032501683557
  H   -2.55445608195513     -1.12173841789112     -0.37452869051168
  C   -1.09408788758018      0.82847163845755      1.00438563943129
  H   -0.99644227548298      1.68394830019224      0.33331831693745
  H   -2.14519772044115      0.72855775592273      1.28983266108357
  H   -0.52679314516506      1.03782606523508      1.91392192784201
  C   1.82360555273153      0.10960532136250      0.81325460125159
  H   1.65961484608036      1.14556575323217      1.11608565591398
  H   1.74473717082673     -0.53233641850358      1.69431702633867
  H   2.84574046033686      0.02808810130161      0.43044594629741
  N   0.83705113590848      0.70876283047752     -1.32120465644321
  H   1.79868695421799      0.92343434632950     -1.56076573815248
  H   0.40592122613791      0.33218732545322     -2.15737875248952
