19
Coordinates from ORCA-job run
  C   -0.78996555155212     -0.03719748547173     -0.37647258670321
  C   0.72391170558244     -0.11785488398691     -0.62631686575030
  H   -1.23117848350598      0.13015798191014     -1.36649705106203
  H   0.87225318126441     -0.92576453221120     -1.35485095399899
  C   -1.18855787624637      1.14309721247012      0.50727276076859
  H   -0.76448301651712      1.05872141706619      1.51217291036593
  H   -0.87458339797579      2.09403281682847      0.07131384707317
  H   -2.27588716054489      1.18119626070943      0.61739915220889
  C   -1.34593359477340     -1.34441582143008      0.18484481319953
  H   -2.43917098918674     -1.33717908777444      0.16325568012431
  H   -1.00693218985712     -2.20639561728326     -0.39813093215875
  H   -1.04098878640158     -1.49757178075086      1.22367787871547
  C   1.54309125034282     -0.45619363908428      0.62120434518003
  H   2.60413893390717     -0.51325323578138      0.36181661792729
  H   1.43274639938811      0.31835336882415      1.38582501627904
  H   1.25856242468078     -1.41452771372723      1.06256269831519
  N   1.16505306433150      1.11435297575660     -1.29251120044949
  H   1.27485740675457      1.84783624739400     -0.59995849971782
  H   2.08306668030930      0.96460551654228     -1.69660763031686
