19
Coordinates from ORCA-job run
  C   -0.60511031243164      0.14002411717151      0.36282444128367
  C   0.74722476367099      0.02700408124738     -0.35285130876942
  H   -0.40759057115055      0.62921391206067      1.32587888480539
  H   0.57185830222570     -0.52988327579441     -1.29240637926468
  C   -1.22949221411643     -1.23176921381727      0.61441810577704
  H   -0.63253695315869     -1.84376153489564      1.29277449750935
  H   -1.34636323717036     -1.78214462761514     -0.32545094326774
  H   -2.22230356899271     -1.12576284032408      1.05977817881578
  C   -1.57550826096526      1.01759212592219     -0.42724316047506
  H   -2.55814410062412      1.03753288601576      0.05153413888602
  H   -1.22544388603751      2.04944967997549     -0.49121316702202
  H   -1.71124823240201      0.62863828758608     -1.44315479087840
  C   1.77723466992219     -0.73632249978665      0.46923107691638
  H   2.73915466490938     -0.76487732373696     -0.05247709700546
  H   1.92847921726981     -0.23481941784644      1.42891639952982
  H   1.47667281893314     -1.76864936835122      0.64976790113150
  N   1.28016852833971      1.37150984280996     -0.60034297225421
  H   0.75691074688379      1.82026072430291     -1.34259292771978
  H   2.23703762489459      1.29576444507584     -0.92739087799819
