19
Coordinates from ORCA-job run
  C   -0.70771469562020     -0.04095339358139     -0.38384951204341
  C   0.82180904999099     -0.16964512708590     -0.55434131059874
  H   -1.10018284880313      0.17434896097587     -1.38906707656184
  H   0.99042860761091     -1.04831543288628     -1.19168129112396
  C   -1.11853495852123      1.10916397752014      0.53206336587978
  H   -2.20261357727529      1.24972397639197      0.50787061941721
  H   -0.83815798735055      0.90899272535529      1.56964614672588
  H   -0.66183800012543      2.05570952907079      0.23150527954487
  C   -1.34151996963837     -1.35110780792675      0.08158178634384
  H   -1.02028664384301     -2.19173285976573     -0.54082300102706
  H   -1.07449661590642     -1.57656603210681      1.11748257219842
  H   -2.43255353650040     -1.29569087344706      0.03029351613579
  C   1.56673963696967     -0.39411532675493      0.75505571484434
  H   1.18915182164979     -1.26066059967784      1.30080828330651
  H   1.48565852441009      0.48032638069828      1.40776230850859
  H   2.62558027892251     -0.55197913891214      0.54338694613660
  N   1.45511572382779      0.95589553518458     -1.24548720363161
  H   1.40732962751336      1.78682378433999     -0.66667841602542
  H   0.95708556268892      1.15878172260792     -2.10552872802977
