13

C	-0.488578	0.084832	-1.449498
C	0.0	0.0	0.0
Cl	-0.264908	-1.521971	-2.222618
H	1.093931	0.0	0.0
H	-1.565988	0.269338	-1.484846
H	-0.353637	-0.913636	0.483504
C	0.276216	1.138459	-2.226744
H	0.086355	2.118231	-1.784883
H	-0.035846	1.158438	-3.272287
H	1.34427	0.934239	-2.162985
C	-0.497576	1.154746	0.743195
N	-0.926885	2.098343	1.2951
Cl	3.400068	0.0	0.0
