13

C	-0.529337	-0.04111	-1.434569
C	0.0	0.0	0.0
Cl	-0.072572	1.495529	-2.242744
H	1.092793	0.0	0.0
H	0.000188	-0.824828	-1.980179
H	-0.34286	0.912867	0.496922
C	-2.031994	-0.22373	-1.540209
H	-2.326417	-1.179046	-1.098844
H	-2.54817	0.580563	-1.009169
H	-2.350384	-0.205793	-2.584268
C	-0.483078	-1.156674	0.749433
N	-0.891699	-2.101847	1.314239
Cl	3.383912	0.0	0.0
