13

C	-0.543498	-0.026456	-1.425182
C	0.0	0.0	0.0
Cl	-0.061474	1.472305	-2.282181
H	1.092524	0.0	0.0
H	-0.039293	-0.839734	-1.951518
H	-0.301508	-0.937835	0.483636
C	-2.051604	-0.180602	-1.497427
H	-2.390174	-0.223801	-2.534633
H	-2.356437	-1.100646	-0.990175
H	-2.540074	0.664603	-1.010319
C	-0.548885	1.103435	0.780875
N	-1.040962	1.969382	1.40145
Cl	3.395178	0.0	0.0
