13

C	-0.381023	0.010527	-1.472818
C	0.0	0.0	0.0
Cl	-2.168555	0.196795	-1.686385
H	1.095425	0.0	0.0
H	0.054918	0.908229	-1.914226
H	-0.344607	0.909816	0.497354
C	0.110746	-1.222848	-2.199479
H	1.191081	-1.296542	-2.043599
H	-0.368196	-2.120141	-1.802339
H	-0.100415	-1.155818	-3.26865
C	-0.522268	-1.162719	0.707069
N	-0.959654	-2.09903	1.264293
Cl	3.361538	0.0	0.0
