17

C	0.0	0.0	0.0
C	-0.517743	-0.124075	-1.445691
F	1.359971	0.0	0.0
H	-1.611602	-0.186541	-1.314953
N	-0.544975	1.097383	0.671002
H	-1.578027	0.858594	0.623782
H	-0.395899	1.892469	0.057169
N	-0.351471	-1.270249	0.794234
O	-0.807949	-1.167502	1.920268
O	-0.034522	-2.324782	0.243318
N	-0.037827	-1.353917	-2.188618
O	-0.865423	-2.215796	-2.472314
O	1.146967	-1.378123	-2.532658
N	-0.093574	1.056302	-2.1512
H	0.879497	0.952262	-2.414537
H	-0.654828	1.176744	-2.983544
F	-2.777445	0.0	0.0
