17

C	0.0	0.0	0.0
C	-0.522993	-0.057451	-1.447546
F	1.359982	0.0	0.0
H	-1.617131	-0.127189	-1.313896
N	-0.549841	1.059332	0.725607
H	-0.410138	1.883846	0.149186
H	-1.582041	0.816537	0.666904
N	-0.340575	-1.311385	0.735153
O	-0.843775	-1.268088	1.844661
O	0.030038	-2.33227	0.155839
N	-0.045233	-1.257525	-2.241322
O	1.124231	-1.243257	-2.634605
O	-0.860383	-2.137918	-2.502803
N	-0.102119	1.152911	-2.099479
H	-0.666585	1.311853	-2.923024
H	0.869606	1.060473	-2.372368
F	-2.784111	0.0	0.0
