16

C	-0.287912	0.016215	-1.481229
C	0.0	0.0	0.0
Cl	-2.068243	-0.16115	-1.833219
H	1.091621	0.0	0.0
H	-0.02215	0.997575	-1.86705
C	0.520245	-1.070194	-2.156285
H	1.541495	-0.943841	-1.779463
H	0.485335	-0.975796	-3.244664
H	0.150569	-2.05176	-1.860282
N	-0.486869	-1.159498	0.664205
H	-1.468963	-1.064655	0.891751
H	0.033685	-1.285104	1.521915
N	-0.485954	1.28946	0.612068
O	-0.201297	2.339864	0.0409
O	-1.127469	1.237	1.66614
F	2.593698	0.0	0.0
