16

C	-0.369338	0.072489	-1.492758
C	0.0	0.0	0.0
Cl	-0.144904	-1.56336	-2.219158
H	1.090575	0.0	0.0
H	-1.429296	0.302577	-1.639183
C	0.571479	1.052924	-2.172811
H	1.580495	0.825466	-1.813942
H	0.503203	0.989206	-3.259775
H	0.321534	2.073055	-1.865898
N	-0.541135	-1.064034	0.788094
H	0.146373	-1.803324	0.809926
H	-1.413284	-1.419527	0.417928
N	-0.539898	1.291519	0.55939
O	0.235695	2.206444	0.826089
O	-1.766996	1.360217	0.697164
F	2.640395	0.0	0.0
