16

C	-0.407237	0.049073	-1.477927
C	0.0	0.0	0.0
Cl	-0.079822	-1.565397	-2.213708
H	1.090576	0.0	0.0
H	-1.483692	0.197717	-1.593211
C	0.428145	1.095364	-2.185726
H	0.118877	2.093594	-1.864737
H	0.32168	1.029971	-3.270117
H	1.463473	0.935673	-1.871719
N	-0.515374	-1.068076	0.802999
H	-1.349137	-1.48496	0.414202
H	0.209852	-1.768182	0.870617
N	-0.548568	1.288755	0.557929
O	0.22142	2.215178	0.803811
O	-1.774673	1.348014	0.709957
F	2.625161	0.0	0.0
