16

C	-0.374708	0.07276	-1.490386
C	0.0	0.0	0.0
Cl	-0.128932	-1.554458	-2.225291
H	1.090581	0.0	0.0
H	-1.437018	0.287372	-1.633872
C	0.549603	1.066157	-2.171225
H	0.284739	2.08014	-1.862192
H	0.482244	1.003581	-3.260164
H	1.562517	0.852321	-1.812671
N	-0.538072	-1.066515	0.787462
H	0.155803	-1.799377	0.815612
H	-1.402845	-1.431888	0.41081
N	-0.539458	1.290404	0.563155
O	0.23637	2.20485	0.830371
O	-1.765797	1.358954	0.704422
F	2.637517	0.0	0.0
