16

C	-0.269434	-0.0384	-1.489941
C	0.0	0.0	0.0
Cl	-2.037091	-0.316328	-1.860389
H	1.093227	0.0	0.0
H	-0.045265	0.940346	-1.908092
C	0.590813	-1.112267	-2.123557
H	0.562976	-1.05444	-3.212032
H	0.256973	-2.106738	-1.818429
H	1.601466	-0.937503	-1.73805
N	-0.439178	-1.11326	0.767133
H	0.327616	-1.7605	0.875985
H	-1.260355	-1.566884	0.391892
N	-0.519969	1.295715	0.556849
O	-1.166491	1.297649	1.600898
O	-0.238802	2.316813	-0.078501
F	2.601564	0.0	0.0
