14
Coordinates from ORCA-job run
  C   -0.65271090897976      0.22216521024111      0.16539315489538
  C   0.66181085555217     -0.35460265124167      0.72140698983604
  Cl  -1.93352019433951      0.03835847830525      1.31772996669984
  H   0.76974207792297      0.06493113727479      1.72804906144394
  N   -0.99912130432837     -0.43335770893966     -1.17883976502605
  O   -0.05366333271004     -0.44892519677773     -1.95583170719357
  O   -2.13135079682878     -0.84327625726451     -1.35346251190414
  N   -0.47060282003057      1.71413134292614     -0.13075368889725
  O   -1.07892880677633      2.15802476515414     -1.09089243799094
  O   0.22873771420397      2.31437100170211      0.67227667816840
  C   1.85339966493432      0.02376706585078     -0.04291891565974
  N   2.85125485298574      0.33146919252761     -0.58024474175517
  C   0.53508267414341     -1.81071593256636      0.82209335085875
  N   0.41887032425078     -2.97634044719200      0.90499456652449
