14
Coordinates from ORCA-job run
  C   -0.64555844993105      0.23772433605062      0.16879722438820
  C   0.66294294442195     -0.35595228480568      0.72173518648120
  Cl  -1.91814971217855      0.09812053496418      1.33662549731606
  H   0.78845790268854      0.07618195534226      1.72088600082393
  N   -1.01945871263961     -0.43259654029473     -1.16093778497745
  O   -2.16600592409432     -0.80622849557521     -1.32320659005055
  O   -0.07950285484096     -0.49298064607350     -1.94239756431616
  N   -0.43734514538837      1.72040543245923     -0.15397989474505
  O   -1.04673496159525      2.16055621353820     -1.11540083282045
  O   0.28005742315679      2.32044794607538      0.63320442564548
  C   1.85374525725153     -0.01290731339540     -0.06036698568234
  N   2.85004211386098      0.26523900189336     -0.61617310908398
  C   0.50811424483897     -1.80770775091906      0.84494331619556
  N   0.36839587444935     -2.96930238925963      0.94627111082554
