14
Coordinates from ORCA-job run
  C   -0.69904331147524      0.09077373417363      0.06141091000850
  C   0.47446178907168     -0.87125187213768      0.31932599979603
  Cl  -2.08743285421232     -0.38204557566678      0.98435051163592
  H   0.06290794892347     -1.88050550218245      0.20528627371716
  N   -1.06605800874891      0.05981266263482     -1.42572231952333
  O   -0.99079428356235     -1.04239894294082     -1.94895439534423
  O   -1.44746459376450      1.11012823465126     -1.91628259644209
  N   -0.28446580624894      1.53818027909875      0.36118090210176
  O   -1.03089586816510      2.23263662043820      1.02527002299285
  O   0.78762525160464      1.83963855818714     -0.14631835836871
  C   0.93650690234095     -0.69594457376575      1.69855989279142
  N   1.29029376755810     -0.55104857477270      2.80895212401638
  C   1.57991704319111     -0.73664269269111     -0.63332106739466
  N   2.47444202348741     -0.71333235502651     -1.39373789998700
