14
Coordinates from ORCA-job run
  C   -0.63792182507002      0.23780478980501      0.20042818481293
  C   0.67587461749981     -0.40684282677195      0.67828557579094
  Cl  -1.87973544661009      0.04420140892404      1.39318914471063
  H   0.83808529170925     -0.03596095529241      1.69652651824227
  N   -1.05526836097478     -0.34684032098452     -1.15627691771587
  O   -0.14783739734657     -0.32934987470817     -1.97734131491652
  O   -2.19702213291566     -0.74381259380037     -1.29516237437939
  N   -0.41739050844445      1.73456458745833     -0.03742101711251
  O   -1.05734517634729      2.24251176547150     -0.94358844922041
  O   0.34190847557428      2.27363398155744      0.75464558875695
  C   1.84954058598126     -0.03773810485526     -0.11745412560481
  N   2.83731531751624      0.25536580393577     -0.68093270254951
  C   0.50130628000795     -1.86086628000689      0.72256382857898
  N   0.34949027942007     -3.02467138073251      0.76353806060633
