14
Coordinates from ORCA-job run
  C   -0.58263294062507      0.07030203149842      0.08696509400220
  C   0.89804734228786     -0.33070559020308      0.15876167564750
  Cl  -1.60315663222442     -0.91265004107814      1.06188075822396
  H   1.46388391049790      0.40927968129727     -0.41698412037220
  N   -0.98733684496191      0.03620070166754     -1.40527928803199
  O   -0.29197197728783      0.77335939625917     -2.09406760798098
  O   -1.90432166290220     -0.68298507641752     -1.74949672544636
  N   -0.75092771960042      1.55096498512979      0.45885178581306
  O   -1.89501083719514      1.97001413577863      0.39258051793881
  O   0.26571480420283      2.16627545590655      0.74952105708019
  C   1.06031811301548     -1.64952741809931     -0.45962513803441
  N   1.17979499929434     -2.69903070444523     -0.97295683684462
  C   1.37555186379307     -0.33623955269816      1.54185470230335
  N   1.77104758170552     -0.36425800459593      2.64699412570151
