13

C	-0.453621	0.005281	-1.420619
C	0.0	0.0	0.0
Cl	-2.235441	-0.100212	-1.614971
H	1.092649	0.0	0.0
H	-0.121226	0.888874	-1.954322
H	-0.371266	-0.852062	0.561287
N	0.121852	-1.17819	-2.1459
O	0.085645	-2.262563	-1.576302
O	0.55871	-0.966828	-3.274687
N	-0.412134	1.217391	0.662954
O	-0.675864	1.154403	1.870794
O	-0.35694	2.273738	0.014803
H	2.549081	0.0	0.0
