13

C	-0.518806	0.005452	-1.398432
C	0.0	0.0	0.0
Cl	-0.047741	1.506982	-2.217725
H	1.090913	0.0	0.0
H	-0.164394	-0.835294	-1.986585
H	-0.334991	0.855654	0.580809
N	-2.033809	-0.069148	-1.465391
O	-2.673041	0.439215	-0.550162
O	-2.51095	-0.604268	-2.462072
N	-0.421895	-1.204474	0.689452
O	-0.309252	-1.222739	1.918215
O	-0.769163	-2.181062	0.000673
H	2.562793	0.0	0.0
