13

C	-0.477936	-0.10071	-1.419406
C	0.0	0.0	0.0
Cl	0.167851	1.101468	-2.525557
H	1.087972	0.0	0.0
H	-0.160401	-1.078999	-1.787268
H	-0.300971	-0.886414	0.555887
N	-2.001096	-0.155814	-1.495577
O	-2.490837	-1.085475	-0.853712
O	-2.626472	0.661159	-2.154413
N	-0.510365	1.148778	0.733412
O	-0.343657	1.123258	1.956824
O	-1.009587	2.097037	0.11162
H	2.599079	0.0	0.0
