18

C	-0.497334	-0.01225	-1.434015
C	0.0	0.0	0.0
F	0.165373	-1.006322	-2.102416
H	1.088562	0.0	0.0
N	-1.87723	-0.222494	-1.609102
H	-2.375114	0.500557	-1.1054
H	-2.089228	-0.145729	-2.597912
N	-0.021289	1.27015	-2.18034
O	0.86361	1.94648	-1.679197
O	-0.572847	1.477673	-3.260811
C	-0.497237	-1.201737	0.784447
H	-0.209144	-2.105309	0.247026
H	-1.58297	-1.190945	0.901222
H	-0.008924	-1.208387	1.759059
N	-0.440622	1.238803	0.704163
O	0.11498	1.502432	1.764037
O	-1.367274	1.900146	0.21516
Cl	3.306449	0.0	0.0
