18

C	-0.394163	0.061309	-1.489278
C	0.0	0.0	0.0
F	-1.639712	0.599841	-1.618131
H	1.089807	0.0	0.0
N	0.500475	0.716507	-2.371035
H	0.574413	1.673031	-2.03845
H	1.421855	0.302238	-2.232401
N	-0.505279	-1.387802	-1.972298
O	0.554833	-1.951932	-2.214064
O	-1.625484	-1.879863	-2.041642
C	-0.569826	-1.152664	0.791917
H	-1.659165	-1.190498	0.73759
H	-0.268086	-1.057674	1.833622
H	-0.149531	-2.083711	0.409003
N	-0.397612	1.317674	0.595847
O	-0.032842	2.333402	0.005156
O	-1.046945	1.322114	1.64007
Cl	3.261728	0.0	0.0
