18

C	-0.627687	-0.014272	-1.382152
C	0.0	0.0	0.0
F	-0.127424	-1.135011	-2.045872
H	1.090532	0.0	0.0
N	-2.032444	0.004592	-1.333652
H	-2.375621	-0.877746	-0.980327
H	-2.413225	0.203763	-2.249253
N	-0.166854	1.123828	-2.296671
O	-0.999235	1.569593	-3.087067
O	1.012741	1.419464	-2.241892
C	-0.426611	-1.223798	0.797433
H	-1.484251	-1.195812	1.070653
H	-0.207638	-2.116333	0.210256
H	0.163184	-1.267466	1.710579
N	-0.426768	1.246201	0.709806
O	-0.570445	1.18784	1.929259
O	-0.564942	2.266937	0.038984
Cl	3.295095	0.0	0.0
