18

C	-0.334741	-0.006372	-1.480722
C	0.0	0.0	0.0
F	-0.050654	1.243037	-1.983826
H	1.093279	0.0	0.0
N	0.384274	-1.039807	-2.10372
H	0.324755	-0.958587	-3.11237
H	1.360553	-0.988012	-1.808577
N	-1.824623	-0.215721	-1.805773
O	-2.333636	-1.233701	-1.351663
O	-2.383782	0.611063	-2.516011
C	-0.477534	-1.173507	0.836375
H	0.024725	-1.116146	1.80482
H	-1.558126	-1.163918	0.971084
H	-0.187492	-2.10287	0.34867
N	-0.514805	1.25257	0.61641
O	-1.694754	1.53192	0.378464
O	0.227334	1.883367	1.361274
Cl	3.30961	0.0	0.0
