15

C	-0.532021	0.016945	-1.399728
C	0.0	0.0	0.0
F	-1.910213	-0.060596	-1.438855
H	1.092021	0.0	0.0
H	-0.31514	-0.962164	0.420315
N	-0.178353	1.339695	-2.085341
O	-0.978619	2.25633	-1.936334
O	0.889412	1.382092	-2.68048
C	-0.014878	-1.069163	-2.244291
N	0.294556	-1.987052	-2.907844
C	-0.497834	1.160866	0.851692
H	-0.187413	0.979187	1.883349
H	-1.583063	1.284753	0.823886
H	-0.02977	2.09671	0.540281
H	2.84774	0.0	0.0
