15

C	-0.496667	-0.035258	-1.405789
C	0.0	0.0	0.0
F	-1.872043	0.129628	-1.487579
H	1.09237	0.0	0.0
H	-0.340771	0.952207	0.41842
N	0.081474	1.152517	-2.177958
O	0.88517	0.922941	-3.072876
O	-0.31492	2.251312	-1.809893
C	-0.169155	-1.268713	-2.134421
N	0.019786	-2.298387	-2.666358
C	-0.491263	-1.1864	0.817902
H	-0.118123	-1.078945	1.839033
H	-1.581877	-1.264	0.84877
H	-0.079274	-2.11985	0.426312
H	2.841508	0.0	0.0
