15

C	-0.510619	0.005177	-1.415675
C	0.0	0.0	0.0
F	-0.141033	1.143143	-2.06432
H	1.094183	0.0	0.0
H	-0.32662	0.959369	0.418362
N	0.067321	-1.170978	-2.214224
O	-0.447514	-2.260667	-1.975582
O	0.979753	-0.939221	-2.986223
C	-1.978908	-0.116527	-1.518019
N	-3.153668	-0.149962	-1.544606
C	-0.487668	-1.160227	0.856604
H	-0.091934	-2.107346	0.488363
H	-1.578046	-1.235029	0.91518
H	-0.092533	-1.017295	1.864852
H	2.85554	0.0	0.0
