15

C	-0.542279	-0.025679	-1.395725
C	0.0	0.0	0.0
F	-1.913699	-0.179329	-1.419808
H	1.092049	0.0	0.0
H	-0.311762	-0.951288	0.44733
N	-0.268638	1.31049	-2.092529
O	0.813495	1.423081	-2.65098
O	-1.13837	2.166802	-1.988771
C	0.02963	-1.087882	-2.235464
N	0.430336	-1.999529	-2.857052
C	-0.501341	1.183203	0.817969
H	-0.038778	2.111184	0.475074
H	-1.587242	1.300757	0.790979
H	-0.185471	1.03674	1.853335
H	2.852484	0.0	0.0
