17

C	-0.582232	-0.050737	-1.406999
C	0.0	0.0	0.0
Br	0.336005	1.392655	-2.540422
H	1.093736	0.0	0.0
C	-0.240833	-1.299554	-2.093696
N	0.004699	-2.266973	-2.713309
N	-1.997588	0.120161	-1.438417
H	-2.234455	1.023948	-1.048362
H	-2.348405	0.074434	-2.387948
N	-0.380031	-1.261622	0.638341
H	0.419737	-1.571857	1.17694
H	-1.183386	-1.157823	1.246313
C	-0.453624	1.230211	0.774146
H	0.155848	1.284325	1.679469
H	-0.281332	2.152827	0.213079
H	-1.511112	1.182695	1.074845
F	2.624297	0.0	0.0
