17

C	-0.533556	-0.035641	-1.434806
C	0.0	0.0	0.0
Br	-0.108194	1.631011	-2.412017
H	1.098849	0.0	0.0
C	0.156439	-1.098152	-2.191128
N	0.605879	-1.989479	-2.81339
N	-1.971717	-0.205607	-1.449043
H	-2.285244	-0.438515	-2.385113
H	-2.128011	-1.008207	-0.840564
N	-0.413992	-1.310353	0.571483
H	0.44993	-1.818526	0.732426
H	-0.844713	-1.163089	1.477393
C	-0.552122	1.148599	0.819431
H	-0.060559	1.125411	1.796292
H	-0.322007	2.110744	0.361506
H	-1.638023	1.080685	0.956253
F	2.635156	0.0	0.0
