17

C	-0.530478	-0.032908	-1.429239
C	0.0	0.0	0.0
Br	0.38211	1.463372	-2.495804
H	1.093683	0.0	0.0
C	-0.121748	-1.25601	-2.126826
N	0.155327	-2.194364	-2.776944
N	-1.949449	0.093015	-1.513481
H	-2.260881	0.046149	-2.476995
H	-2.228554	0.986181	-1.126323
N	-0.393041	-1.274925	0.596788
H	0.368105	-1.580032	1.189577
H	-1.247481	-1.203006	1.13647
C	-0.482426	1.214611	0.779214
H	0.066649	1.236315	1.723625
H	-0.265393	2.149463	0.25589
H	-1.557327	1.173623	1.012738
F	2.618809	0.0	0.0
