17

C	-0.573035	-0.052741	-1.420421
C	0.0	0.0	0.0
Br	-0.017435	1.540306	-2.444691
H	1.099425	0.0	0.0
C	-0.009593	-1.205687	-2.13402
N	0.404599	-2.143979	-2.706022
N	-2.029315	-0.141663	-1.522053
H	-2.407311	0.72544	-1.154523
H	-2.268833	-0.882175	-0.861402
N	-0.449362	-1.284674	0.602165
H	-0.719868	-1.123272	1.562846
H	0.378669	-1.867135	0.637396
C	-0.520685	1.166859	0.813639
H	-0.346968	2.119533	0.312146
H	-1.59159	1.078247	1.04761
H	0.03644	1.190784	1.754399
F	2.63269	0.0	0.0
