17

C	-0.538231	-0.03259	-1.426148
C	0.0	0.0	0.0
Br	0.37624	1.4585	-2.499787
H	1.093656	0.0	0.0
C	-0.136438	-1.256062	-2.125104
N	0.154449	-2.202696	-2.757168
N	-1.95613	0.101066	-1.503453
H	-2.229443	0.993929	-1.111709
H	-2.271604	0.059979	-2.465596
N	-0.394608	-1.272579	0.60266
H	0.376937	-1.58425	1.179859
H	-1.234616	-1.188427	1.162936
C	-0.475923	1.216627	0.780234
H	0.081801	1.239003	1.719839
H	-1.548856	1.177939	1.022957
H	-0.260833	2.149465	0.252656
F	2.62469	0.0	0.0
