14

C	-0.303736	-0.030487	-1.478613
C	0.0	0.0	0.0
Cl	-2.076977	-0.432553	-1.782882
H	1.087759	0.0	0.0
H	-0.351827	-0.920479	0.458837
C	-0.090481	1.236452	-2.202251
N	0.120697	2.133402	-2.932713
N	0.518386	-1.090121	-1.990739
H	0.575872	-1.03704	-3.00027
H	1.458647	-0.961976	-1.583118
N	-0.538772	1.116471	0.754445
O	-0.905981	0.883119	1.911807
O	-0.522457	2.240074	0.243445
H	2.615536	0.0	0.0
