14

C	-0.554235	0.196027	-1.408863
C	0.0	0.0	0.0
Cl	0.437924	1.377341	-2.335465
H	1.088342	0.0	0.0
H	-0.284936	-0.973479	0.400486
C	-0.433788	-1.09718	-2.102162
N	-0.396704	-2.148689	-2.624093
N	-1.941919	0.627947	-1.534511
H	-1.999919	1.509408	-1.031772
H	-2.516403	-0.047778	-1.037705
N	-0.434246	0.989521	0.936411
O	-0.41682	0.67481	2.140691
O	-0.658705	2.150541	0.529706
H	2.463703	0.0	0.0
