14

C	-0.276552	-0.037691	-1.499527
C	0.0	0.0	0.0
Cl	-2.013242	-0.462004	-1.855123
H	1.092288	0.0	0.0
H	-0.418988	0.865463	0.506431
C	-0.088678	1.336047	-1.995648
N	0.054042	2.437129	-2.378836
N	0.579266	-0.920816	-2.252235
H	0.406243	-1.851348	-1.880514
H	1.52631	-0.682373	-1.930219
N	-0.426687	-1.185928	0.713744
O	-0.289896	-2.286824	0.163392
O	-0.815705	-1.044212	1.87811
H	2.593954	0.0	0.0
