14

C	-0.372738	-0.034287	-1.473692
C	0.0	0.0	0.0
Cl	0.21134	-1.537029	-2.264205
H	1.090636	0.0	0.0
H	-0.297839	0.964257	0.416861
C	-1.82086	0.064641	-1.701621
N	-2.976165	0.219391	-1.850763
N	0.309863	1.06655	-2.141549
H	-0.032586	1.934724	-1.737895
H	1.292807	0.975779	-1.862398
N	-0.575136	-1.014608	0.876819
O	-1.10799	-2.01534	0.385563
O	-0.449819	-0.811096	2.087997
H	2.642715	0.0	0.0
