14

C	-0.335382	0.181779	-1.483242
C	0.0	0.0	0.0
Cl	-0.165122	-1.472162	-2.204911
H	1.100862	0.0	0.0
H	-0.400806	-0.903053	0.451953
C	-1.731537	0.587145	-1.710386
N	-2.852566	0.897704	-1.873799
N	0.561292	1.06551	-2.189104
H	1.500102	0.812513	-1.860959
H	0.380461	1.9933	-1.816699
N	-0.4172	1.128716	0.807152
O	-0.464793	2.250982	0.275339
O	-0.599303	0.929887	2.013648
H	2.598807	0.0	0.0
