14

C	-0.491422	0.020798	-1.428619
C	0.0	0.0	0.0
Br	0.260726	-1.371663	-2.479588
H	1.090914	0.0	0.0
H	-0.344575	0.90673	0.501687
N	-2.031786	-0.023624	-1.441194
O	-2.608081	-1.016274	-1.851605
O	-2.545093	0.984613	-0.964663
N	-0.197592	1.369552	-2.096583
O	0.370053	2.218006	-1.426233
O	-0.604689	1.481812	-3.246041
C	-0.519436	-1.173192	0.689084
N	-0.96337	-2.0998	1.257721
Cl	3.231193	0.0	0.0
