14

C	0.0	0.0	0.0
C	-0.311255	-0.243581	-1.507641
F	1.350967	0.0	0.0
H	0.546726	0.239299	-1.99406
N	-0.347161	1.420382	0.412787
O	-0.365677	2.24635	-0.491604
O	-0.387137	1.638503	1.61431
C	-0.472841	-0.982981	0.968241
N	-0.481693	-1.849634	1.766441
C	-1.476053	0.31647	-2.205029
N	-2.081383	0.724334	-3.129898
C	-0.183499	-1.678999	-1.784409
N	-0.01947	-2.812429	-2.043551
Cl	-2.896644	0.0	0.0
