15

C	-0.606268	0.163724	-1.390295
C	0.0	0.0	0.0
Br	0.101165	1.721452	-2.28752
H	1.091049	0.0	0.0
H	-0.381433	-0.933614	0.410389
N	-0.169753	-1.112116	-2.176376
O	0.351163	-1.015603	-3.273415
O	-0.487109	-2.153364	-1.61107
N	-2.036688	0.157437	-1.423276
H	-2.40473	1.047535	-1.72419
H	-2.408654	-0.074153	-0.511238
N	-0.529169	1.070775	0.881729
O	0.116986	2.104209	1.015332
O	-1.623568	0.847927	1.421398
Cl	3.300852	0.0	0.0
