15

C	-0.305605	0.486933	-1.401097
C	0.0	0.0	0.0
Br	-0.522919	-1.2696	-2.539849
H	1.102248	0.0	0.0
H	-0.428483	-0.961232	0.251171
N	-1.70286	1.063318	-1.578419
O	-2.563196	0.680827	-0.797901
O	-1.860022	1.843667	-2.509064
N	0.637233	1.346183	-1.867245
H	1.590433	1.107342	-1.593322
H	0.513231	1.676297	-2.810902
N	-0.437787	0.964391	1.046078
O	-0.506398	2.157218	0.756362
O	-0.660308	0.486884	2.156687
Cl	3.273645	0.0	0.0
