15

C	-0.347255	-0.038137	-1.470312
C	0.0	0.0	0.0
Br	-2.232029	-0.451497	-1.832749
H	1.09243	0.0	0.0
H	-0.330568	-0.935353	0.452826
N	-0.071119	1.328692	-2.156105
O	-0.328835	1.389515	-3.354398
O	0.488171	2.19137	-1.492784
N	0.465936	-1.037832	-2.047249
H	0.378664	-1.042903	-3.056181
H	1.438908	-0.911541	-1.753122
N	-0.582099	1.087795	0.814991
O	-1.488635	1.771486	0.341491
O	-0.14522	1.181231	1.95846
Cl	3.268894	0.0	0.0
