15

C	-0.638381	0.174141	-1.379495
C	0.0	0.0	0.0
Br	0.295843	1.442753	-2.477953
H	1.10344	0.0	0.0
H	-0.3699	-0.928755	0.432393
N	-0.570772	-1.229178	-2.031638
O	0.104612	-1.426346	-3.025401
O	-1.270196	-2.062165	-1.452482
N	-2.045025	0.496878	-1.396704
H	-2.16129	1.475102	-1.162387
H	-2.518774	-0.075455	-0.70421
N	-0.494549	1.065025	0.903444
O	-1.090583	0.706326	1.922419
O	-0.306731	2.235973	0.580822
Cl	3.269694	0.0	0.0
