15

C	-0.483405	0.00254	-1.427115
C	0.0	0.0	0.0
Br	-2.614225	-0.028387	-1.338027
H	1.092442	0.0	0.0
H	-0.391627	0.85084	0.544516
N	-0.296353	1.3794	-2.063834
O	-0.174673	2.340569	-1.318256
O	-0.30003	1.404352	-3.28832
N	0.058067	-0.935553	-2.239361
H	-0.234263	-0.918959	-3.202603
H	0.188804	-1.837224	-1.80527
N	-0.438507	-1.216979	0.724299
O	-0.305559	-2.307359	0.164815
O	-0.862876	-1.067048	1.865723
Cl	3.232006	0.0	0.0
