15

C	0.0	0.0	0.0
C	-0.596205	0.239365	-1.398318
F	1.418796	0.0	0.0
H	-1.417311	0.944759	-1.274354
H	-0.296524	-0.988339	0.353072
N	-0.445946	0.996712	0.894149
H	-0.001354	0.897104	1.796038
H	-0.258324	1.915016	0.51437
N	-1.096302	-0.889219	-2.104634
H	-2.040978	-1.033477	-1.750575
H	-0.536146	-1.714781	-1.942009
N	0.469188	0.958929	-2.191323
O	1.139227	0.325571	-2.997181
O	0.626809	2.150443	-1.916043
Cl	-3.690829	0.0	0.0
