15

C	0.0	0.0	0.0
C	-0.342877	-0.096105	-1.488649
F	1.400614	0.0	0.0
H	0.186995	0.712708	-1.998973
H	-0.36033	-0.879404	0.535428
N	-0.519022	1.194642	0.54934
H	0.130838	1.96269	0.487206
H	-0.931838	1.100297	1.461287
N	-1.700989	-0.164377	-1.870156
H	-2.37509	-0.363405	-1.125777
H	-2.002263	0.705264	-2.283979
N	0.374653	-1.347083	-1.993125
O	1.171139	-1.223567	-2.923025
O	0.088065	-2.40849	-1.445779
Cl	-4.319701	0.0	0.0
