15

C	0.0	0.0	0.0
C	-0.449445	0.031573	-1.463646
F	1.403807	0.0	0.0
H	0.399683	0.372634	-2.065423
H	-0.281129	-0.935017	0.481023
N	-0.541799	1.080581	0.705568
H	-0.536215	1.953411	0.204941
H	-0.217525	1.151034	1.655479
N	-1.581148	0.832726	-1.693716
H	-2.378618	0.575296	-1.093996
H	-1.865774	0.776753	-2.662303
N	-0.585742	-1.435519	-1.976078
O	0.036651	-2.32743	-1.404526
O	-1.243832	-1.581464	-3.001733
Cl	-4.240229	0.0	0.0
