15

C	0.0	0.0	0.0
C	-0.369247	0.343268	-1.481931
F	1.385996	0.0	0.0
H	0.588637	0.661387	-1.90572
H	-0.306898	-1.01302	0.274798
N	-0.478294	1.039711	0.85906
H	-1.499053	0.989751	0.815119
H	-0.215616	0.809181	1.811269
N	-1.369356	1.308779	-1.792515
H	-1.110573	2.163563	-1.311648
H	-2.264708	1.001217	-1.401556
N	-0.653663	-0.951949	-2.216192
O	-1.607194	-1.015073	-2.977778
O	0.150583	-1.863018	-2.008718
Cl	-3.65195	0.0	0.0
