15

C	0.0	0.0	0.0
C	-0.246258	0.008895	-1.533464
F	1.415509	0.0	0.0
H	0.582268	-0.540919	-1.986428
H	-0.349343	-0.933995	0.435605
N	-0.550192	1.092829	0.65561
H	-0.983171	0.936962	1.545886
H	-0.101276	1.97984	0.521872
N	-0.336041	1.302486	-2.1406
H	0.52606	1.802683	-1.95817
H	-1.11559	1.795668	-1.71713
N	-1.440687	-0.821977	-1.928387
O	-2.259176	-0.345311	-2.696406
O	-1.418742	-1.975372	-1.504775
Cl	-4.052526	0.0	0.0
