15

C	0.0	0.0	0.0
C	-0.34792	-0.154267	-1.477722
F	1.411385	0.0	0.0
H	0.402137	0.371074	-2.075769
H	-0.303747	-0.878446	0.565765
N	-0.574013	1.139241	0.548372
H	-0.450615	1.999341	0.045228
H	-0.540643	1.221758	1.548115
N	-1.645539	0.257269	-1.80487
H	-2.398403	0.029131	-1.144651
H	-1.901772	0.047756	-2.758626
N	-0.02638	-1.626855	-1.861698
O	0.420152	-1.790491	-3.000199
O	-0.294894	-2.535291	-1.079911
Cl	-4.329031	0.0	0.0
