16
Coordinates from ORCA-job run
  C   0.75239421166733     -0.28070931488041      0.16274870728406
  C   -0.77608836247740     -0.23401501511327      0.09841588329600
  Cl  1.08767675736924     -2.09560971581526     -0.36853369627014
  H   -1.20320650989978     -0.93291666070929      0.81162637689005
  N   1.12911353479944     -0.10164311564951      1.51292263888333
  H   2.05904361228869      0.28213759617063      1.60393870904069
  H   1.02994479525438     -0.94064444799846      2.06616251495416
  N   1.38311903202929      0.65224908805708     -0.66098025707794
  H   0.99411664832833      0.66662450301675     -1.59341008986744
  H   2.38335073640911      0.50417210893739     -0.69413403563898
  N   -1.38329090062240     -0.56391083842127     -1.22985591396399
  O   -2.46075065081159     -1.14995993057607     -1.17551863916997
  O   -0.80374317915466     -0.19937121682755     -2.24769958328651
  N   -1.27730402198550      1.13679833717547      0.47700050100528
  O   -1.24289426311662      2.00042321717688     -0.39136405820072
  O   -1.67048144007785      1.25437540545688      1.63068094212212
