16
Coordinates from ORCA-job run
  C   0.64439175042637     -0.20445947168228      0.37340304980837
  C   -0.56238398949315      0.13996496340743     -0.53052691400628
  Cl  0.00129037791007     -0.64452380965404      2.03468330982593
  H   -0.22490713212406      0.10096130843422     -1.56558787278679
  N   1.45674995775844      0.97301755823098      0.46562674725101
  H   1.53422404411482      1.33420084273672      1.40342033629931
  H   2.36010067190563      0.81715436331254      0.04246091584103
  N   1.37111117790868     -1.25979891786815     -0.23826816369425
  H   2.13176771706554     -1.54563370750997      0.36759682302553
  H   0.77445816511828     -2.05623843037496     -0.42731950467271
  N   -1.06474491061169      1.52144782188275     -0.28991820631283
  O   -1.18158945227496      2.21736786831323     -1.29549222247802
  O   -1.32900366121072      1.83986963181964      0.86045716702596
  N   -1.70143901355252     -0.83120617545135     -0.41265206870097
  O   -1.39447366465660     -1.99793534372559     -0.64092934271790
  O   -2.81555203828413     -0.40718850187117     -0.14595405370738
