13

C	0.0	0.0	0.0
C	-0.535914	-0.828652	-1.169831
F	1.381141	0.0	0.0
H	0.345826	-1.18712	-1.712807
H	-0.33188	-0.425489	0.948127
H	-0.330143	1.035489	-0.086053
N	-1.279646	0.047455	-2.074392
H	-1.51081	-0.475829	-2.911515
H	-2.169168	0.267307	-1.621882
N	-1.237905	-2.00406	-0.645027
H	-1.522841	-2.57775	-1.432252
H	-2.105635	-1.662318	-0.22879
Cl	-3.984193	0.0	0.0
