13

C	0.0	0.0	0.0
C	-0.546478	0.832829	-1.162361
F	1.381142	0.0	0.0
H	0.328289	1.181865	-1.722132
H	-0.329324	0.416776	0.952886
H	-0.332592	-1.033397	-0.096368
N	-1.226516	2.014713	-0.623065
H	-1.515802	2.597071	-1.401725
H	-2.092779	1.685025	-0.195081
N	-1.318622	-0.039686	-2.045977
H	-1.574991	0.484296	-2.875271
H	-2.194501	-0.257249	-1.56633
Cl	-4.019783	0.0	0.0
