13

C	0.0	0.0	0.0
C	-0.514628	0.184345	-1.423025
F	1.385919	0.0	0.0
H	-1.543356	0.540811	-1.33874
H	-0.334096	0.83027	0.626989
H	-0.351834	-0.936699	0.433191
N	-0.427723	-1.096361	-2.130032
H	-0.672739	-0.897301	-3.093991
H	-1.173065	-1.679752	-1.75979
N	0.257733	1.155682	-2.19142
H	1.240711	0.981718	-2.012865
H	0.043514	2.084867	-1.848568
Cl	-3.611592	0.0	0.0
