13

C	0.0	0.0	0.0
C	-0.453677	0.319047	-1.424959
F	1.392122	0.0	0.0
H	0.33981	-0.091832	-2.06398
H	-0.331634	-0.998032	0.29053
H	-0.349046	0.741697	0.721817
N	-0.499851	1.761636	-1.726664
H	0.370898	2.193192	-1.428481
H	-1.25387	2.169858	-1.18086
N	-1.678449	-0.366781	-1.729986
H	-2.424595	-0.203548	-1.049005
H	-2.027146	-0.026158	-2.617114
Cl	-4.447651	0.0	0.0
