13

C	0.0	0.0	0.0
C	-0.429283	0.682334	-1.30171
F	1.393022	0.0	0.0
H	0.29731	0.321677	-2.047279
H	-0.326889	-1.043231	0.039816
H	-0.362889	0.53524	0.881354
N	-0.270462	2.133782	-1.242005
H	0.682626	2.342844	-0.961798
H	-0.880954	2.477968	-0.507092
N	-1.772998	0.359912	-1.723709
H	-2.18237	-0.408336	-1.204464
H	-2.412308	1.120502	-1.538799
Cl	-4.528164	0.0	0.0
