13

C	0.0	0.0	0.0
C	-0.404624	-7.2e-05	-1.476573
F	1.396565	0.0	0.0
H	-1.491933	-5.4e-05	-1.526503
H	-0.345664	0.893098	0.522202
H	-0.345667	-0.893042	0.522296
N	0.095842	-1.195525	-2.159449
H	-0.484068	-1.976517	-1.876466
H	1.036264	-1.385021	-1.828821
N	0.095892	1.195292	-2.15957
H	1.036356	1.384767	-1.828933
H	-0.484003	1.976353	-1.876631
Cl	-3.518309	0.0	0.0
