16

C	-0.516422	0.006379	-1.422064
C	0.007779	0.09688	0.01695
F	-0.313277	1.277368	-1.972203
H	1.089223	0.216781	0.02315
H	-0.258772	-0.811565	0.55875
C	0.316998	-0.990655	-2.193496
H	1.379525	-0.815532	-1.98524
H	0.091874	-2.010512	-1.866736
H	0.07755	-0.89025	-3.254681
N	-1.926791	-0.266166	-1.569458
H	-2.446456	0.21658	-0.844237
H	-2.080737	-1.25855	-1.448377
N	-0.661284	1.218342	0.713603
O	-1.817618	1.02892	1.124208
O	-0.058504	2.281707	0.832036
H	2.874666	-0.556359	-0.346474
