16

C	-0.339101	0.098233	-1.446155
C	-0.029776	-0.002866	0.049454
F	-0.343355	-1.298373	-1.847601
H	1.054035	-0.036429	0.149445
H	-0.493174	-0.89393	0.464815
C	-1.739075	0.573827	-1.78367
H	-1.896315	0.469737	-2.860924
H	-2.486257	-0.033847	-1.266146
H	-1.852578	1.621115	-1.508325
N	0.663011	0.823786	-2.093567
H	0.628838	0.677782	-3.094689
H	1.596943	0.573493	-1.69979
N	-0.530352	1.127127	0.858087
O	-0.387875	2.274066	0.435719
O	-1.026473	0.85307	1.958151
H	2.822566	0.039966	-0.594888
