16

C	-0.338438	0.044168	-1.469957
C	-0.039058	-0.025531	0.038175
F	-0.246546	-1.309581	-1.854875
H	1.045217	-0.083787	0.125017
H	-0.53565	-0.870472	0.512096
C	-1.752624	0.479817	-1.80128
H	-1.896707	0.364528	-2.876894
H	-2.471827	-0.149537	-1.270896
H	-1.916179	1.522158	-1.526244
N	0.631023	0.762525	-2.230903
H	1.55203	0.564717	-1.796642
H	0.465976	1.750713	-2.07525
N	-0.459051	1.173451	0.768429
O	-0.896788	1.029946	1.916273
O	-0.297826	2.276241	0.232219
H	2.734975	0.153747	-0.414871
