11
Coordinates from ORCA-job run
  C   0.54887618614562     -0.21234753076174     -0.65711894839783
  C   -0.36942850019180     -0.14348237746311      0.34560618278718
  H   0.74398557266523     -1.18341934587486     -1.10000573416544
  N   1.21526476190208      0.83684452043825     -1.16171001323762
  H   1.12454356406743      1.75349570746145     -0.75204321018073
  H   1.94374160005332      0.69608081748224     -1.83702723916354
  N   -1.04434328250941     -1.35064971239584      0.79057277751954
  O   -1.84615632836893     -1.21945596153603      1.71241038410043
  O   -0.77195648633504     -2.40605865734148      0.22357491138485
  C   -0.68806875623957      1.07691876543984      0.99270886952343
  N   -0.85545833118892      2.15207377455127      1.44203201982973
