11
Coordinates from ORCA-job run
  C   0.88047918777267     -0.02459769959279     -0.04572441818514
  C   -0.44696799937943     -0.16919624573070      0.21943999840539
  H   1.57727821761886     -0.66044834227098      0.49022656200539
  N   1.39968097542842      0.86641520545656     -0.90383884390099
  H   0.80223432007929      1.44053604028074     -1.47817010225578
  H   2.37973619148189      0.85050481281737     -1.11795301062565
  N   -0.88566934758179     -1.15561658319444      1.19202675223954
  O   -2.09796475269995     -1.24249474223020      1.37254754648048
  O   -0.02725990352501     -1.82673445492717      1.75971870092400
  C   -1.43528547415108      0.60766332395441     -0.43592141508380
  N   -2.14726141504387      1.31396868543720     -1.05235177000343
