11
Coordinates from ORCA-job run
  C   0.42127837950274      0.54047860504153     -0.65591538290769
  C   -0.50500488797004      0.20564331964588      0.29765902712024
  H   0.30453261981997      1.52111583814451     -1.10907622401752
  N   1.44356808693278     -0.18817665528011     -1.10960323236775
  H   1.62004562115113     -1.09627030348760     -0.70902127841783
  H   2.07118895002409      0.19611269526109     -1.79208943230345
  N   -0.48543609823794     -1.05822326264069      0.99430488064175
  O   -1.35897543777019     -1.26671976269310      1.83001191746163
  O   0.41738313973871     -1.85521036710710      0.70275777993675
  C   -1.54466209620027      1.10881087340877      0.64983332579649
  N   -2.38391827699098      1.89243901970681      0.90313861905738
