11
Coordinates from ORCA-job run
  C   0.47862326174083      0.59113637239899     -0.56538993562982
  C   -0.52411257020824      0.18437756498572      0.27612205632674
  H   0.39391812769867      1.60468695573301     -0.94786429178103
  N   1.55711949216715     -0.08981339067971     -0.96026475545668
  H   1.66232276705732     -1.05195578226206     -0.67851915192732
  H   2.17630053653342      0.30602705074452     -1.64451138639636
  N   -0.56371501823936     -1.13198705875421      0.86583492605570
  O   -1.50401534327415     -1.40157963418880      1.60605875134176
  O   0.36037986876045     -1.90850249597809      0.58603091646435
  C   -1.59038901774159      1.06324854238574      0.61021031854116
  N   -2.44543210449450      1.83336187561489      0.85229255246151
