11
Coordinates from ORCA-job run
  C   0.81796801363532     -0.17634130452370     -0.27860414520962
  C   -0.44470859291967     -0.16089970429900      0.23044723024194
  H   1.39392559082862     -1.09027107942850     -0.17820183626891
  N   1.39984341887887      0.84780363697583     -0.92020187904169
  H   2.36318805250199      0.79210016886168     -1.19476096908194
  H   0.93919018494535      1.74132390272371     -0.99582637949208
  N   -0.97399731362789     -1.34553514914879      0.88406409214294
  O   -2.11680289795347     -1.25970919702062      1.32737152129397
  O   -0.25344314691803     -2.33861302529802      0.94920392277235
  C   -1.27379051102042      0.98639747816502      0.15342661723231
  N   -1.85137279835069      2.00374427299240      0.02208182541072
