11
Coordinates from ORCA-job run
  C   0.72317688620284      0.59243346408843     -0.15718641273771
  C   -0.53984517885099      0.21442544135635      0.21892419335388
  H   0.94297735338462      1.65382667643936     -0.07483950473116
  N   1.71463957309579     -0.17121249685643     -0.61972585981172
  H   1.57598970157283     -1.16626361729863     -0.69869236993498
  H   2.60770994085222      0.23512318461905     -0.83111075166066
  N   -0.99480179519910     -1.15332070107588      0.16071569504274
  O   -2.14723380629478     -1.39104428496828      0.50812525801994
  O   -0.18706904941561     -2.00525589506541     -0.23584763050745
  C   -1.47915402486449      1.17765705828936      0.67721519467795
  N   -2.21538960048331      2.01363117047208      1.05342218828917
