11
Coordinates from ORCA-job run
  C   0.84232158273252     -0.19820863836120     -0.17412374681299
  C   -0.45657016023389     -0.12547965481491      0.22644080247264
  H   1.39866895145470     -1.09675045728231      0.07125605825048
  N   1.50308613198064      0.77517004761987     -0.82039370936614
  H   2.41962922786838      0.59982374533109     -1.18963617873667
  H   1.01686506332872      1.59567940263593     -1.14732783682257
  N   -1.05042018373130     -1.23335160736561      0.95601402235985
  O   -2.22764052044493     -1.10298301446752      1.28285791146622
  O   -0.34545836367292     -2.21126009413610      1.19297402557214
  C   -1.26930454082303      1.00276318182695     -0.05005076960040
  N   -1.83017718845888      1.99459708901381     -0.34601057878255
