11
Coordinates from ORCA-job run
  C   0.56528551643279      0.63965104995511     -0.41303318998654
  C   -0.48771931699719      0.18407885777394      0.33758617005560
  H   0.65348343106512      1.71903024898259     -0.50169578727179
  N   1.49829359220650     -0.07177419725957     -1.04916183068335
  H   2.22110927775891      0.39361496472797     -1.56709861880676
  H   1.46989077823462     -1.07849379088605     -1.00507603630215
  N   -0.74360226232293     -1.21956709744213      0.55251607293795
  O   0.03495771265573     -2.02705007224125      0.02592025262462
  O   -1.71142544026794     -1.52834520992822      1.24021024947240
  C   -1.39129862533295      1.09569303851949      0.94849000619525
  N   -2.10797466343265      1.89316220779813      1.43134271176476
