11
Coordinates from ORCA-job run
  C   0.49597957611754      0.63291724162358     -0.50233800573719
  C   -0.47271652881743      0.18491983836946      0.35813100113297
  H   0.51965909771007      1.70571244127118     -0.67360113787083
  N   1.41224115584516     -0.07898052591794     -1.16199957346348
  H   2.08231793573993      0.38340609283390     -1.74893983412830
  H   1.45040642339499     -1.07816622661487     -1.03388812853436
  N   -0.63360783730945     -1.20901796121665      0.69451807170065
  O   -1.52577527076699     -1.51118724260738      1.48054945615177
  O   0.14500907210487     -2.01530301856164      0.16608664858038
  C   -1.37599439475725      1.09487074690872      0.97190407616354
  N   -2.09751922926145      1.88982861391165      1.45157742600487
