11
Coordinates from ORCA-job run
  C   0.86026265363871     -0.14620279128386     -0.12590184970383
  C   -0.45482384232508     -0.13740696376847      0.22660435758800
  H   1.48168542280725     -0.95092037887939      0.25291682900250
  N   1.45504700486219      0.77796757056558     -0.89415836982354
  H   2.41559537007540      0.67352178156850     -1.16376356130993
  H   0.92577794324849      1.52786832629657     -1.31096455849404
  N   -0.98007555729919     -1.18823423228953      1.08099080136445
  O   -2.17748608109509     -1.12594986336862      1.34957969883340
  O   -0.20291573372310     -2.05611227894395      1.47157987406658
  C   -1.34793569816242      0.86757227321180     -0.22264797486503
  N   -1.97613148202715      1.75889655689136     -0.66623524665856
