11
Coordinates from ORCA-job run
  C   0.47814786506631      0.56832738437876     -0.59078217702284
  C   -0.52594866546544      0.19539144206891      0.26443935843673
  H   0.39182823972429      1.56252903361411     -1.02059534401370
  N   1.56415445419906     -0.12252771911093     -0.94640595229511
  H   1.67637385129398     -1.06774842230005     -0.61460607379314
  H   2.18860066140222      0.25109874704307     -1.63780903791649
  N   -0.56086501027169     -1.09388687580779      0.91273920021133
  O   -1.50701135080896     -1.33838006957103      1.65443925372291
  O   0.37060679365959     -1.87578894934277      0.67478619368200
  C   -1.60368145808488      1.07701651471305      0.55030854145303
  N   -2.47220538071447      1.84296891431467      0.75448603753527
