11
Coordinates from ORCA-job run
  C   0.61824208660925     -0.25640541983722     -0.57444757366914
  C   -0.39526414531593     -0.12271457275317      0.32458956641700
  H   0.89479712847005     -1.25933377517211     -0.88250464803863
  N   1.28620151416602      0.76275971582001     -1.13600293160092
  H   1.12367608758305      1.71269440429693     -0.83986333731764
  H   2.08743108937963      0.58375924571001     -1.71273901116068
  N   -1.06354247632163     -1.30503167814311      0.84082144172025
  O   -1.96223446807725     -1.11171884304251      1.65616437315097
  O   -0.68979142487360     -2.40237989853256      0.43379083466019
  C   -0.82381430213897      1.14480728743025      0.79300999568608
  N   -1.07670108948063      2.25356353422347      1.09718129015253
