11
Coordinates from ORCA-job run
  C   0.58299639459179      0.62924097756082     -0.40354584705648
  C   -0.49136274299978      0.19293104023650      0.32776204141118
  H   0.69105812583314      1.70678913439032     -0.49240719773613
  N   1.51544516780735     -0.09898175879823     -1.02124418107368
  H   2.25599968710797      0.35312616104344     -1.52572765680075
  H   1.46913968859816     -1.10496476195619     -0.97585291078888
  N   -0.77352229325869     -1.20594511533146      0.54177342514811
  O   0.00150465127094     -2.02715849117042      0.03162261183135
  O   -1.75821828101936     -1.49718396941462      1.21287628403042
  C   -1.39071728165675      1.12089345880071      0.91988116398458
  N   -2.10332311627477      1.93125332463913      1.38686226705027
