11
Coordinates from ORCA-job run
  C   0.71797627472300     -0.21705236708148     -0.46356708944374
  C   -0.40267975430033     -0.14535330666523      0.30678340787155
  H   1.16063157900772     -1.19425955756869     -0.62538857488094
  N   1.32456863223390      0.83324318772536     -1.03440965888953
  H   2.13283166139621      0.70315237370213     -1.61393220929373
  H   0.95376556932222      1.76575894910736     -0.93988805295459
  N   -0.96392042398594     -1.35659920106306      0.87922318810989
  O   -0.39520650220691     -2.42095291578301      0.64794180099358
  O   -1.97816737609827     -1.21993525924162      1.55931875274507
  C   -1.05538864979977      1.08455574109528      0.57263913562664
  N   -1.49341101029182      2.16844235577296      0.71127930011580
