11
Coordinates from ORCA-job run
  C   0.48281942219907     -0.16125828470729     -0.72020050430674
  C   -0.34961689672982     -0.16496730276183      0.35705940940484
  H   0.48988404370847     -1.03772769239917     -1.35970753809189
  N   1.32018983040020      0.83659584553408     -1.04055100229742
  H   1.83459517152970      0.80750040523814     -1.90124425129193
  H   1.31463104222045      1.70234456404336     -0.52404589934602
  N   -1.19714952345038     -1.31729804417286      0.61143361703632
  O   -1.11956083949079     -2.27128041252942     -0.15893897165984
  O   -1.93527457031532     -1.24618918886792      1.59121237167469
  C   -0.43540698745936      0.93681488783103      1.24520162754796
  N   -0.40511069261222      1.91546522279189      1.89878114133002
