11
Coordinates from ORCA-job run
  C   0.42446509074002      0.43353021057240     -0.72846048550997
  C   -0.52795260597699      0.22690452527145      0.23557896598849
  H   0.26914908233907      1.29445837474040     -1.37286480454173
  N   1.52967286342370     -0.27635234385645     -0.96738006651752
  H   2.11502548335672     -0.04513329254444     -1.74942626631869
  H   1.70904648295690     -1.10822788168409     -0.42709800016779
  N   -0.46984414244617     -0.87370611711006      1.16710667901860
  O   -1.37368763102394     -0.97762311449465      1.99007907247337
  O   0.49378535056634     -1.64706689366740      1.07510466231331
  C   -1.63776354580472      1.10647068048880      0.35947199175851
  N   -2.53289642813094      1.86674585228404      0.41788825150342
