11
Coordinates from ORCA-job run
  C   0.55460312706225     -0.19972618587782     -0.65790306162380
  C   -0.41112748889842     -0.12991481536047      0.29947143225466
  H   0.58354521063089     -1.08550044644073     -1.28398893619858
  N   1.46687937539662      0.75292778931932     -0.89634087922626
  H   2.17359159934622      0.61254461471264     -1.59382094352548
  H   1.51060698096724      1.58694638644950     -0.33243576410336
  N   -1.35655977756186     -1.22187980445896      0.45576495426837
  O   -2.21944291046953     -1.07577150948572      1.31752229377202
  O   -1.23828614591628     -2.19646019034372     -0.28270108210021
  C   -0.53469197408047      0.98583116486696      1.16443326283027
  N   -0.53011799647666      1.97100299661900      1.80899872365237
