11
Coordinates from ORCA-job run
  C   0.75094021364566     -0.22998528934928     -0.39969188789577
  C   -0.42416065946176     -0.13699162520905      0.28207690651613
  H   1.22043184337503     -1.20529385636124     -0.47357216326149
  N   1.37626920278821      0.79649349313520     -0.99315254431194
  H   0.99601830286512      1.72937963482499     -0.96172520482690
  H   2.24470895747346      0.65627302528252     -1.47498126656400
  N   -1.00784877671914     -1.32464042975846      0.88048105221586
  O   -0.40934661037138     -2.38979124056821      0.74963085764505
  O   -2.06948045234805     -1.16878024555737      1.47933502700600
  C   -1.10979919966413      1.09456706068754      0.43231374528543
  N   -1.56873282158302      2.17776947287337      0.47828547819163
