11
Coordinates from ORCA-job run
  C   0.77076577409895      0.55120125678736     -0.03157168579835
  C   -0.54467219272643      0.23301974937058      0.18712321356313
  H   1.05181376488038      1.57960796737724      0.17764818376738
  N   1.75249936897892     -0.23934686658435     -0.47044700513968
  H   2.68102155848761      0.12527388066305     -0.58108953210310
  H   1.55515290344972     -1.20530955284736     -0.68016394338797
  N   -1.07643845715410     -1.08846495615580     -0.04323901021959
  O   -0.29063091496807     -1.95453397747188     -0.45320687449157
  O   -2.26831125772769     -1.27500207503428      0.17911445272103
  C   -1.45915953258405      1.21253954888068      0.66126790087692
  N   -2.17204101473524      2.06101502501476      1.05456430021181
