11
Coordinates from ORCA-job run
  C   0.66342421130801      0.61478026531664     -0.28619394904214
  C   -0.56568133553929      0.20142063544191      0.15889461159389
  H   0.77781856869574      1.68424104663906     -0.44055655240909
  N   1.73803996121573     -0.12790957229480     -0.56025008469551
  H   1.69880236121317     -1.12595838926255     -0.42424876840079
  H   2.58869589368660      0.30972975944854     -0.86413337768277
  N   -0.87747245588418     -1.18409017647289      0.41510083587239
  O   0.01939744715737     -2.01557494053111      0.21564282751263
  O   -2.00604903476660     -1.45487460794880      0.81254307414032
  C   -1.60573813270962      1.14078521084326      0.39632025323481
  N   -2.43023748437694      1.95945076882072      0.57688112987626
