11
Coordinates from ORCA-job run
  C   0.82872794138548     -0.13777482601174     -0.26727858229068
  C   -0.41641195143698     -0.15264488130199      0.28361406175616
  H   1.51586308841365     -0.93016055358954      0.01050799399886
  N   1.26828237740505      0.77455400779812     -1.14599351457726
  H   0.69365105745929      1.55839027250731     -1.41346691361733
  H   2.21891950444372      0.75679199123134     -1.46563639991809
  N   -0.78168695833618     -1.20849916499726      1.21247348137331
  O   0.05875628575002     -2.06740622896056      1.46846007456408
  O   -1.91878082373352     -1.15880267626828      1.67560455986380
  C   -1.38317122691494      0.84056501112208     -0.01342812573170
  N   -2.08614929443558      1.72398704847052     -0.34685663542115
