11
Coordinates from ORCA-job run
  C   0.71264085141460      0.61617607537046     -0.10511590588660
  C   -0.54512211442508      0.18745064149788      0.23037911830769
  H   0.90995568082747      1.67347208924798      0.04699587995621
  N   1.73580002756402     -0.10109196667690     -0.57516369223744
  H   2.58563343445089      0.36124628482607     -0.84229606585414
  H   1.59893347492309     -1.07882750687330     -0.77949256119040
  N   -0.96675850528949     -1.18500402028155      0.08281465753309
  O   -0.13779756702160     -1.98921812849012     -0.36633726725828
  O   -2.11398349529586     -1.47247752916068      0.40870396332339
  C   -1.51083373965182      1.09642886510530      0.74143510707410
  N   -2.26946804749625      1.89284519543485      1.15707676623238
