11
Coordinates from ORCA-job run
  C   0.86544756769205     -0.12272805851642     -0.11745239278858
  C   -0.45800407988581     -0.16540620058416      0.19923011106012
  H   1.50597689873011     -0.90686404138016      0.27247484618651
  N   1.43815019664474      0.80380819463360     -0.90028774278809
  H   2.43436230281454      0.82208634319573     -1.01780309007205
  H   0.90941417121876      1.59058667248954     -1.24350579443601
  N   -0.96540168751531     -1.23741619870379      1.03832023530420
  O   -0.17062498520683     -2.08895314059771      1.42923146904480
  O   -2.16662545320267     -1.20753581453034      1.29521983651625
  C   -1.37323906318995      0.81672904840996     -0.25630048881977
  N   -2.02045586809961      1.69469319558375     -0.69912698920738
