11
Coordinates from ORCA-job run
  C   0.52560485102439      0.56375672071358     -0.54522077121742
  C   -0.51835172878833      0.24082461566735      0.29077479212895
  H   0.57434756028954      1.59024295443215     -0.89190540260496
  N   1.58503909642758     -0.19572761677483     -0.86003518050257
  H   1.57319118720915     -1.18277473549893     -0.63882399767888
  H   2.24399943951840      0.15517313001421     -1.53009560713341
  N   -0.62634929226908     -1.06948257759561      0.89842022127390
  O   0.04077228427179     -1.99033564836747      0.40892624274602
  O   -1.31733252663204     -1.17396296717561      1.90930610478314
  C   -1.60666012689026      1.13493570721145      0.47541374578408
  N   -2.47426074416115      1.92735041737370      0.48323985242116
