11
Coordinates from ORCA-job run
  C   0.81643236298998     -0.20601857609123     -0.26232290674300
  C   -0.45353748383209     -0.14348513514925      0.22392031859806
  H   1.36441907547294     -1.13322943570791     -0.13118016857422
  N   1.43653102189995      0.78451813764087     -0.92140639139635
  H   2.40698287929648      0.70040958194647     -1.16191804040429
  H   1.00668271662107      1.69167766095068     -1.01479931783947
  N   -1.02672076460077     -1.29704035836902      0.89633901815092
  O   -0.33792939260248     -2.30996979161300      0.99147652629036
  O   -2.17109385023396     -1.16652965718755      1.32427723555542
  C   -1.24795714778491      1.02498210517108      0.10864220158340
  N   -1.79480941722620      2.05468546840885     -0.05402847522082
