11
Coordinates from ORCA-job run
  C   0.87607130981791     -0.06443292568014     -0.07421127167282
  C   -0.45706998026309     -0.20318859426425      0.16545959269089
  H   1.54284997892646     -0.83092766080048      0.30647313577333
  N   1.43083408690469      0.94266841512742     -0.76427019157515
  H   0.87210351339285      1.70723398529321     -1.10995020863375
  H   2.42795236823287      1.01156050950067     -0.84981199636339
  N   -0.94022170965926     -1.34911571213075      0.91586024335852
  O   -2.15389334719584     -1.41052447853497      1.09765015099632
  O   -0.11460450063647     -2.16814742125679      1.31262237134751
  C   -1.40526622545657      0.74948046141520     -0.28473846001631
  N   -2.07875549406356      1.61439342133089     -0.71408336590514
