11
Coordinates from ORCA-job run
  C   0.87148214293178     -0.10885477147262     -0.08172984714298
  C   -0.45796679621225     -0.15365714410416      0.20880176165781
  H   1.50937846866096     -0.87894074382202      0.33921785972770
  N   1.46202548495359      0.83482765227464     -0.83018102436673
  H   0.91610236570414      1.54158621028322     -1.29801823314630
  H   2.43177406382413      0.75401562956527     -1.07433957869513
  N   -0.97668422037717     -1.21339937879506      1.05625308477161
  O   -2.18667506431492     -1.19887971206458      1.26960913769907
  O   -0.18231763272810     -2.04116660295602      1.49592829944122
  C   -1.37171193516064      0.80385431381189     -0.29912153255116
  N   -2.01540687728151      1.66061454727943     -0.78641992739513
