11
Coordinates from ORCA-job run
  C   0.70838978742763      0.58349262893222     -0.23934545753779
  C   -0.46935416187267      0.20487222737178      0.35138734213717
  H   1.00624932858180      1.61715438160288     -0.08606191199119
  N   1.54019094105132     -0.15515330024154     -0.97698087162234
  H   2.37033089579371      0.25606770057507     -1.36318679572553
  H   1.31204011483481     -1.11873131797652     -1.16635123534684
  N   -1.00132751158743     -1.13236917562473      0.24481572212410
  O   -2.05912737003657     -1.37681547524685      0.81593925732231
  O   -0.35219657284302     -1.95163449580694     -0.42056397992130
  C   -1.23175001688959      1.13270319351308      1.11186554618089
  N   -1.82344543446000      1.94041363290155      1.72848238438051
