11
Coordinates from ORCA-job run
  C   0.65772121673151     -0.23583283622297     -0.53893145210917
  C   -0.37894205221057     -0.13635008421766      0.33759437057878
  H   0.98119640952946     -1.22944417626265     -0.83122851013577
  N   1.34167295223744      0.80406286700635     -1.04231970836712
  H   2.00271869741053      0.65531411817204     -1.78275707021676
  H   1.02918068286236      1.74899130465180     -0.87965371658143
  N   -1.01701193842161     -1.34036955189092      0.84193360660718
  O   -1.95843796887999     -1.17651937654879      1.61441484193149
  O   -0.57830891895012     -2.42533223973955      0.46791848788429
  C   -0.88145310653030      1.11701386246130      0.76957822748250
  N   -1.19833597377871      2.21746611259105      1.04245092292600
