11
Coordinates from ORCA-job run
  C   0.71635446904743      0.58052574833326     -0.22818192813410
  C   -0.46749812539298      0.20653765991142      0.34975854673116
  H   1.02817304791324      1.60621545068261     -0.05279431500539
  N   1.52534306262436     -0.15188198058420     -1.00121849134909
  H   2.41641386499890      0.21758712128711     -1.27816925677289
  H   1.32393412238953     -1.13107741548609     -1.12968504206579
  N   -1.02159769574308     -1.11789024465727      0.20781952297499
  O   -2.09685864106148     -1.35090819166678      0.75033096236416
  O   -0.36041001257258     -1.94341943485574     -0.43666345304363
  C   -1.23577211469105      1.14092221283398      1.09823497278787
  N   -1.82708197751228      1.94538907420169      1.71956848151270
