11
Coordinates from ORCA-job run
  C   0.63827515182439      0.62640846223627     -0.31616653424827
  C   -0.48163455272076      0.18980562175975      0.34315578011910
  H   0.82899536645891      1.69523780750255     -0.27222971731049
  N   1.52669425472919     -0.09270318709899     -1.00548101098119
  H   1.40355800916373     -1.09013369183872     -1.08354916481821
  H   2.30808374010450      0.35891086738718     -1.44472309644158
  N   -0.87428941873318     -1.19849217780798      0.37985536858751
  O   -1.89402652807577     -1.49086396866910      0.99593641726400
  O   -0.15201285519926     -2.01012058198270     -0.21593541568690
  C   -1.32225652270310      1.10596730329858      1.03210261637211
  N   -1.98238664484865      1.90598354521317      1.58603475714392
