11
Coordinates from ORCA-job run
  C   0.66854957417787      0.62220121871014     -0.25551021057544
  C   -0.54468806585782      0.19906271436510      0.22271120693759
  H   0.81463600573292      1.69814552825475     -0.29466433774677
  N   1.69759314241345     -0.11732087978457     -0.67462631001783
  H   2.52930599795542      0.32727759659127     -1.01828641233517
  H   1.61786344634527     -1.12224299709006     -0.67624349776392
  N   -0.89411711072813     -1.19608443575047      0.33872669435643
  O   -2.00115303712607     -1.47564014714205      0.78756167102941
  O   -0.04920154677526     -2.02647005448691     -0.02451784992201
  C   -1.53051879607769      1.13707666869824      0.63411869683802
  N   -2.31026961005998      1.95399478763456      0.96173034919969
