11
Coordinates from ORCA-job run
  C   0.64550548325274      0.62109508860470     -0.31314762026350
  C   -0.55987895068542      0.19659643379549      0.18314101154848
  H   0.74104400229500      1.69027582650970     -0.48157998550508
  N   1.72319889934731     -0.10970803152826     -0.60748783314672
  H   2.53627353731464      0.32859710631049     -0.99977828110996
  H   1.69034594207196     -1.11012132235862     -0.48999073396251
  N   -0.84651298558431     -1.19104655493979      0.45557908284071
  O   0.05270023481713     -2.01302647839044      0.22965527334085
  O   -1.95850864312573     -1.47307434440816      0.89010019315241
  C   -1.59945542264965      1.12556896748658      0.45980473588400
  N   -2.42471209705368      1.93584330891831      0.67270415722133
