11
Coordinates from ORCA-job run
  C   0.59008750456061      0.63227296291056     -0.38971331496844
  C   -0.46697080276110      0.18986516429867      0.36286513560266
  H   0.74090058453490      1.70827328182269     -0.41131066612404
  N   1.46091704474818     -0.08842104613076     -1.09955523243636
  H   1.37381666037159     -1.09249485212301     -1.11960080352160
  H   2.19509597358599      0.36802481633652     -1.60941854187527
  N   -0.79864268201245     -1.20843618562207      0.49598961063432
  O   -1.76308887201316     -1.50566268844676      1.19340340994408
  O   -0.08445599459571     -2.02291419211143     -0.10554498155640
  C   -1.29612400727245      1.10851746032637      1.06226726165557
  N   -1.94953540914639      1.91097527873923      1.62061812264549
