11
Coordinates from ORCA-job run
  C   0.52035300949650      0.63431769851423     -0.47570748225306
  C   -0.51256671038039      0.17957699198667      0.30238808687427
  H   0.50465691614666      1.69374806056838     -0.71679360155971
  N   1.55206767989386     -0.05424908388536     -0.96944724534792
  H   2.21021565791977      0.39738917630304     -1.57829744646115
  H   1.60310163519625     -1.04904900946855     -0.81490034289525
  N   -0.63935573756560     -1.20280351291761      0.69908989247919
  O   0.24047784521111     -1.98729795194937      0.31771454899643
  O   -1.60454907839367     -1.51518939540671      1.38907092239986
  C   -1.52900477734817      1.06516991068758      0.75283218929550
  N   -2.34439644017632      1.84038711556771      1.09505047847186
