14
Coordinates from ORCA-job run
  C   0.32371709203546      0.73974873790704      0.14270642131752
  C   -0.24194371823076     -0.47906982734373     -0.59509235537531
  F   0.11244642669865      1.82651723393350     -0.62596318271150
  H   0.28386595292108     -0.57218227085136     -1.54971122736132
  N   1.85257058204516      0.49692690354572      0.20855536715597
  O   2.48657505981160      0.91896017673329     -0.74401892168767
  O   2.24777413222512     -0.13846260965584      1.17434598912185
  C   -0.16758880120546      0.94377377114352      1.49954960592706
  N   -0.52619336717406      1.14056424330864      2.60166592557336
  N   -1.69802749870059     -0.21634354859452     -0.95478967397303
  O   -2.01975319311734     -0.52226381333443     -2.09361280117264
  O   -2.39991402282929      0.25343411330209     -0.07105173668358
  C   -0.15551996476770     -1.69856925498335      0.19132090569429
  N   -0.09700867971188     -2.69203385511056      0.81609568417500
