15

C	-0.268947	0.019675	-1.532928
C	0.0	0.0	0.0
Cl	0.192603	-1.53077	-2.296668
H	1.092317	0.0	0.0
C	-1.691798	0.238425	-1.82832
N	-2.827673	0.441819	-2.048413
N	0.534196	1.059248	-2.131787
H	1.480922	0.931758	-1.750557
H	0.19095	1.960877	-1.813372
N	-0.509185	-1.12447	0.791462
O	-1.326142	-0.887548	1.692751
O	-0.024367	-2.233562	0.553606
C	-0.468786	1.256041	0.547359
N	-0.736909	2.337188	0.92667
H	2.484078	0.0	0.0
