15

C	-0.393024	-0.117329	-1.470671
C	0.0	0.0	0.0
Cl	0.047747	1.436109	-2.271831
H	1.090825	0.0	0.0
C	0.408634	-1.156018	-2.162667
N	0.905994	-1.982169	-2.835069
N	-1.817498	-0.308532	-1.635693
H	-2.039635	-1.19794	-1.20107
H	-2.032412	-0.379158	-2.624479
N	-0.381624	-1.147874	0.767789
O	-0.609518	-2.210163	0.146048
O	-0.295995	-1.067049	2.003661
C	-0.454354	1.213604	0.630082
N	-0.7296	2.244658	1.123539
H	2.316532	0.0	0.0
