15

C	-0.428256	0.053421	-1.454422
C	0.0	0.0	0.0
Cl	-2.358157	-0.128022	-1.505039
H	1.094762	0.0	0.0
C	-0.235467	1.405104	-1.988442
N	-0.050064	2.469731	-2.450367
N	0.215527	-0.873016	-2.268918
H	-0.130586	-0.866254	-3.217312
H	0.213147	-1.790563	-1.843139
N	-0.313934	-1.22797	0.679207
O	-0.224115	-2.286269	0.023977
O	-0.452083	-1.189189	1.911266
C	-0.461848	1.141591	0.752083
N	-0.761924	2.113625	1.342755
H	2.313682	0.0	0.0
