15

C	-0.270831	-0.144044	-1.504542
C	0.0	0.0	0.0
Cl	-1.973291	-0.81876	-1.803791
H	1.093721	0.0	0.0
C	-0.319326	1.198029	-2.113007
N	-0.305149	2.218008	-2.699455
N	0.71375	-0.971802	-2.094226
H	1.585893	-0.883177	-1.550783
H	0.866449	-0.732888	-3.064317
N	-0.355091	-1.198919	0.77572
O	0.027347	-2.274973	0.320003
O	-0.914567	-1.042949	1.86555
C	-0.575316	1.185228	0.585261
N	-0.971987	2.184386	1.063614
H	2.462259	0.0	0.0
