15

C	-0.409926	-0.082034	-1.467904
C	0.0	0.0	0.0
Cl	0.210226	1.498137	-2.222281
H	1.091141	0.0	0.0
C	0.28026	-1.131814	-2.232284
N	0.721356	-1.916744	-2.987617
N	-1.813687	-0.235914	-1.619833
H	-2.07593	-0.220624	-2.598918
H	-2.298126	0.504221	-1.124677
N	-0.3551	-1.192294	0.741711
O	-0.593009	-1.072624	1.952378
O	-0.221509	-2.273104	0.150745
C	-0.541014	1.176012	0.636206
N	-0.958116	2.165474	1.119176
H	2.35751	0.0	0.0
