16

C	0.0	0.0	0.0
C	-0.533686	-0.123199	-1.470633
Cl	1.762383	0.0	0.0
H	0.347566	-0.071914	-2.118431
N	-0.240641	1.51148	0.485179
O	0.035607	2.414528	-0.296007
O	-0.599938	1.66001	1.645238
N	-0.550723	-0.902388	0.88309
H	-1.585836	-0.710639	0.759579
H	-0.252356	-0.671438	1.82335
C	-1.406725	0.977661	-1.935863
N	-2.029695	1.747997	-2.567158
N	-1.177759	-1.417487	-1.659523
H	-2.055111	-1.297137	-1.141047
H	-1.413556	-1.486817	-2.644814
F	-2.744062	0.0	0.0
