16

C	0.0	0.0	0.0
C	-0.534032	-0.023925	-1.446678
Cl	1.756909	0.0	0.0
H	-1.621794	0.142806	-1.238905
N	-0.402749	1.375522	0.60592
O	-0.901522	2.21601	-0.12984
O	-0.161109	1.524038	1.79702
N	-0.556386	-0.975709	0.854485
H	-1.591138	-0.820452	0.700558
H	-0.270963	-1.894525	0.535721
C	-0.385252	-1.388783	-1.952721
N	-0.237747	-2.459537	-2.416201
N	0.087713	0.946602	-2.337691
H	-0.63035	1.514314	-2.764801
H	0.635467	0.491899	-3.055702
F	-2.78786	0.0	0.0
