16

C	0.0	0.0	0.0
C	-0.369381	0.045561	-1.529867
Cl	1.770285	0.0	0.0
H	0.433482	0.617935	-2.003165
N	-0.323652	1.387054	0.639607
O	-0.546005	1.398437	1.843344
O	-0.259415	2.370397	-0.088749
N	-0.552545	-1.067221	0.680635
H	-1.610082	-0.808305	0.546562
H	-0.2896	-1.007889	1.656825
C	-1.59366	0.739661	-1.962454
N	-2.368449	1.323554	-2.627527
N	-0.35496	-1.290307	-2.113656
H	0.54545	-1.70556	-1.894736
H	-1.045934	-1.834324	-1.604683
F	-2.643847	0.0	0.0
