16

C	0.0	0.0	0.0
C	-0.528845	-0.066237	-1.477842
Cl	1.762581	0.0	0.0
H	0.358701	-0.029008	-2.117742
N	-0.249716	1.480571	0.564343
O	-0.608036	1.560699	1.731691
O	0.020243	2.426183	-0.166051
N	-0.544555	-0.95048	0.836632
H	-0.247292	-0.762382	1.786821
H	-1.580134	-0.75831	0.726975
C	-1.362001	1.074628	-1.918942
N	-1.957653	1.889689	-2.521658
N	-1.211199	-1.33462	-1.715843
H	-1.452989	-1.346839	-2.702779
H	-2.084367	-1.20182	-1.187942
F	-2.742015	0.0	0.0
