16

C	0.0	0.0	0.0
C	-0.522024	0.017524	-1.476698
Cl	1.80245	0.0	0.0
H	0.364749	0.116651	-2.113908
N	-0.226768	1.449724	0.633539
O	-0.585216	1.481758	1.803102
O	0.059865	2.42198	-0.053021
N	-0.536684	-0.989588	0.789989
H	-1.573801	-0.801205	0.685262
H	-0.253239	-0.834596	1.749664
C	-1.381417	1.168845	-1.830874
N	-2.006821	2.019042	-2.349872
N	-1.184869	-1.243151	-1.78818
H	-2.06021	-1.155609	-1.257034
H	-1.424317	-1.209529	-2.773904
F	-2.734563	0.0	0.0
