16

C	0.0	0.0	0.0
C	-0.506257	0.419264	-1.419237
Cl	1.758133	0.0	0.0
H	-1.596282	0.503988	-1.208838
N	-0.419788	1.096646	1.012409
O	-0.474155	0.776524	2.187114
O	-0.601508	2.232436	0.580539
N	-0.537685	-1.206064	0.484868
H	-1.576353	-1.009763	0.396131
H	-0.253292	-1.962592	-0.126648
C	-0.297078	-0.744061	-2.286769
N	-0.100639	-1.669044	-2.984754
N	0.035157	1.58789	-2.088515
H	-0.234199	2.391799	-1.538565
H	1.048049	1.538214	-2.088925
F	-2.740412	0.0	0.0
