14
Coordinates from ORCA-job run
  C   -0.32250170168715     -0.55207663211309      0.28754408911984
  C   0.99537275773482     -0.02235641379208     -0.31104005472695
  Br  -0.01779173738842     -2.15133836910753      1.27213516302446
  H   1.47024105473571     -0.87953064335260     -0.80132053876281
  N   -1.30372044147466     -0.86154706337497     -0.84625315665753
  O   -0.79588958073122     -1.33695492596876     -1.85115436607763
  O   -2.48453784919739     -0.65357489914281     -0.61816783183748
  N   -0.99732960304719      0.52754641134916      1.14436732726788
  O   -1.45364579320533      0.21837049486517      2.22919213063452
  O   -1.02483463651486      1.62069242906213      0.59268506864357
  C   1.85876598152046      0.44847219195536      0.77482418269914
  N   2.54344838853506      0.82060961723796      1.65350293461534
  C   0.80944451019873      1.01531282275453     -1.33075274371208
  N   0.72397865052145      1.80737497962752     -2.19356220423027
