14
Coordinates from ORCA-job run
  C   -0.31175270210269     -0.57087176258681      0.26536670245090
  C   0.99391323343265      0.00960295074022     -0.31283844060448
  Br  0.02557155619405     -2.20592395971163      1.17756496027284
  H   1.48593775953032     -0.81713613690953     -0.83722126944449
  N   -1.28957852727952     -0.84672019292934     -0.88086329852608
  O   -0.77546305775957     -1.27874023286406     -1.90184481337860
  O   -2.47201428605424     -0.65408214370379     -0.64848429068424
  N   -1.00387820776788      0.45673814804396      1.17107107383704
  O   -1.46614608595096      0.08668745313252      2.23409863823429
  O   -1.03771327566718      1.57716714226692      0.67745153198190
  C   1.85116804518754      0.45432749756515      0.78874927307467
  N   2.53682910206560      0.80051608453231      1.67723050420558
  C   0.78384291710415      1.08299727240339     -1.28989155038963
  N   0.67728352906774      1.90643788002068     -2.12038902102969
