14
Coordinates from ORCA-job run
  C   -0.30451686579333     -0.47068148627449      0.19777056129248
  C   0.74582060786754      0.51180767447207     -0.34777446862700
  Br  0.43470665912278     -2.10213806718322      0.79811539823258
  H   0.19861720689402      1.36589430982956     -0.76275336392516
  N   -1.38269198935098     -0.73733480975928     -0.86014333706449
  O   -2.31909038945545     -1.42245321720712     -0.48249103644205
  O   -1.21731677784357     -0.22140362114532     -1.95726378631710
  N   -1.07797402920803      0.27705842522776      1.30763468756309
  O   -1.60056826909517      1.30570018802162      0.89297866011991
  O   -1.09893874459091     -0.18148613453236      2.43271783796335
  C   1.55947374552994     -0.09529661553037     -1.40147663346287
  N   2.23835966420250     -0.56058155268146     -2.23904366379526
  C   1.58542298309068      0.97478173229113      0.76089408757972
  N   2.23869619862998      1.35513317447150      1.65983505688280
