16

C	-0.507615	0.038556	-1.444031
C	0.0	0.0	0.0
F	0.111338	1.103932	-2.086369
H	1.096741	0.0	0.0
C	-0.117449	-1.191851	-2.163367
N	0.166951	-2.150455	-2.779073
C	-2.005836	0.257997	-1.557442
H	-2.551394	-0.585167	-1.128358
H	-2.241013	1.170318	-1.007961
H	-2.289565	0.376326	-2.605689
C	-0.514102	-1.181462	0.669776
N	-0.927272	-2.12732	1.236661
N	-0.381614	1.248582	0.682034
H	-0.987256	1.068079	1.471425
H	0.489988	1.629077	1.035963
F	2.527805	0.0	0.0
