16

C	-0.498695	-0.013365	-1.448235
C	0.0	0.0	0.0
F	0.101405	1.047994	-2.116076
H	1.103328	0.0	0.0
C	-0.081949	-1.254286	-2.132367
N	0.17769	-2.238095	-2.716885
C	-1.999001	0.170993	-1.577101
H	-2.256946	1.090483	-1.051198
H	-2.278046	0.258624	-2.629982
H	-2.528207	-0.67385	-1.132119
C	-0.514631	-1.160525	0.703805
N	-0.959871	-2.070171	1.306263
N	-0.390212	1.264441	0.642765
H	-1.004611	1.111714	1.427853
H	0.474659	1.659919	0.992545
F	2.52955	0.0	0.0
