16

C	-0.225185	0.08338	-1.520222
C	0.0	0.0	0.0
Br	-0.038814	-1.829908	-2.310851
H	1.09735	0.0	0.0
C	-1.585631	0.447005	-1.922689
N	-2.668766	0.796639	-2.220508
N	0.73504	0.97024	-2.018324
H	1.655276	0.755824	-1.591387
H	0.769382	1.000711	-3.028521
C	-0.584632	-1.154932	0.64646
N	-1.078011	-2.032504	1.255004
C	-0.441234	1.290772	0.695074
H	-1.527052	1.422289	0.676713
H	0.038271	2.138927	0.206232
H	-0.104496	1.258466	1.734295
H	2.717372	0.0	0.0
