16

C	-0.491864	-0.085898	-1.440733
C	0.0	0.0	0.0
Br	0.305095	-1.668415	-2.336999
H	1.108545	0.0	0.0
C	-1.949195	-0.311819	-1.514353
N	-3.119155	-0.393835	-1.625425
N	-0.088807	1.075034	-2.200204
H	-0.506511	1.902759	-1.793452
H	-0.406395	0.984986	-3.158837
C	-0.508268	-1.126813	0.761085
N	-0.920321	-2.031661	1.392829
C	-0.37728	1.324295	0.666634
H	-1.445142	1.564195	0.598182
H	0.228461	2.123915	0.230977
H	-0.101535	1.26896	1.721677
H	2.623249	0.0	0.0
