16

C	-0.229498	-0.09565	-1.518127
C	0.0	0.0	0.0
Br	-0.044015	-2.086651	-2.079371
H	1.103329	0.0	0.0
C	-1.593128	0.216398	-1.953137
N	-2.684709	0.523511	-2.266544
N	0.727236	0.726807	-2.121144
H	0.760306	0.63582	-3.127711
H	1.648603	0.565045	-1.674941
C	-0.579425	-1.071587	0.780736
N	-1.048483	-1.878238	1.497186
C	-0.439057	1.363456	0.540753
H	-1.525034	1.493504	0.510523
H	0.039633	2.148923	-0.044801
H	-0.099076	1.452103	1.575556
H	2.708945	0.0	0.0
