16

C	-0.506976	0.017849	-1.432467
C	0.0	0.0	0.0
Br	0.499462	1.506603	-2.436874
H	1.108766	0.0	0.0
C	-0.138362	-1.193977	-2.168981
N	0.08783	-2.163173	-2.794614
N	-1.911651	0.216805	-1.5364
H	-2.19526	0.301218	-2.506451
H	-2.17485	1.060048	-1.042026
C	-0.452061	-1.219664	0.644586
N	-0.78824	-2.19303	1.214849
C	-0.405483	1.222614	0.82086
H	0.186762	1.209477	1.739936
H	-1.466453	1.239855	1.09123
H	-0.141141	2.13369	0.280046
H	2.606645	0.0	0.0
