16

C	-0.521217	-0.166251	-1.435617
C	0.0	0.0	0.0
Br	0.175429	1.307902	-2.551322
H	1.10807	0.0	0.0
C	-0.00198	-1.409216	-2.021763
N	0.333403	-2.432792	-2.491877
N	-1.966005	-0.169788	-1.625513
H	-2.340246	-0.953886	-1.097938
H	-2.340506	0.683588	-1.227714
C	-0.481733	-1.143711	0.754898
N	-0.894907	-2.064326	1.362893
C	-0.412389	1.298862	0.68679
H	0.032055	1.303097	1.684974
H	0.004875	2.147023	0.142568
H	-1.495956	1.42194	0.790426
H	2.640563	0.0	0.0
