12
Coordinates from ORCA-job run
  C   -0.30322659819908     -0.05584114706174      0.67989766272978
  C   0.25271936318667      0.07679820078177     -0.72327288196946
  Cl  0.90426457001048      0.56512007607986      1.85846129064806
  H   -0.54227959379698     -0.22258392496425     -1.41585461281092
  H   -0.40107438086590     -1.11932490974401      0.92320056759039
  H   0.46657279684905      1.13990719890375     -0.89560647224252
  N   -1.50378922843001      0.73666928827413      0.81748260672563
  H   -2.21154833282010      0.37291625057571      0.18891185467689
  H   -1.86047021295258      0.67022584594189      1.76296419848507
  N   1.37825810638437     -0.82888821851896     -0.91415121428180
  H   1.64273929011316     -0.84572134716673     -1.89054060352608
  H   2.17583422052092     -0.48827731310142     -0.39149239602504
