12
Coordinates from ORCA-job run
  C   -0.43446348710993     -0.36727128200092      0.67225907192377
  C   0.43819363590527     -0.64967592614716     -0.53764944209554
  Cl  0.53206765244111     -0.33032383346559      2.17214791098660
  H   0.93480528159249     -1.61273125129741     -0.39339938252762
  H   -1.13435310540489     -1.20072585482177      0.80768691216365
  H   -0.25765651593440     -0.76529821722476     -1.38952343954395
  N   -1.07815386411561      0.92638338496377      0.51202252184691
  H   -1.54996353874259      1.19103290883174      1.36789076428852
  H   -1.77757659855428      0.85205722970052     -0.21956618153205
  N   1.43518292016882      0.38984457185857     -0.70626972830267
  H   1.91915536167765      0.27590137867857     -1.58638817338017
  H   0.97276225807638      1.28980689092443     -0.69821083382746
