12
Coordinates from ORCA-job run
  C   -0.44821613540539     -0.41815642754420      0.68109178059697
  C   0.82974365090162     -0.24997382665554     -0.12664302790273
  Cl  -0.02112679170109     -1.14090585235352      2.27399909489109
  H   1.46630544510875      0.44386301283095      0.42658035676352
  H   -1.09176179288187     -1.17414226083613      0.21196594156552
  H   1.34773223862685     -1.21416768535555     -0.18717633801890
  N   -1.05672828884072      0.86385382498013      0.87064164134703
  H   -1.03775505022865      1.33549368065186     -0.02740197973473
  H   -2.01230123932210      0.77478351078423      1.18974190332193
  N   0.49580830834445      0.34031398589423     -1.42335068921578
  H   1.29695991496597      0.82215093560426     -1.80808178090687
  H   0.22933974043219     -0.38111289800071     -2.08136690270704
