12
Coordinates from ORCA-job run
  C   0.53938118481957     -0.23621457876803     -0.48384031442237
  C   -0.69005575273871     -0.05439238018739      0.01628748552673
  H   0.60183400214884     -0.77687516941562     -1.42490004507655
  C   1.79685298990147      0.24211486200226      0.15499704918396
  H   1.61510515931587      0.76490205525416      1.09412254933865
  H   2.46117930126713     -0.60574625490614      0.34536824915884
  H   2.32760341474727      0.91285181517597     -0.52681136310332
  N   -1.87764069793855     -0.56829962582715     -0.71051288327715
  O   -2.96816366720777     -0.30031739906833     -0.21577562560576
  O   -1.68283712589352     -1.20802407914676     -1.73486090792617
  C   -0.97931347808139      0.62924574100542      1.23581042274196
  N   -1.14494533034021      1.20075501388160      2.25011538346118
