12
Coordinates from ORCA-job run
  C   0.51358906588338     -0.21102826488651     -0.52222898191377
  C   -0.68639351479798     -0.06852316112793      0.05586358606708
  H   0.52919800642452     -0.72397012843245     -1.48066319192357
  C   1.79818435329340      0.27604992357910      0.05283555048612
  H   2.48884432338674     -0.56283788456721      0.17865014941563
  H   2.27332179436762      0.97545211078746     -0.64088992890426
  H   1.66426562362038      0.76961714344970      1.01540327971523
  N   -1.90582381147600     -0.58824900304924     -0.61149553631956
  O   -1.76207396406974     -1.19160060897731     -1.66588234267717
  O   -2.96853180919479     -0.36265656258405     -0.04080365163497
  C   -0.91390337051673      0.57440711715060      1.31004176880110
  N   -1.03067669692079      1.11433931865784      2.34816929888813
