12
Coordinates from ORCA-job run
  C   0.56831446053669     -0.05465645842340     -0.50543299785276
  C   -0.68999238588745     -0.02764781355284     -0.04634942703240
  H   0.68682749157835     -0.19735554390971     -1.57672324176112
  C   1.78530072855312      0.09046813190977      0.34088467585067
  H   2.42250420807722     -0.79104525181791      0.22613354561115
  H   2.37172551200489      0.95041370798500      0.00449799240979
  H   1.54606436461259      0.21725045862450      1.39681630677848
  N   -1.83197525953671     -0.17569547766060     -0.98218095667559
  O   -1.57703573023801     -0.40426190631553     -2.15660647651650
  O   -2.94935105833282     -0.04905023340457     -0.49114945871296
  C   -1.05241201950046      0.14909536807244      1.32320498767723
  N   -1.27997031186738      0.29348501849285      2.46790505022402
