12
Coordinates from ORCA-job run
  C   0.64952756083425      0.30791679207375      0.45587252258960
  C   -0.68166524527585      0.34041498166113      0.27781643743688
  H   1.01395752538943      0.93790217053220      1.26503765449583
  C   1.66248495616864     -0.47730067728233     -0.31098430879821
  H   2.53937650140713     -0.65532119402995      0.31213701452380
  H   1.98099335197836      0.08783999944463     -1.19225005584899
  H   1.27067450137689     -1.42757094162176     -0.66980677110850
  N   -1.36746418710462     -0.46389527252065     -0.75153000419667
  O   -2.50031121225210     -0.84713359606447     -0.47572422850352
  O   -0.75384716662866     -0.68984212846213     -1.79015444206406
  C   -1.56182878257890      1.11270146650117      1.09667474265409
  N   -2.25189780331459      1.77428839976840      1.78091143881976
