12
Coordinates from ORCA-job run
  C   0.48474503931903     -0.58219906342152      0.08843403157715
  C   -0.68377948659059      0.04694356860351     -0.09409340723376
  H   0.44717721083385     -1.66803758750916      0.12332957321183
  C   1.80117973574285      0.09713800338254      0.24175579044547
  H   2.25041922359394     -0.17682474257941      1.20066223174525
  H   2.48767328277254     -0.24409064051549     -0.53836705551047
  H   1.71862731131335      1.18272246822234      0.18897374013521
  N   -1.93932906718590     -0.73129456634729     -0.23712581684463
  O   -1.86060138745503     -1.95078398902922     -0.18289598104532
  O   -2.96321029430654     -0.07454805759738     -0.39976891570738
  C   -0.84215085677832      1.46380647644594     -0.16948758792188
  N   -0.90075071125917      2.63716813034516     -0.22141660285148
