12
Coordinates from ORCA-job run
  C   0.62757004610656      0.52443088105541      0.20894350051489
  C   -0.70166531114786      0.33479639731073      0.23020109958180
  H   0.96395835966221      1.44586379778481      0.68111121316132
  C   1.68016648728832     -0.36359334859249     -0.36443243475147
  H   1.32335339350236     -1.36741619794705     -0.57868308852648
  H   2.52709396430506     -0.41187971249547      0.32330701997310
  H   2.04721328459522      0.06682923001465     -1.30166522572424
  N   -1.34628263093043     -0.86720174333612     -0.33275507155889
  O   -2.28814478553227     -1.32371377824964      0.30826040462005
  O   -0.89177568763950     -1.31280191984946     -1.38204834500281
  C   -1.61053164884922      1.24487518516581      0.85262571212157
  N   -2.32895547136044      2.02881120913882      1.35413521559117
