12
Coordinates from ORCA-job run
  C   0.55334607585281     -0.46663448747470     -0.24053419069771
  C   -0.68473000887840      0.02438705290257     -0.09618372218652
  H   0.65212035681575     -1.34784563415879     -0.86951732435636
  C   1.77364743620294      0.10498651825426      0.39355896068033
  H   2.49632922685199      0.38478528125359     -0.37834177619436
  H   1.55489443745607      0.98004772691285      1.00571671239648
  H   2.25598605737507     -0.65198827303123      1.01865801732346
  N   -1.83099789996914     -0.61951025601430     -0.78492923043618
  O   -2.91465272727499     -0.05628035960634     -0.66587164939554
  O   -1.61172949659663     -1.64631211774159     -1.41270359511372
  C   -1.01914800357228      1.17239589441225      0.68387571443785
  N   -1.22506545426320      2.12196865429143      1.34627208354228
