12
Coordinates from ORCA-job run
  C   0.47172567866023     -0.58548582764691      0.12826541220868
  C   -0.68461000221125      0.05760117070148     -0.08157444725302
  H   0.40572321826667     -1.66171801307346      0.26679330002675
  C   1.80965837147263      0.06643682686416      0.18066700409271
  H   2.46319631206622     -0.36709780153309     -0.58185853833533
  H   2.28051663507375     -0.12971865570062      1.14830188222821
  H   1.75513373874952      1.14423845584325      0.02739237411030
  N   -1.96465830394551     -0.69314846855694     -0.11067053910154
  O   -1.91385306540679     -1.90762321641326      0.02641184125477
  O   -2.97877125816711     -0.02023490572832     -0.26936449258379
  C   -0.80782785567199      1.46523732565664     -0.28505138512753
  N   -0.83623346888638      2.62951310958707     -0.44831241152020
