12
Coordinates from ORCA-job run
  C   0.61073842563815      0.26957508307807      0.52922878285870
  C   -0.70298711935458      0.31723532031741      0.25263163618286
  H   0.90899208429454      0.82951866456202      1.41343453458600
  C   1.68328597417589     -0.44993475573046     -0.22096625887062
  H   2.51301867517834     -0.67750019751803      0.44895026925076
  H   1.32614255147667     -1.36799674745103     -0.68471214320576
  H   2.06223613038955      0.18563093614268     -1.02711888885763
  N   -1.30186402299118     -0.39887670688531     -0.89013933005687
  O   -2.44791824096261     -0.80908631604744     -0.73373461364118
  O   -0.60981135693902     -0.53319840304611     -1.89479596735314
  C   -1.64898160211958      1.01775318616845      1.06247762854836
  N   -2.39485149878619      1.61787993640974      1.74474435055853
