12
Coordinates from ORCA-job run
  C   0.51968116522361     -0.55338040824040     -0.06709328471262
  C   -0.69102255902165      0.01906378310603     -0.03445959174166
  H   0.54146732882480     -1.62515309530302     -0.24733111380071
  C   1.80772743114262      0.16917346870786      0.12586768140660
  H   2.44560866319065      0.03144638446125     -0.75192738529454
  H   1.66639126347493      1.23658314788189      0.29544949489812
  H   2.34649228509752     -0.25649369883623      0.97743358748093
  N   -1.91201332919649     -0.79975347383287     -0.23931752246280
  O   -2.97840159071332     -0.19382641061262     -0.19830903533223
  O   -1.76550744459026     -1.99912614024832     -0.42952952413854
  C   -0.92830121003303      1.40884218595900      0.18933393019513
  N   -1.05212200339940      2.56262425695744      0.37988276350234
