12
Coordinates from ORCA-job run
  C   0.56039171195773     -0.10637358977729     -0.50629890855487
  C   -0.68854997267992      0.05094066639355     -0.04786037411209
  H   0.66654914382944     -0.24537125381193     -1.57933733147305
  C   1.78475345810528     -0.09857749093923      0.34184275240895
  H   1.55922550642495      0.03908775338831      1.39935031300984
  H   2.45506093919223      0.70249196895703      0.01663075367558
  H   2.33022233592301     -1.03817130614116      0.21444043114091
  N   -1.83971191717999      0.02021243623199     -0.98395372808714
  O   -1.59772297178114     -0.08214357522435     -2.17861766625035
  O   -2.95180273693295      0.09836820047375     -0.47059820672580
  C   -1.03306220082031      0.24756459128580      1.32363419096833
  N   -1.24535329603834      0.40997159916354      2.46876777399969
