12
Coordinates from ORCA-job run
  C   0.50318345324397     -0.43553070617978     -0.37273362269632
  C   -0.69112598797601      0.03420982538854      0.01151209589187
  H   0.49260043721584     -1.24984916530555     -1.09270945819539
  C   1.81445741157844      0.07726831970928      0.11325872948987
  H   2.39500379913130     -0.74215447760035      0.54657648883301
  H   2.39525950861072      0.46573591512651     -0.72839069199231
  H   1.70395596833140      0.86515280333416      0.85820093142375
  N   -1.93923091480995     -0.55396436839011     -0.53492307394811
  O   -2.98815288164380     -0.08353897126726     -0.10538163758884
  O   -1.83030567186649     -1.45199490422717     -1.35848365695787
  C   -0.88507410161978      1.09649811223402      0.94545911133101
  N   -0.97257102019563      1.97816761717770      1.71861478440933
