12
Coordinates from ORCA-job run
  C   0.53223083152091     -0.53528564619867     -0.09211680098400
  C   -0.69099587701448      0.00038642453144      0.01553853167031
  H   0.56884223605363     -1.60773114222967     -0.26456426798458
  C   1.80868094111669      0.22570175622990      0.00366169533357
  H   2.40043835253983     -0.14989894098261      0.84361656302040
  H   2.40360278703043      0.05964501860461     -0.89976728134794
  H   1.64725789934405      1.29585807928505      0.13586547924836
  N   -1.89428658667596     -0.86305329717790     -0.09108390514600
  O   -1.72441054684244     -2.04931554608487     -0.33623151455702
  O   -2.97272177122815     -0.30389137138436      0.08319693660926
  C   -0.96108675950417      1.38644088940289      0.22516588385685
  N   -1.11655150634035      2.54214377600418      0.37671868028078
