12
Coordinates from ORCA-job run
  C   0.63689166923058      0.42102510499544      0.37819941672261
  C   -0.69588547745148      0.26196014427663      0.32409638001025
  H   0.97623678032117      1.17037561613717      1.09065082662022
  C   1.68205072410185     -0.29829460568236     -0.40983189584335
  H   1.95406717945082     -1.22861575130131      0.09802577410071
  H   1.34085321517820     -0.57083014464243     -1.40707594366571
  H   2.57738915386660      0.31933123817266     -0.48579056491081
  N   -1.34701890670091     -0.68841197495933     -0.59773085346896
  O   -0.73530018666577     -1.71706638967333     -0.86965876888403
  O   -2.45151624572259     -0.36284228900184     -1.02244865081922
  C   -1.60888641721161      1.02790702246354      1.11223543198286
  N   -2.32788148839686      1.66546202921517      1.78932884815544
