12
Coordinates from ORCA-job run
  C   0.62849480733662      0.29869600722397      0.48990485143221
  C   -0.68838594091181      0.36000081770695      0.23307812686481
  H   0.96122499584451      0.93190315283181      1.31000786250464
  C   1.66578614350569     -0.51899386212635     -0.20741198496281
  H   2.50059000086109     -0.70715524611115      0.46812958976037
  H   2.04717190885677      0.02871225685053     -1.07455730942926
  H   1.27426224703915     -1.46546682030237     -0.57629647415471
  N   -1.33164199201355     -0.44461703548012     -0.82354025643089
  O   -0.66501554579576     -0.69827939254928     -1.82233194823251
  O   -2.48569787875094     -0.80188877668252     -0.60674894568401
  C   -1.59646656470160      1.16537482820155      0.98716429762432
  N   -2.31032218127017      1.85071407043699      1.62160219070784
