12
Coordinates from ORCA-job run
  C   0.61455924236595      0.27266660469707      0.52303832720241
  C   -0.69562652787315      0.34430031036403      0.23550612174283
  H   0.92245113772386      0.85987964438109      1.38599481889252
  C   1.67249325750194     -0.50278990280997     -0.19108921638946
  H   2.07271473738044      0.09124030755247     -1.01831378036313
  H   2.49170310996201     -0.72605275346300      0.49291601432343
  H   1.29405790371476     -1.42848524326083     -0.62137243904240
  N   -1.30735097425102     -0.40069574026011     -0.88180987454391
  O   -0.61374717772099     -0.59398189467919     -1.87571924922922
  O   -2.46533691382969     -0.77237391264715     -0.71705222973649
  C   -1.62692052674495      1.10340117146954      1.00886913490614
  N   -2.35999726822916      1.75289140865607      1.65903237223729
