12
Coordinates from ORCA-job run
  C   0.61714349746067      0.26401562544039      0.52282587119914
  C   -0.69652119477320      0.33239491750626      0.24997449676536
  H   0.92918741351152      0.83081785530220      1.39793983734991
  C   1.67467918281419     -0.48449933210835     -0.21989757556989
  H   2.50253813445639     -0.71812173460436      0.45025573537438
  H   1.30090791702173     -1.40168334695201     -0.67161438465770
  H   2.06305996099840      0.13703626633479     -1.03277250996137
  N   -1.31410360799596     -0.38910374816526     -0.87887516141154
  O   -0.62945208098651     -0.55208667411318     -1.88445134357932
  O   -2.46793720163670     -0.77287523035052     -0.71249832651794
  C   -1.62519831404745      1.06400431916792      1.05263076198921
  N   -2.35630370682310      1.69010108254212      1.72748259901976
