12
Coordinates from ORCA-job run
  C   0.65358738151647      0.52695684238514      0.14153029526458
  C   -0.68047866532073      0.38679126950405      0.21663491259843
  H   1.02943255010490      1.49516784538118      0.46532074082564
  C   1.66028623395097     -0.47698116884546     -0.31649839938673
  H   2.54546007155359      0.03645375812545     -0.69275961746451
  H   1.27114981022643     -1.14185866320125     -1.08542497612534
  H   1.96781454016351     -1.10395760164785      0.52634179735726
  N   -1.37500647566353     -0.84744175374559     -0.19996235251519
  O   -0.77970332778386     -1.90942477281140     -0.04250305362166
  O   -2.49359896806067     -0.70218995147709     -0.68505245809784
  C   -1.55566993063122      1.43070451936715      0.64707245786215
  N   -2.24327322005587      2.30577967696568      1.02530065330319
