12
Coordinates from ORCA-job run
  C   0.65136562954134      0.34797080988018      0.42534057643784
  C   -0.67170944607142      0.40726573929680      0.20144874685537
  H   1.02990740516191      1.10647231847622      1.10719881853874
  C   1.63863543288198     -0.61655440419836     -0.14551303021869
  H   1.38157633842562     -0.92872127759686     -1.15671182366459
  H   2.63418293889431     -0.17205325123321     -0.14457876484297
  H   1.66969269636488     -1.52202584980348      0.46767680808409
  N   -1.36615999723697     -0.51628090465022     -0.71682738414489
  O   -0.92164046849008     -1.65609164929563     -0.81114075151561
  O   -2.33347302795264     -0.05797306224585     -1.31709387519689
  C   -1.52176825989276      1.39528472752862      0.78678051502743
  N   -2.19160924162615      2.21270680384180      1.30142016464017
