16

C	-0.468924	0.007455	-1.431114
C	0.0	0.0	0.0
Br	0.19558	-1.497771	-2.479065
H	1.090327	0.0	0.0
N	-2.007442	-0.060836	-1.56804
O	-2.572472	-0.794211	-0.772478
O	-2.517962	0.576921	-2.475831
C	0.006682	1.209895	-2.107513
N	0.431432	2.160279	-2.654156
N	-0.355913	-1.176011	0.80615
O	0.137865	-2.236994	0.421373
O	-1.041988	-1.028353	1.818055
N	-0.440172	1.210285	0.673329
O	0.114728	1.463419	1.744859
O	-1.271112	1.93756	0.101086
H	2.340493	0.0	0.0
