16

C	-0.516941	-0.033605	-1.412131
C	0.0	0.0	0.0
Br	-2.39969	-0.554596	-1.585005
H	1.08939	0.0	0.0
N	-0.313852	1.378461	-2.050482
O	0.72119	1.926356	-1.703054
O	-1.111934	1.75441	-2.888287
C	0.270312	-0.908444	-2.276505
N	0.913885	-1.515141	-3.052494
N	-0.283431	-1.240849	0.700245
O	-0.166002	-2.258983	0.002209
O	-0.499577	-1.231725	1.91333
N	-0.445025	1.16344	0.739239
O	-1.328638	1.884827	0.245083
O	0.154412	1.389796	1.795835
H	2.272224	0.0	0.0
