16

C	-0.516078	0.001241	-1.422115
C	0.0	0.0	0.0
Br	0.158358	-1.570806	-2.318195
H	1.089705	0.0	0.0
N	-2.082491	0.03928	-1.513464
O	-2.663709	-0.806343	-2.163173
O	-2.562005	0.955541	-0.862142
C	-0.076261	1.170282	-2.168584
N	0.244036	2.087466	-2.832225
N	-0.490195	-1.176873	0.769797
O	0.288531	-1.619573	1.607332
O	-1.53944	-1.725136	0.372357
N	-0.4162	1.21942	0.767729
O	-1.031301	1.046924	1.826192
O	0.086608	2.260611	0.363046
H	2.430857	0.0	0.0
