14

C	-0.52199	0.129349	-1.409875
C	0.0	0.0	0.0
F	-0.174348	-0.972309	-2.123358
H	1.089486	0.0	0.0
H	-0.305319	-0.996469	0.335073
N	-1.928382	0.296064	-1.510958
H	-2.246837	1.033928	-0.897098
H	-2.196013	0.491263	-2.468899
N	0.171325	1.305854	-2.136463
O	0.360167	2.315036	-1.471783
O	0.35293	1.18842	-3.344552
C	-0.563355	0.987221	0.900053
N	-1.049905	1.76496	1.634823
H	2.719421	0.0	0.0
