14

C	-0.291903	0.140203	-1.481432
C	0.0	0.0	0.0
F	-1.622355	0.376135	-1.737208
H	1.092311	0.0	0.0
H	-0.408168	-0.919403	0.42075
N	0.488851	1.107402	-2.159344
H	0.224322	2.014731	-1.789351
H	1.464016	0.940325	-1.886076
N	-0.013532	-1.236269	-2.111123
O	0.896437	-1.341937	-2.921248
O	-0.755888	-2.140653	-1.734621
C	-0.485371	1.164539	0.712895
N	-0.867071	2.121145	1.279522
H	2.709799	0.0	0.0
