14

C	-0.505804	0.035958	-1.4201
C	0.0	0.0	0.0
F	0.068219	-0.983121	-2.140708
H	1.090304	0.0	0.0
H	-0.333072	0.893769	0.528517
N	-1.918479	0.042317	-1.556375
H	-2.312932	-0.702064	-0.994387
H	-2.15871	-0.106402	-2.5307
N	-0.054808	1.323618	-2.115988
O	0.139879	2.311641	-1.42308
O	-0.016803	1.278803	-3.342504
C	-0.521391	-1.18606	0.654045
N	-0.963746	-2.146795	1.168004
H	2.718797	0.0	0.0
