14

C	-0.257421	0.192891	-1.47356
C	0.0	0.0	0.0
F	-1.558864	0.562755	-1.792403
H	1.09774	0.0	0.0
H	-0.395293	-0.945357	0.363621
N	0.658115	1.082115	-2.009067
H	1.584107	0.923137	-1.583068
H	0.688603	1.028696	-3.01839
N	-0.214627	-1.212226	-2.188307
O	-0.591393	-2.206643	-1.575115
O	0.128962	-1.200367	-3.369127
C	-0.506823	1.114159	0.774303
N	-0.89617	2.001198	1.438789
H	2.715645	0.0	0.0
