14

C	-0.333184	0.11051	-1.482319
C	0.0	0.0	0.0
F	-1.50139	0.793638	-1.68873
H	1.091741	0.0	0.0
H	-0.291389	0.95147	0.456317
N	0.698714	0.71311	-2.255757
H	1.602276	0.453124	-1.830313
H	0.602003	1.716947	-2.156429
N	-0.558088	-1.295218	-2.050862
O	-1.700803	-1.624782	-2.348907
O	0.447111	-1.987314	-2.138778
C	-0.614633	-1.095708	0.717574
N	-1.094211	-1.981278	1.323981
H	2.717904	0.0	0.0
