14

C	-0.379613	0.014888	-1.455104
C	0.0	0.0	0.0
F	-1.704653	0.355148	-1.693043
H	1.091831	0.0	0.0
H	-0.377199	-0.879525	0.520794
N	0.455764	0.827379	-2.16809
H	1.338356	1.067739	-1.749795
H	0.132307	1.264161	-3.009483
N	-0.399172	-1.471952	-2.019915
O	-0.364485	-1.568549	-3.23984
O	-0.513188	-2.408353	-1.233523
C	-0.478512	1.210658	0.635075
N	-0.836342	2.193091	1.171538
H	2.734798	0.0	0.0
