14

C	-0.240189	0.13078	-1.483405
C	0.0	0.0	0.0
F	-0.256576	1.477928	-1.846121
H	1.096825	0.0	0.0
H	-0.323764	-0.982932	0.342091
N	0.699303	-0.63431	-2.166215
H	1.624169	-0.511534	-1.722454
H	0.70511	-0.422745	-3.154505
N	-1.641383	-0.318835	-1.9457
O	-2.457466	-0.669782	-1.099209
O	-1.837233	-0.293458	-3.158191
C	-0.5944	1.04723	0.801006
N	-1.055075	1.884467	1.484013
H	2.733859	0.0	0.0
