14

C	-0.280812	0.138466	-1.485972
C	0.0	0.0	0.0
F	-1.590494	0.457087	-1.751644
H	1.094384	0.0	0.0
H	-0.415022	-0.914553	0.424577
N	0.564749	1.043195	-2.172469
H	0.327399	1.975126	-1.846878
H	1.523182	0.847046	-1.856965
N	-0.087484	-1.263319	-2.092637
O	-0.928722	-2.096685	-1.762876
O	0.867901	-1.456548	-2.831571
C	-0.476505	1.1707	0.708384
N	-0.834039	2.134751	1.277938
H	2.706789	0.0	0.0
