19

C	0.0	0.0	0.0
C	-0.265235	-0.089558	-1.548241
F	1.360179	0.0	0.0
H	0.475691	-0.857837	-1.798498
N	-0.567877	1.21207	0.639932
O	-1.753323	0.945417	1.139212
O	-0.212211	2.336098	0.189661
N	-0.450462	-1.194133	0.640823
H	-1.473806	-1.122876	0.594314
H	-0.226688	-1.090267	1.628458
C	0.138068	1.180988	-2.297698
H	-0.602451	1.967838	-2.158123
H	1.096781	1.566666	-1.954405
H	0.208654	0.945946	-3.367943
C	-1.590948	-0.604554	-2.10648
H	-1.42696	-0.828644	-3.171604
H	-2.390479	0.124504	-2.013669
H	-1.923059	-1.516849	-1.611829
H	-2.969483	0.0	0.0
