19

C	0.0	0.0	0.0
C	-0.230477	0.071347	-1.555534
F	1.360663	0.0	0.0
H	0.172835	-0.920383	-1.823088
N	-0.360192	1.298951	0.729543
O	-0.517557	2.308501	0.04692
O	-0.361787	1.266493	1.954112
N	-0.608758	-1.051744	0.699196
H	-1.631177	-0.804922	0.69976
H	-0.521383	-1.889062	0.131744
C	0.655779	1.094629	-2.287514
H	1.668303	1.148329	-1.889349
H	0.723568	0.802364	-3.340821
H	0.208817	2.086232	-2.24104
C	-1.633424	0.15136	-2.134291
H	-1.5557	-0.023361	-3.216348
H	-2.069339	1.134108	-1.957504
H	-2.331187	-0.54149	-1.669465
H	-3.261429	0.0	0.0
