19

C	0.0	0.0	0.0
C	-0.506146	0.101123	-1.429145
F	1.369257	0.0	0.0
H	-1.549004	0.432551	-1.322128
N	-0.248409	1.368278	0.767804
O	-0.70242	2.346011	0.189534
O	0.06305	1.344814	1.95959
N	-0.586388	-1.037455	0.70866
H	-1.625172	-0.872402	0.565686
H	-0.370067	-0.928262	1.694559
C	-0.521809	-1.288857	-2.063249
H	-1.231379	-1.937935	-1.553435
H	-0.820249	-1.202827	-3.11385
H	0.468956	-1.752958	-2.023646
C	0.316095	1.059344	-2.288091
H	-0.12678	1.109724	-3.287616
H	1.348215	0.710054	-2.396248
H	0.326922	2.06825	-1.876148
H	-3.049688	0.0	0.0
