19

C	0.0	0.0	0.0
C	-0.37835	-0.054257	-1.504484
F	1.365792	0.0	0.0
H	0.559391	0.229157	-1.993399
N	-0.188609	1.484288	0.552587
O	0.259039	2.398772	-0.134456
O	-0.664162	1.618118	1.676315
N	-0.632173	-0.919354	0.812007
H	-0.477408	-0.682043	1.786441
H	-1.658376	-0.789175	0.617431
C	-1.469679	0.890998	-2.011128
H	-1.659123	0.656547	-3.065559
H	-1.157108	1.933683	-1.945481
H	-2.385057	0.73129	-1.430353
C	-0.709905	-1.49676	-1.894093
H	0.033681	-2.203171	-1.516906
H	-1.689556	-1.768075	-1.496191
H	-0.744225	-1.572277	-2.986235
H	-3.283898	0.0	0.0
