19

C	0.0	0.0	0.0
C	-0.152834	-0.211711	-1.561019
F	1.360554	0.0	0.0
H	0.57675	0.503386	-1.953772
N	-0.640679	1.259226	0.383944
O	-0.275605	2.297325	-0.235221
O	-1.832812	1.03915	0.878066
N	-0.440213	-1.044125	0.858586
H	-1.461651	-1.067752	0.817805
H	-0.062459	-1.89207	0.453634
C	-1.477093	0.088443	-2.229486
H	-1.370354	-0.082538	-3.308171
H	-1.74475	1.127177	-2.077349
H	-2.28804	-0.522573	-1.84021
C	0.351257	-1.605284	-1.981363
H	1.264999	-1.921963	-1.474032
H	-0.411395	-2.376266	-1.8449
H	0.588313	-1.609383	-3.055419
H	-3.003158	0.0	0.0
