19

C	0.0	0.0	0.0
C	-0.3235	0.078121	-1.512853
F	1.397142	0.0	0.0
H	0.579739	0.549869	-1.915448
N	-0.181386	1.417589	0.68013
O	0.144518	2.40539	0.031177
O	-0.528348	1.435199	1.856598
N	-0.624534	-0.998458	0.713975
H	-1.650412	-0.869863	0.516141
H	-0.481936	-0.856644	1.709395
C	-1.517659	0.895135	-1.996688
H	-1.526552	0.850121	-3.094356
H	-1.433123	1.93909	-1.697756
H	-2.445015	0.501907	-1.574719
C	-0.400628	-1.350341	-2.058767
H	0.436815	-1.966005	-1.714976
H	-0.386901	-1.319276	-3.15299
H	-1.33421	-1.819751	-1.735962
H	-3.283681	0.0	0.0
