15

C	0.0	0.0	0.0
C	-0.458988	0.478336	-1.381005
Br	1.976019	0.0	0.0
H	-0.024661	1.474244	-1.529191
H	-1.543919	0.584685	-1.274002
N	-0.482469	0.782423	1.103274
H	-1.49798	0.623391	1.131564
H	-0.341179	1.762483	0.877796
C	-0.354552	-1.411588	0.222874
N	-0.56897	-2.55275	0.401623
C	-0.136416	-0.442933	-2.548425
H	-0.65156	-1.398074	-2.433652
H	0.935649	-0.629891	-2.64278
H	-0.486967	0.012015	-3.478948
Br	-3.720994	0.0	0.0
