15

C	0.0	0.0	0.0
C	-0.446432	-0.512479	-1.376637
Br	1.975967	0.0	0.0
H	-1.527837	-0.341501	-1.39941
H	0.023472	0.140911	-2.120624
N	-0.480161	1.307614	0.346927
H	-0.337506	1.915885	-0.454654
H	-1.49677	1.197908	0.461732
C	-0.353807	-0.94788	1.067057
N	-0.565075	-1.7203	1.926763
C	-0.150891	-1.976469	-1.664181
H	-0.705501	-2.614418	-0.973823
H	-0.476459	-2.224682	-2.677236
H	0.91383	-2.207126	-1.580472
Br	-3.705509	0.0	0.0
