15

C	0.0	0.0	0.0
C	-0.487996	0.174645	-1.432192
Br	2.03929	0.0	0.0
H	-1.578149	0.271711	-1.327095
H	-0.078105	1.122676	-1.800223
N	-0.511461	0.978114	0.836453
H	-0.309698	0.895811	1.818188
H	-0.498614	1.916929	0.474486
C	-0.296649	-1.337115	0.529812
N	-0.487345	-2.407933	0.9736
C	-0.142466	-0.973672	-2.367803
H	0.928499	-1.188499	-2.379017
H	-0.451884	-0.723244	-3.385202
H	-0.681032	-1.875776	-2.071749
Br	-3.959266	0.0	0.0
