15

C	0.0	0.0	0.0
C	-0.484963	-0.49171	-1.362192
Br	1.968603	0.0	0.0
H	-1.5717	-0.357071	-1.340718
H	-0.064577	0.196082	-2.102023
N	-0.491931	1.326516	0.231782
H	-0.286112	1.609422	1.184474
H	-1.514566	1.260148	0.143534
C	-0.326512	-0.968328	1.068433
N	-0.535641	-1.738246	1.932641
C	-0.158853	-1.942105	-1.684431
H	0.916264	-2.138579	-1.669758
H	-0.536654	-2.186905	-2.680522
H	-0.648092	-2.612233	-0.973555
Br	-3.742814	0.0	0.0
