15

C	0.0	0.0	0.0
C	-0.46552	0.099697	-1.452596
Br	1.973814	0.0	0.0
H	0.005248	0.99767	-1.863211
H	-1.546376	0.266467	-1.400861
N	-0.493015	1.121729	0.742338
H	-0.293084	0.996135	1.729288
H	-1.515757	1.096666	0.629666
C	-0.329652	-1.31596	0.586164
N	-0.531298	-2.361811	1.085248
C	-0.184788	-1.131626	-2.301004
H	0.867379	-1.425574	-2.27024
H	-0.448661	-0.927827	-3.342019
H	-0.794696	-1.971829	-1.963014
Br	-3.717036	0.0	0.0
