15

C	0.0	0.0	0.0
C	-0.457706	0.279459	-1.440271
Br	1.976256	0.0	0.0
H	0.06538	-0.406547	-2.112846
H	-1.525928	0.036973	-1.445432
N	-0.497108	0.871189	1.025333
H	-1.514792	0.721412	1.041858
H	-0.331155	1.831379	0.743771
C	-0.33333	-1.391084	0.351906
N	-0.529932	-2.515831	0.627606
C	-0.267926	1.726686	-1.873275
H	-0.486085	1.822991	-2.939576
H	-0.966497	2.379334	-1.345891
H	0.753601	2.077945	-1.70548
Br	-3.719007	0.0	0.0
