15

C	0.0	0.0	0.0
C	-0.351853	0.458408	-1.420188
Br	2.040175	0.0	0.0
H	-0.01128	1.497265	-1.499117
H	0.251802	-0.123699	-2.119211
N	-0.557683	0.796086	1.01809
H	-1.048736	1.594472	0.645405
H	-1.160199	0.287229	1.648605
C	-0.302248	-1.420172	0.190233
N	-0.538111	-2.561901	0.336424
C	-1.834022	0.329206	-1.747356
H	-2.48681	0.96067	-1.146023
H	-1.981506	0.584604	-2.801437
H	-2.200772	-0.686563	-1.592966
Br	-4.865539	0.0	0.0
