15

C	0.0	0.0	0.0
C	-0.508116	-0.090777	-1.432901
Br	2.048091	0.0	0.0
H	-0.002014	-0.925632	-1.923218
H	-1.576308	-0.322027	-1.313503
N	-0.521235	1.082601	0.685733
H	-0.372762	1.106538	1.680517
H	-0.456708	1.975034	0.228004
C	-0.27669	-1.243243	0.730427
N	-0.448854	-2.234536	1.336521
C	-0.349414	1.198934	-2.225062
H	-1.050975	1.956219	-1.867315
H	0.673491	1.585907	-2.178371
H	-0.594625	1.015643	-3.273613
Br	-3.964231	0.0	0.0
