16

C	0.0	0.0	0.0
C	-0.472486	0.11333	-1.43094
F	1.432653	0.0	0.0
H	-1.566873	0.175575	-1.366656
H	-0.215804	-0.82488	-1.951174
C	-0.510469	1.122409	0.85979
H	-0.210557	2.078844	0.434431
H	-0.108066	1.031266	1.874574
H	-1.605484	1.037424	0.868199
N	-0.419902	-1.257964	0.516887
H	-0.278639	-1.301305	1.517373
H	0.093273	-2.005153	0.067516
N	0.092957	1.30387	-2.070596
H	-0.354077	1.436055	-2.969826
H	1.080821	1.145098	-2.234348
H	-3.725039	0.0	0.0
