16

C	0.0	0.0	0.0
C	-0.435349	-0.078026	-1.460952
F	1.420418	0.0	0.0
H	0.324407	0.463145	-2.040296
H	-0.360881	-1.142702	-1.759741
C	-0.443704	1.268952	0.691388
H	-1.53089	1.275843	0.776197
H	-0.121249	2.139264	0.118541
H	0.014907	1.308452	1.686045
N	-0.46477	-1.13641	0.715115
H	-0.063527	-1.983656	0.334881
H	-0.248269	-1.063924	1.700347
N	-1.732212	0.543129	-1.65715
H	-2.461465	0.221224	-0.983263
H	-2.086644	0.303961	-2.576051
H	-3.977876	0.0	0.0
