16

C	0.0	0.0	0.0
C	-0.464581	-0.016295	-1.4505
F	1.404035	0.0	0.0
H	-1.552373	0.118289	-1.382821
H	-0.020662	0.834383	-1.987639
C	-0.451662	1.270243	0.686065
H	-0.049524	2.14461	0.164424
H	-1.547051	1.290648	0.677541
H	-0.082595	1.263657	1.714361
N	-0.465256	-1.140268	0.736355
H	-0.329792	-1.938182	0.118675
H	-1.483421	-1.001697	0.793689
N	-0.161844	-1.305891	-2.088823
H	0.611951	-1.214075	-2.733342
H	-0.972534	-1.616264	-2.608862
H	-3.302132	0.0	0.0
