16

C	0.0	0.0	0.0
C	-0.438657	-0.004396	-1.451699
F	1.416368	0.0	0.0
H	-0.193497	-0.999766	-1.851117
H	-1.529727	0.109329	-1.434665
C	-0.410298	1.273418	0.713263
H	-1.505146	1.289481	0.732206
H	-0.017337	1.255456	1.736641
H	-0.022329	2.148012	0.188656
N	-0.495394	-1.200843	0.61264
H	-0.360023	-1.114114	1.617148
H	-1.519581	-1.132145	0.470315
N	0.186961	1.098119	-2.189505
H	-0.200355	1.122061	-3.125069
H	1.176011	0.898024	-2.27223
H	-3.243755	0.0	0.0
