16

C	0.0	0.0	0.0
C	-0.3724	-0.051493	-1.490331
F	1.403071	0.0	0.0
H	-0.23029	0.97061	-1.884903
H	0.395256	-0.681843	-1.957289
C	-0.464861	1.267741	0.686392
H	-0.050732	2.152433	0.194095
H	-0.131727	1.263354	1.730378
H	-1.558824	1.289808	0.653395
N	-0.435874	-1.198846	0.65291
H	-1.288446	-1.515957	0.199521
H	-0.663126	-1.00079	1.620367
N	-1.680499	-0.63745	-1.723193
H	-2.426628	-0.270484	-1.090828
H	-1.976573	-0.455241	-2.674246
H	-3.677016	0.0	0.0
