16

C	0.0	0.0	0.0
C	-0.381626	-0.089559	-1.485039
F	1.402741	0.0	0.0
H	0.391882	-0.712838	-1.949298
H	-0.267743	0.929189	-1.901102
C	-0.466464	1.284182	0.652994
H	-1.560319	1.306868	0.614041
H	-0.137891	1.307443	1.697512
H	-0.0495	2.155108	0.139446
N	-0.428176	-1.183029	0.686174
H	-1.278599	-1.521089	0.244957
H	-0.647476	-0.966918	1.650571
N	-1.683553	-0.701298	-1.698394
H	-2.430282	-0.32575	-1.067019
H	-1.992193	-0.525909	-2.649464
H	-3.682217	0.0	0.0
