16

C	0.0	0.0	0.0
C	-0.286603	0.054633	-1.516347
F	1.399982	0.0	0.0
H	0.467874	0.736153	-1.938003
H	-0.026522	-0.953281	-1.896034
C	-0.458755	1.248828	0.72033
H	-0.045202	2.132086	0.230155
H	-0.104799	1.201443	1.753334
H	-1.55072	1.297094	0.704145
N	-0.507168	-1.153612	0.68478
H	-0.387172	-1.965762	0.083695
H	-1.516899	-1.004156	0.764814
N	-1.617431	0.515149	-1.867564
H	-2.324226	0.270244	-1.141763
H	-1.922616	0.045097	-2.71431
H	-3.470346	0.0	0.0
