15
Coordinates from ORCA-job run
  C   0.79190137052417     -0.36752994597219      0.17671467558360
  C   -0.47216601205464      0.16173803881935     -0.51739211548051
  F   1.02382948720832     -1.64910800886279     -0.39591771858603
  H   -0.17781927242215      0.32423142852193     -1.56793202127126
  C   0.54043471679761     -0.60540612924965      1.61098192405029
  N   0.35224978070080     -0.76404614128194      2.75823499140542
  N   1.89163248264021      0.48987794347618      0.02280003441210
  H   2.00051498143370      0.80062503045990     -0.93208383899095
  H   2.74596779666376      0.07660333972882      0.37094558374164
  N   -0.83753203411162      1.44008969104140      0.03446120270825
  H   -1.49054644122464      1.91550917392493     -0.57469116351581
  H   -1.28799447914829      1.29590736399805      0.93220566556659
  N   -1.51123686658968     -0.84446600656385     -0.34942612002680
  H   -1.21900645312305     -1.73072097630913     -0.74287570090319
  H   -2.35122905729448     -0.54330480173100     -0.82802539869333
