15
Coordinates from ORCA-job run
  C   0.80843243896753     -0.37086107071325      0.15099194980410
  C   -0.50884127002907     -0.01421245569500     -0.55472321181243
  F   1.30731821460472     -1.52772073686324     -0.44828330811635
  H   -0.24565915789325      0.06019881788243     -1.62391515980334
  C   0.55919972468615     -0.68918661796862      1.56878079021948
  N   0.36771422449348     -0.96489467570972      2.69293737011303
  N   1.73411527790673      0.70754512143425      0.05470689155434
  H   1.99558196537218      0.83617743637739     -0.91692904562817
  H   2.57067914359281      0.51815145162151      0.59308727398557
  N   -1.00653284831835      1.21070321334067      0.04504105228530
  H   -0.29072360344632      1.92645439647945      0.05853481796301
  H   -1.81279335130143      1.54616020621190     -0.46670363328885
  N   -1.43721220416440     -1.10855852538897     -0.41259827355951
  H   -1.95980595744027     -0.98339071290963      0.44710749506805
  H   -2.08347259703051     -1.14656584809917     -1.18803500878423
