15
Coordinates from ORCA-job run
  C   0.74976047009361     -0.32792397784324      0.06836583907334
  C   -0.69874428662924      0.16910817473658     -0.00506769024910
  F   1.01326478773220     -1.11316512944061     -1.03400845745073
  H   -0.88192038677389      0.72096622791887      0.93221763897785
  C   0.92337349143701     -1.18740505460598      1.26605615791757
  N   1.14702884701472     -1.77863474294518      2.25560702802390
  N   1.67424412699190      0.77520393123013      0.01764304046491
  H   1.58703610010948      1.34100361032059      0.85450183250153
  H   2.62285839658313      0.41914756632761     -0.02601684304772
  N   -1.55746298193989     -0.99257033898884      0.01483697331164
  H   -2.50460015339884     -0.73219790805254      0.25634135229617
  H   -1.56612493604597     -1.38443757431163     -0.92023966091520
  N   -0.83478282704534      0.97242478028991     -1.20780276669531
  H   -0.01716825852878      1.55918715749656     -1.32921136173225
  H   -1.65676238960010      1.55929327786779     -1.14222308247660
