15
Coordinates from ORCA-job run
  C   0.63699410437448     -0.28595204246647      0.50875408390864
  C   -0.48211928552189      0.27737585565744     -0.38872904804093
  F   0.01367203205310     -1.20781386943784      1.39244751654462
  H   -0.04671612647959      1.15263020418536     -0.88621980073062
  C   1.16391861799842      0.78335285795639      1.38180621243951
  N   1.58254811511462      1.65411960590578      2.04858700555481
  N   1.64041754579069     -0.88169369945674     -0.23779000140830
  H   1.39940415856754     -1.08704135592118     -1.19327974713516
  H   2.60186416511180     -0.75049410244846      0.01206755394529
  N   -1.64912341970613      0.62152153606111      0.40662164484645
  H   -1.47105346696329      0.60085342719310      1.40081336843246
  H   -2.01266986270147      1.52924048292443      0.15448876688651
  N   -0.74973495012084     -0.70550812948094     -1.42796727498239
  H   -1.32889191870357     -1.42927213053503     -1.01424313365249
  H   -1.29950970881387     -0.27131864013694     -2.15935714660840
