15
Coordinates from ORCA-job run
  C   0.65355063092666     -0.32057641139084      0.49765892834360
  C   -0.42311244804769      0.41708583524256     -0.31076503112915
  F   -0.03925753431618     -1.40013062764561      1.12353105859003
  H   0.03269876608476      1.34053424262031     -0.68093418205426
  C   1.15659058173921      0.51975741551445      1.59821430472558
  N   1.62372452189772      1.18628612033661      2.44351956768030
  N   1.68968386578262     -0.79069283818933     -0.30408352106125
  H   2.63552508251142     -0.65297555737967      0.00014578848681
  H   1.50410503712255     -0.76376952682289     -1.29297671156348
  N   -1.49269681563527      0.78192051231789      0.59164449583465
  H   -1.92835901891266     -0.04785927128250      0.97380544222677
  H   -2.19295568659668      1.33762977174326      0.11809994606439
  N   -0.71336107658349     -0.41348963417585     -1.47573327515486
  H   -1.33727803536662      0.07497376953935     -2.10580365765303
  H   -1.16885787060634     -1.26869380042773     -1.17632315333608
