15

C	-0.396448	0.057933	-1.459677
C	0.0	0.0	0.0
Cl	-2.173746	0.382247	-1.713899
H	1.104373	0.0	0.0
H	0.121405	0.890004	-1.944468
C	-0.079332	-1.176521	-2.173452
N	0.15527	-2.147519	-2.790536
N	-0.448399	-1.243234	0.609152
H	0.334747	-1.638706	1.118725
H	-1.210846	-1.082445	1.255079
C	-0.411171	1.25325	0.755203
H	0.108254	1.255973	1.717069
H	-1.49203	1.298755	0.928026
H	-0.108626	2.156557	0.216009
H	2.82081	0.0	0.0
