15

C	-0.395223	0.025076	-1.462259
C	0.0	0.0	0.0
Cl	-2.175205	0.328029	-1.72265
H	1.097273	0.0	0.0
H	0.115032	0.852746	-1.9619
C	-0.067638	-1.220253	-2.149744
N	0.181866	-2.219434	-2.712628
N	-0.449619	-1.229391	0.635862
H	-1.215875	-1.054625	1.273747
H	0.331628	-1.609527	1.159602
C	-0.415698	1.268966	0.725946
H	-0.109183	2.160722	0.170452
H	-1.497842	1.318065	0.890337
H	0.096656	1.292012	1.691439
H	2.825068	0.0	0.0
