15

C	-0.510843	0.032654	-1.445986
C	0.0	0.0	0.0
Cl	0.033723	-1.39542	-2.397367
H	1.095337	0.0	0.0
H	-1.606876	-0.02795	-1.447766
C	-0.142324	1.244062	-2.175956
N	0.087356	2.233338	-2.766808
N	-0.410903	-1.214015	0.696464
H	0.309179	-1.911843	0.544722
H	-1.286259	-1.579789	0.33647
C	-0.504376	1.230957	0.736907
H	-0.118574	1.179688	1.755865
H	-0.140179	2.154483	0.279562
H	-1.601377	1.260969	0.785396
H	2.890396	0.0	0.0
