15

C	-0.313942	0.053322	-1.491619
C	0.0	0.0	0.0
Cl	-2.071469	0.3826	-1.853457
H	1.097633	0.0	0.0
H	0.243692	0.875268	-1.947442
C	0.030056	-1.192775	-2.170551
N	0.281547	-2.191687	-2.732373
N	-0.464748	-1.19415	0.681495
H	0.185148	-1.950039	0.494637
H	-1.388624	-1.469309	0.367873
C	-0.460968	1.255196	0.715934
H	-0.138067	2.153786	0.180484
H	0.004428	1.260721	1.702905
H	-1.548299	1.28688	0.836984
H	2.846622	0.0	0.0
