15

C	-0.57707	-6.3e-05	-1.409122
C	0.0	0.0	0.0
Cl	-0.01146	-1.412504	-2.37417
H	1.10117	0.0	0.0
H	-1.662675	-0.121997	-1.335616
C	-0.286828	1.219396	-2.161022
N	-0.054194	2.20034	-2.763245
N	-0.526538	-1.205832	0.67054
H	-0.281054	-1.104439	1.651574
H	0.048426	-1.981629	0.349142
C	-0.479814	1.234044	0.744837
H	-0.043092	1.224317	1.748262
H	-1.572355	1.253545	0.837081
H	-0.134361	2.148084	0.257473
H	2.924898	0.0	0.0
