15

C	-0.394982	0.031345	-1.462254
C	0.0	0.0	0.0
Cl	-2.169301	0.366505	-1.725154
H	1.097279	0.0	0.0
H	0.130907	0.850257	-1.961609
C	-0.087695	-1.219866	-2.148741
N	0.156202	-2.220734	-2.711166
N	-0.450943	-1.229851	0.633045
H	-1.21488	-1.055165	1.274782
H	0.33189	-1.615321	1.149302
C	-0.411963	1.267752	0.730142
H	-1.493297	1.318308	0.898193
H	-0.10543	2.160372	0.175918
H	0.103821	1.28717	1.693923
H	2.824589	0.0	0.0
