15

C	-0.270703	0.044631	-1.484411
C	0.0	0.0	0.0
F	-1.645495	0.135146	-1.762061
H	1.093747	0.0	0.0
H	0.072975	-0.904255	-1.896822
C	0.472142	1.207031	-2.099469
H	0.414443	1.167466	-3.189423
H	1.508247	1.129178	-1.76035
H	0.045585	2.153068	-1.757716
N	-0.456686	-1.261522	0.626907
O	-0.83955	-1.224952	1.796391
O	-0.362756	-2.290154	-0.041496
C	-0.531484	1.145634	0.706749
N	-0.919751	2.126483	1.225033
F	2.499619	0.0	0.0
