15

C	-0.451683	-0.025995	-1.454673
C	0.0	0.0	0.0
F	0.216995	-1.011896	-2.164275
H	1.091833	0.0	0.0
H	-0.115942	0.931345	-1.86706
C	-1.940185	-0.204574	-1.677779
H	-2.160639	-0.157875	-2.746689
H	-2.498917	0.585092	-1.17034
H	-2.257747	-1.175983	-1.300612
N	-0.443995	-1.158809	0.798852
O	-0.560401	-1.007269	2.016701
O	-0.604315	-2.231732	0.214271
C	-0.465051	1.221494	0.623903
N	-0.796664	2.261129	1.06267
F	2.448748	0.0	0.0
