15

C	-0.358058	-0.109429	-1.495257
C	0.0	0.0	0.0
F	-0.184264	1.163937	-2.033321
H	1.091314	0.0	0.0
H	-1.418861	-0.357699	-1.631735
C	0.58282	-1.066402	-2.191741
H	0.321125	-2.10026	-1.962426
H	1.589131	-0.86313	-1.811036
H	0.52057	-0.914063	-3.271902
N	-0.50133	-1.236767	0.664345
O	-1.608642	-1.207743	1.211874
O	0.208977	-2.238426	0.587953
C	-0.610566	1.160683	0.614186
N	-1.074917	2.125067	1.098086
F	2.541009	0.0	0.0
