12

C	0.0	0.0	0.0
C	-0.521068	-0.255236	-1.403728
F	1.407134	0.0	0.0
H	-0.186439	-1.229612	-1.76957
H	-0.333895	-0.80175	0.658942
H	-1.618728	-0.242171	-1.315607
N	-0.476092	1.237491	0.481821
H	-0.036534	2.013263	0.006783
H	-0.385443	1.329244	1.480995
C	-0.069405	0.781414	-2.328235
N	0.280737	1.626258	-3.063882
Cl	-3.782346	0.0	0.0
