12

C	0.0	0.0	0.0
C	-0.447593	-0.412153	-1.403798
F	1.394722	0.0	0.0
H	-0.152736	0.374982	-2.107472
H	-0.32844	-0.748219	0.724099
H	-1.542103	-0.475876	-1.38207
N	-0.477008	1.274355	0.42357
H	-0.386636	1.941947	-0.335484
H	-1.476521	1.165964	0.604756
C	0.138514	-1.674688	-1.843406
N	0.606409	-2.689289	-2.201638
Cl	-3.559011	0.0	0.0
