12

C	0.0	0.0	0.0
C	-0.476564	-0.325201	-1.409132
F	1.38059	0.0	0.0
H	-0.163614	0.495425	-2.060821
H	-0.296845	-0.804887	0.684828
H	-1.571881	-0.378291	-1.395253
N	-0.484664	1.297182	0.364453
H	-0.286132	1.445553	1.348118
H	-1.503557	1.246127	0.279751
C	0.090213	-1.578003	-1.896844
N	0.542612	-2.587193	-2.289748
Cl	-3.576826	0.0	0.0
