12

C	0.0	0.0	0.0
C	-0.4448	-0.174709	-1.45646
F	1.385337	0.0	0.0
H	-0.063333	-1.119016	-1.85713
H	-0.346383	-0.868603	0.56407
H	-1.541731	-0.199962	-1.44869
N	-0.470765	1.173219	0.657883
H	-1.476467	1.049503	0.784808
H	-0.340259	1.978486	0.053298
C	0.033411	0.922363	-2.292068
N	0.399405	1.818231	-2.956368
Cl	-3.546549	0.0	0.0
