12

C	0.0	0.0	0.0
C	-0.484729	0.244935	-1.419403
F	1.391885	0.0	0.0
H	-0.164044	-0.583705	-2.055911
H	-0.294327	-1.014452	0.299947
H	-1.580861	0.260333	-1.398061
N	-0.463572	1.039151	0.863635
H	-0.258453	0.78608	1.823877
H	-1.481	1.061257	0.771049
C	0.042443	1.490818	-1.970767
N	0.449995	2.490533	-2.430416
Cl	-3.579436	0.0	0.0
