12

C	0.0	0.0	0.0
C	-0.432414	0.299073	-1.439346
F	1.402946	0.0	0.0
H	-1.528819	0.280627	-1.448626
H	-0.341052	-1.003719	0.260004
H	-0.050778	-0.470434	-2.116776
N	-0.464084	0.90691	0.99463
H	-0.318662	1.860987	0.680634
H	-1.470975	0.75664	1.074416
C	0.057819	1.602013	-1.879917
N	0.446886	2.651676	-2.233321
Cl	-3.54006	0.0	0.0
