15

C	0.0	0.0	0.0
C	-0.220593	-0.008631	-1.564606
Br	1.935611	0.0	0.0
H	0.457539	-0.802227	-1.895096
N	-0.432272	1.208196	0.753407
O	-0.469644	2.275054	0.133369
O	-0.486908	1.094686	1.979822
C	-0.499422	-1.206595	0.620473
N	-0.597842	-2.279322	1.107048
C	0.302811	1.229071	-2.191598
N	0.647406	2.102718	-2.900086
N	-1.523039	-0.377567	-2.102455
H	-1.460345	-0.301042	-3.116081
H	-2.227441	0.260251	-1.75099
H	-1.909806	0.0	0.0
