15

C	0.0	0.0	0.0
C	-0.36687	0.029336	-1.511197
Br	1.929563	0.0	0.0
H	0.352601	0.687927	-2.004283
N	-0.377498	1.314685	0.647963
O	-0.478009	1.334517	1.870997
O	-0.361619	2.302721	-0.087905
C	-0.653506	-1.083698	0.70941
N	-0.699185	-2.118148	1.295133
C	-1.724635	0.566523	-1.761348
N	-2.589973	1.010752	-2.442702
N	-0.198324	-1.323298	-2.026128
H	-0.382606	-1.300615	-3.022927
H	-0.912803	-1.909006	-1.601622
H	-2.021269	0.0	0.0
