15

C	0.0	0.0	0.0
C	-0.244546	-0.094421	-1.561574
Br	1.935669	0.0	0.0
H	0.180759	-1.067791	-1.832319
N	-0.61601	1.21859	0.557573
O	-0.665503	2.200937	-0.228014
O	-0.632414	1.318253	1.799214
C	-0.46668	-1.167513	0.720977
N	-0.599212	-2.197401	1.283892
C	0.543471	0.919924	-2.298418
N	1.046477	1.624494	-3.094921
N	-1.624961	-0.077205	-2.03719
H	-2.005789	0.836989	-1.811738
H	-1.58315	-0.147599	-3.054197
H	-1.868425	0.0	0.0
