15

C	0.0	0.0	0.0
C	-0.387566	0.029251	-1.499125
Br	1.929322	0.0	0.0
H	0.242501	0.776828	-1.988041
N	-0.392366	1.298955	0.664117
O	-0.400111	2.294671	-0.063042
O	-0.482829	1.30658	1.889127
C	-0.621277	-1.103859	0.707249
N	-0.68872	-2.151492	1.266997
C	-1.821151	0.418816	-1.631911
N	-2.677209	0.772196	-2.389119
N	-0.098609	-1.283747	-2.064305
H	-0.295071	-1.235244	-3.057688
H	-0.76055	-1.946427	-1.667606
H	-2.041569	0.0	0.0
