15

C	0.0	0.0	0.0
C	-0.230292	-0.036964	-1.599346
Br	1.93453	0.0	0.0
H	0.262215	-0.979587	-1.867023
N	-0.462289	1.242286	0.67263
O	-0.520768	1.224112	1.903895
O	-0.52798	2.256569	-0.033356
C	-0.524576	-1.176526	0.651571
N	-0.610389	-2.251944	1.139987
C	0.523488	1.032128	-2.277627
N	1.064671	1.836713	-2.939377
N	-1.53674	-0.048372	-2.221476
H	-2.014859	0.801807	-1.937712
H	-2.07035	-0.798476	-1.798589
H	-1.96783	0.0	0.0
