15

C	0.0	0.0	0.0
C	-0.327422	0.068548	-1.562271
Br	1.926555	0.0	0.0
H	-1.404165	0.257433	-1.582637
N	-0.610307	1.16909	0.698666
O	-0.624832	2.240176	0.045452
O	-0.630855	1.120574	1.938863
C	-0.453856	-1.219044	0.646588
N	-0.588317	-2.264541	1.179003
C	-0.097832	-1.25425	-2.145918
N	0.070444	-2.299609	-2.65493
N	0.327564	1.07302	-2.369916
H	1.329899	0.928164	-2.36769
H	0.138691	1.959984	-1.914412
H	-2.046574	0.0	0.0
