15

C	0.0	0.0	0.0
C	-0.382793	0.044788	-1.502042
Br	1.929287	0.0	0.0
H	0.273137	0.7723	-1.987737
N	-0.382184	1.305113	0.666282
O	-0.480024	1.308125	1.890484
O	-0.379672	2.301807	-0.058376
C	-0.655006	-1.092978	0.695291
N	-0.721033	-2.139129	1.259343
C	-1.797166	0.483147	-1.657788
N	-2.653913	0.876841	-2.389915
N	-0.13433	-1.275931	-2.066655
H	-0.79479	-1.924999	-1.645751
H	-0.35726	-1.230438	-3.054682
H	-2.027141	0.0	0.0
