17

C	-0.551078	-0.013647	-1.40441
C	0.0	0.0	0.0
Br	0.48202	1.375181	-2.504345
H	1.105193	0.0	0.0
N	-0.234109	-1.302239	-2.148945
O	-0.926255	-1.534985	-3.140084
O	0.701002	-1.984067	-1.752744
N	-1.937705	0.183459	-1.498935
H	-2.233852	0.22888	-2.466098
H	-2.200628	1.026112	-1.004686
C	-0.445074	-1.178673	0.870641
H	-0.068094	-2.110676	0.453331
H	-1.530035	-1.231854	0.984988
H	0.019258	-1.052467	1.852233
C	-0.440003	1.24438	0.613286
N	-0.819292	2.234832	1.125371
H	2.613367	0.0	0.0
