13

C	0.0	0.0	0.0
C	-0.276728	0.033249	-1.53697
Cl	1.794729	0.0	0.0
H	-1.358369	0.059382	-1.633218
H	0.150766	0.980644	-1.903309
C	-0.456602	1.242109	0.626313
N	-0.567034	2.269896	1.194044
C	-0.652883	-1.141876	0.65775
N	-0.59101	-2.177268	1.242397
N	0.253211	-1.148126	-2.193604
H	1.202023	-1.005213	-2.506723
H	-0.325645	-1.379368	-2.990528
H	-2.177787	0.0	0.0
