13

C	0.0	0.0	0.0
C	-0.349935	-0.045377	-1.524021
Cl	1.794098	0.0	0.0
H	-1.295443	-0.57411	-1.625623
H	0.448836	-0.606211	-2.019263
C	-0.512194	1.189924	0.676285
N	-0.562597	2.210902	1.271421
C	-0.517065	-1.212146	0.651039
N	-0.538549	-2.284087	1.150884
N	-0.371703	1.314431	-2.045222
H	-1.225339	1.739948	-1.693714
H	-0.444329	1.271749	-3.055265
H	-2.208977	0.0	0.0
