13

C	0.0	0.0	0.0
C	-0.260143	-0.020824	-1.542614
Cl	1.795	0.0	0.0
H	-1.337834	0.011481	-1.671285
H	0.183195	0.912147	-1.920515
C	-0.713315	1.148876	0.583995
N	-0.699317	2.235628	1.074597
C	-0.445129	-1.23951	0.646549
N	-0.51479	-2.253985	1.243668
N	0.266491	-1.227942	-2.15977
H	1.232493	-1.110033	-2.435683
H	-0.282959	-1.455881	-2.978109
H	-2.141062	0.0	0.0
