13

C	0.0	0.0	0.0
C	-0.26649	0.118146	-1.533319
Cl	1.794728	0.0	0.0
H	0.18336	1.074249	-1.83425
H	-1.34478	0.171433	-1.648094
C	-0.652274	1.124532	0.689246
N	-0.627683	2.169914	1.260035
C	-0.471807	-1.274393	0.547112
N	-0.540694	-2.335576	1.060103
N	0.248453	-1.039417	-2.251453
H	1.199	-0.883337	-2.558951
H	-0.332358	-1.213669	-3.060113
H	-2.173497	0.0	0.0
