13

C	0.0	0.0	0.0
C	-0.259985	0.055511	-1.541421
Cl	1.79475	0.0	0.0
H	-1.337301	0.025446	-1.670656
H	0.184964	-0.867215	-1.941174
C	-0.454956	1.219146	0.678431
N	-0.522109	2.215477	1.305595
C	-0.695042	-1.171139	0.558465
N	-0.688016	-2.272238	1.015702
N	0.263049	1.278494	-2.129499
H	1.234085	1.175287	-2.387639
H	-0.272003	1.508576	-2.954496
H	-2.15003	0.0	0.0
