16

C	0.0	0.0	0.0
C	-0.459454	-0.236103	-1.548161
Br	1.966856	0.0	0.0
H	0.463765	-0.054162	-2.104708
C	-0.389855	1.334905	0.441588
N	-0.584325	2.456667	0.736352
C	-0.439222	-1.021269	0.941765
N	-0.689349	-1.891663	1.692289
N	-1.45909	0.648285	-2.051304
H	-1.171181	1.616811	-1.977403
H	-2.334311	0.525445	-1.529854
C	-0.893796	-1.681641	-1.722162
H	-0.152487	-2.382205	-1.331684
H	-1.845143	-1.834011	-1.208733
H	-1.035297	-1.870797	-2.786805
Cl	-3.740853	0.0	0.0
