16

C	0.0	0.0	0.0
C	-0.455353	-0.252061	-1.5449
Br	1.966938	0.0	0.0
H	0.46573	-0.060257	-2.102019
C	-0.389082	1.339604	0.42836
N	-0.572259	2.466798	0.709773
C	-0.436564	-1.014652	0.950098
N	-0.684888	-1.878175	1.708847
N	-1.464355	0.616468	-2.057959
H	-2.33973	0.491791	-1.537517
H	-1.185998	1.588255	-1.992056
C	-0.871387	-1.703187	-1.709948
H	-0.120416	-2.392511	-1.317329
H	-1.81961	-1.867814	-1.193162
H	-1.013609	-1.899617	-2.7735
Cl	-3.743778	0.0	0.0
