16

C	0.0	0.0	0.0
C	-0.45454	0.887007	-1.289277
Br	1.968011	0.0	0.0
H	0.458344	1.43531	-1.537876
C	-0.387826	0.685428	1.229236
N	-0.591445	1.352758	2.17609
C	-0.436582	-1.389434	-0.010061
N	-0.659337	-2.543187	-0.064411
N	-1.490938	1.842659	-1.07301
H	-2.360819	1.371206	-0.799024
H	-1.244247	2.503421	-0.346091
C	-0.828107	-0.050133	-2.425337
H	-0.982885	0.549806	-3.324016
H	-1.763819	-0.556868	-2.181811
H	-0.047152	-0.791795	-2.617782
Cl	-3.775576	0.0	0.0
