16

C	0.0	0.0	0.0
C	-0.557885	0.125381	-1.43393
Br	1.984275	0.0	0.0
H	-1.641998	0.070917	-1.248519
C	-0.386418	1.122698	0.856155
N	-0.585041	2.069774	1.523837
C	-0.3781	-1.279179	0.600956
N	-0.577356	-2.322393	1.103776
N	-0.13198	-1.038954	-2.190149
H	-0.918148	-1.425488	-2.6945
H	0.603052	-0.804051	-2.845145
C	-0.223916	1.461866	-2.075618
H	-0.566828	2.298365	-1.462989
H	-0.738432	1.519948	-3.037902
H	0.852177	1.566158	-2.247981
Cl	-3.515893	0.0	0.0
