16

C	0.0	0.0	0.0
C	-0.433638	-0.504112	-1.45001
Br	1.965477	0.0	0.0
H	0.501797	-0.602107	-2.003792
C	-0.399486	1.37849	0.278455
N	-0.608971	2.495639	0.580155
C	-0.414547	-0.884765	1.088075
N	-0.621804	-1.64359	1.96101
N	-1.17984	0.556428	-2.094616
H	-1.265445	0.342651	-3.08146
H	-2.114722	0.579026	-1.678118
C	-1.088662	-1.882168	-1.397265
H	-1.283467	-2.19851	-2.426586
H	-2.033875	-1.822424	-0.861679
H	-0.434721	-2.623948	-0.931439
Cl	-3.523989	0.0	0.0
