16

C	0.0	0.0	0.0
C	-0.467766	-0.268273	-1.542587
Br	1.943968	0.0	0.0
H	0.453913	-0.100084	-2.106264
C	-0.397813	1.343193	0.409769
N	-0.628435	2.464181	0.677705
C	-0.440244	-1.000254	0.965064
N	-0.687932	-1.854937	1.734218
N	-1.465425	0.608447	-2.063236
H	-2.337116	0.508216	-1.530618
H	-1.166192	1.575008	-2.019129
C	-0.899234	-1.718176	-1.683778
H	-1.076705	-1.916017	-2.742055
H	-1.830851	-1.875895	-1.136761
H	-0.134257	-2.406749	-1.314754
Cl	-3.736067	0.0	0.0
