16

C	0.0	0.0	0.0
C	-0.563804	0.014775	-1.43924
Br	1.958865	0.0	0.0
H	-1.645918	-0.023439	-1.246019
C	-0.396144	1.186951	0.762277
N	-0.604628	2.189667	1.33894
C	-0.386535	-1.226763	0.701699
N	-0.580953	-2.220399	1.298612
N	-0.142912	-1.205606	-2.104376
H	-0.932998	-1.630887	-2.56818
H	0.585479	-1.023013	-2.782033
C	-0.227838	1.295657	-2.184427
H	0.847202	1.379998	-2.373918
H	-0.55991	2.179408	-1.635774
H	-0.749811	1.282033	-3.143993
Cl	-3.51082	0.0	0.0
