18

C	0.0	0.0	0.0
C	-0.448867	0.052817	-1.465534
Br	2.035578	0.0	0.0
H	-1.547385	0.051971	-1.425095
C	-0.371039	1.305989	0.686699
H	-1.462285	1.385015	0.658761
H	0.08554	2.161513	0.194609
H	-0.034612	1.265394	1.726766
N	-0.489429	-1.145079	0.665757
H	-0.839762	-0.884071	1.576767
H	-1.256619	-1.562958	0.152718
N	-0.085942	-1.26437	-2.173258
O	-0.766298	-2.254107	-1.912733
O	0.846083	-1.243855	-2.977035
N	0.046014	1.183257	-2.164443
H	-0.436718	1.280749	-3.047601
H	1.037578	1.074575	-2.339422
Cl	-3.651492	0.0	0.0
