18

C	0.0	0.0	0.0
C	-0.495561	-0.01246	-1.447621
Br	2.053163	0.0	0.0
H	-1.584646	-0.160108	-1.351213
C	-0.420252	1.291947	0.673944
H	0.011408	2.158544	0.181318
H	-1.513888	1.321106	0.62313
H	-0.104159	1.269001	1.720538
N	-0.475291	-1.08536	0.719386
H	-0.2794	-1.052754	1.706049
H	-0.358827	-1.991284	0.29809
N	0.032728	-1.256815	-2.19402
O	-0.207851	-2.36667	-1.721042
O	0.646739	-1.071915	-3.242306
N	-0.192202	1.18114	-2.143513
H	-0.748645	1.245566	-2.983862
H	0.788092	1.207828	-2.392943
Cl	-3.788881	0.0	0.0
