18

C	0.0	0.0	0.0
C	-0.470086	0.163785	-1.461756
Br	1.994564	0.0	0.0
H	-1.559349	0.026792	-1.414238
C	-0.428666	1.223786	0.794975
H	-0.134894	1.066427	1.834174
H	0.025113	2.131173	0.40476
H	-1.519093	1.301543	0.733053
N	-0.467388	-1.171929	0.672938
H	-1.462234	-1.007508	0.855469
H	-0.413902	-1.970631	0.051722
N	0.048141	-1.010345	-2.321438
O	-0.331213	-2.145699	-2.038561
O	0.810386	-0.746804	-3.250464
N	-0.130146	1.414877	-2.03256
H	0.859571	1.449852	-2.23697
H	-0.645644	1.557173	-2.889013
Cl	-3.667025	0.0	0.0
