16
Coordinates from ORCA-job run
  C   -0.68413382907230      0.33160497045271      0.05325192710147
  C   0.70802959066415     -0.14328898514736     -0.39518486735261
  F   -0.53653301631951      0.70284351801219      1.42290264597615
  H   0.60395259623410     -0.40694048768202     -1.45210824451583
  N   -1.62177771260140     -0.74193681240490     -0.03693363231952
  H   -1.66516164030588     -1.23991478323692      0.84179595612820
  H   -2.54171939197076     -0.39965159598418     -0.27815481914947
  N   -1.12040052840867      1.43105305839047     -0.72550169931527
  H   -0.40501746252954      2.14586006749677     -0.77297858081979
  H   -1.94800339105530      1.84049934595510     -0.30737254131125
  C   1.19083984344554     -1.35842658590251      0.39679759998048
  H   1.25118835899133     -1.12137590186762      1.45926495874388
  H   2.17901619022545     -1.66646246180812      0.05254365952841
  H   0.50070942512053     -2.18870055336039      0.24466654100800
  C   1.66671142272363      0.95972206847317     -0.29141403371587
  N   2.42229954485864      1.85511513861362     -0.21257486996697
