16
Coordinates from ORCA-job run
  C   -0.71768335417167      0.30933674300114      0.26130833361699
  C   0.65332090333487     -0.12909977776389     -0.31020327672432
  F   -0.54692546195747      0.42841691756219      1.63049859794765
  H   0.52191645707671     -0.28160921041284     -1.38969456039507
  N   -1.67104376228886     -0.72806086551410      0.02486277372364
  H   -2.59308077923915     -0.37591635768850      0.25464880682339
  H   -1.66140415385889     -1.03309350522229     -0.93951969989909
  N   -1.19505841955143      1.60145966152521     -0.15797824636841
  H   -1.32713176008596      1.62822263089611     -1.16092183121661
  H   -0.54864256342602      2.33391427642588      0.11293284982864
  C   1.18499774761803     -1.41206337580293      0.33446839875204
  H   2.13427150733387     -1.70236827772853     -0.11937629353995
  H   0.46252856954101     -2.21710040509754      0.20760522600143
  H   1.33822817419757     -1.25230046148813      1.40111497745368
  C   1.60571203826353      0.97040962154651     -0.14640059290532
  N   2.36099485721386      1.85785238576172     -0.00434546309868
