12

C	-0.341483	0.025107	-1.454086
C	0.0	0.0	0.0
Cl	-2.100403	-0.115129	-1.838877
H	1.095633	0.0	0.0
H	0.024752	0.914958	-1.957959
H	-0.3558	-0.926059	0.454411
N	0.335535	-1.128079	-2.146909
O	0.982264	-0.857954	-3.153191
O	0.168683	-2.24452	-1.674331
C	-0.535439	1.156516	0.680397
N	-0.951673	2.106085	1.23569
F	2.504499	0.0	0.0
