12

C	-0.286664	0.063792	-1.463597
C	0.0	0.0	0.0
Cl	-2.022262	0.191177	-1.928197
H	1.092789	0.0	0.0
H	0.22691	0.915668	-1.901482
H	-0.298412	0.960555	0.432922
N	0.258987	-1.125162	-2.213197
O	0.077563	-2.237109	-1.733984
O	0.818885	-0.87924	-3.278155
C	-0.636268	-1.067232	0.738774
N	-1.150092	-1.884241	1.409197
F	2.512999	0.0	0.0
