12

C	-0.508129	-0.036329	-1.427421
C	0.0	0.0	0.0
Cl	0.108043	-1.415812	-2.327969
H	1.091417	0.0	0.0
H	-1.595604	-0.04439	-1.5159
H	-0.338235	0.938258	0.450332
N	-0.108832	1.272223	-2.094683
O	-0.723951	2.244769	-1.658614
O	0.736316	1.29457	-2.974012
C	-0.555018	-1.105044	0.75325
N	-1.002318	-2.000813	1.370031
F	2.523909	0.0	0.0
