12

C	-0.25869	0.082007	-1.469035
C	0.0	0.0	0.0
Cl	-1.987063	0.051076	-1.981491
H	1.096014	0.0	0.0
H	0.19294	0.963762	-1.915896
H	-0.376617	-0.937746	0.409946
N	0.400482	-1.087117	-2.156257
O	0.233342	-2.196707	-1.664959
O	1.02087	-0.83775	-3.185706
C	-0.542237	1.142882	0.695472
N	-0.963976	2.078345	1.269917
F	2.506324	0.0	0.0
