12

C	-0.258011	0.032994	-1.471206
C	0.0	0.0	0.0
Cl	-1.985344	-0.01805	-1.979073
H	1.094939	0.0	0.0
H	0.191451	0.90041	-1.946703
H	-0.376233	-0.924206	0.440028
N	0.400588	-1.158212	-2.122066
O	1.012429	-0.942715	-3.164244
O	0.241078	-2.25097	-1.591746
C	-0.544317	1.164107	0.657768
N	-0.966505	2.115146	1.205757
F	2.505863	0.0	0.0
