12

C	-0.375271	-0.036265	-1.453246
C	0.0	0.0	0.0
Cl	0.155599	1.43297	-2.285122
H	1.0931	0.0	0.0
H	0.062879	-0.88999	-1.964497
H	-0.375772	0.913753	0.464697
N	-1.868837	-0.161982	-1.670732
O	-2.591806	0.688171	-1.163461
O	-2.25161	-1.135523	-2.319555
C	-0.520715	-1.165602	0.68597
N	-0.933623	-2.118607	1.23775
F	2.521047	0.0	0.0
