14
Coordinates from ORCA-job run
  C   -0.61949943398872     -0.04742572746476     -0.02835741737347
  C   0.80577785106335     -0.40322685323884     -0.53603055159359
  Cl  -1.66288349926053     -1.48414189448070     -0.45814351806898
  H   0.77577780139542     -0.52498554388345     -1.62583923639308
  N   -0.59810753611967      0.05164892281466      1.40100043378837
  H   -0.35137011787778      0.99521734613227      1.67622300797710
  H   -1.47688633720924     -0.22096594765350      1.81761594646993
  N   -1.02831216527664      1.15409041890638     -0.66758840197924
  H   -1.93523373359220      1.44984966275372     -0.32710856914870
  H   -1.06536989380210      1.06670406376431     -1.67649340860192
  C   1.28796808911750     -1.65219607352602      0.05664587895704
  N   1.70449047932168     -2.65618446355249      0.49843329143374
  C   1.71925257568241      0.69487177020145     -0.20357224152506
  N   2.44439592054652      1.57574431922697      0.07221478605789
