14
Coordinates from ORCA-job run
  C   -0.61206015693902     -0.04529093258945      0.10377782923767
  C   0.82684643322544     -0.63213964980590      0.12039131039022
  Cl  -1.72456159918500     -1.48328440553838     -0.07047772195183
  H   0.93434872138936     -1.28605366641579      0.99458370790566
  N   -0.80882156157135      0.67236960117869      1.31484169454212
  H   -0.71961145442073      0.08447150325859      2.13546236695177
  H   -1.71896556173731      1.11673410117017      1.32345303429694
  N   -0.77594027191173      0.76367094403025     -1.06733177594051
  H   -0.46496615854670      1.70936494483577     -0.87751890870504
  H   -1.72869469487544      0.76416452938225     -1.40250122383227
  C   1.78951085028685      0.46915019121665      0.22667582146963
  N   2.54964307380402      1.36017590403240      0.30360580131224
  C   1.09915700736065     -1.42012240235998     -1.08318171645434
  N   1.35511537312096     -2.07321066239527     -2.02378021922225
