14
Coordinates from ORCA-job run
  C   -0.60579927389227      0.05631235219916     -0.03497543665349
  C   0.79722976664553     -0.37561802648348     -0.53266057847135
  Cl  -1.71135073778154     -1.39644259024957     -0.57187697741306
  H   0.72189116336984     -0.58154416745029     -1.60572592783670
  N   -0.59861497682082      0.22794212587358      1.35876681846726
  H   -1.50909029521450      0.49529035847326      1.71165669970612
  H   -0.29061282123817     -0.60504732406399      1.84432170011925
  N   -0.98684839818840      1.24323430361516     -0.69826075300957
  H   -1.28529108950575      1.06667106963878     -1.64770671182069
  H   -1.70961000392545      1.74792899365237     -0.20296884535310
  C   1.25108545108183     -1.59376533935259      0.14358344913489
  N   1.60653280146492     -2.55118504166202      0.72268083033045
  C   1.76085865133416      0.70926474995746     -0.31859874157122
  N   2.55961976267061      1.55595853585217     -0.16923552562879
