14
Coordinates from ORCA-job run
  C   -0.62200027906082     -0.03351217528780     -0.01307610497628
  C   0.78219974329869     -0.43487130325933     -0.54304099564840
  Cl  -1.71255560683444     -1.44829296805431     -0.39178042431156
  H   0.72580822943855     -0.57073372661464     -1.63000711141375
  N   -0.56711217005057      0.08860383965755      1.41341987292946
  H   -0.25036926059456      1.01836338231965      1.66447240819886
  H   -1.45875614755112     -0.10779344741901      1.84631082973496
  N   -1.01413140637068      1.16578352623595     -0.66885714766223
  H   -1.08877218572860      1.05412827477861     -1.67333022476125
  H   -1.89976260587968      1.49794489494141     -0.30673702729193
  C   1.24461856106719     -1.68766287625129      0.05780363952205
  N   1.64766473156402     -2.69686650003123      0.50020415925471
  C   1.73097855982553      0.64367193318603     -0.24664277327701
  N   2.48318983687653      1.51223714579840     -0.00673910029760
