14
Coordinates from ORCA-job run
  C   -0.67690227159687     -0.07356628119599      0.15208950130253
  C   0.80455810964603     -0.58347003986246      0.10152911555091
  Cl  -1.67547783728005     -1.59358856874168     -0.10551843562243
  H   0.94446080714729     -1.34537177702083      0.87742947543634
  N   -0.88389518152665      0.55051188748327      1.40043847835987
  H   -0.74214972990848     -0.07636120360133      2.18180389137543
  H   -1.81676737699488      0.94301728029132      1.43442015679641
  N   -1.05005590540697      0.84561408041560     -0.86903658663679
  H   -0.50893228527477      1.69871100323278     -0.78745676109444
  H   -0.96988811181359      0.44951403181558     -1.79608155176437
  C   1.71443127272016      0.53871537376852      0.34985924163160
  N   2.43441652367326      1.44898189444320      0.52730040490874
  C   1.10075482922796     -1.17897867972150     -1.20230500173628
  N   1.32444715738751     -1.62372900130649     -2.26547192850752
