14
Coordinates from ORCA-job run
  C   -0.69534507000567     -0.00915401692909     -0.06061613308009
  C   0.75099314978056     -0.37347061991832     -0.54251391870662
  Cl  -1.70853320144449     -1.45284155188715     -0.57111224926310
  H   0.73325464431977     -0.53806021721883     -1.62631516732009
  N   -0.85977208705172      0.13683053382614      1.34632463701150
  H   -0.65282511372608     -0.71481706047037      1.85099913245627
  H   -0.29745627522745      0.90860633894256      1.68627406676992
  N   -1.06867136731556      1.20589382110671     -0.67366862483449
  H   -1.08643400791129      1.14673422446640     -1.68355623276498
  H   -1.97459906358969      1.49697954091293     -0.32710405384388
  C   1.22168375846714     -1.59510204718980      0.11230420121973
  N   1.59299047958981     -2.55891695000805      0.67053492094700
  C   1.66015730378495      0.73358769054785     -0.23097092523209
  N   2.38455685032971      1.61373031381904      0.04942034664094
