14
Coordinates from ORCA-job run
  C   -0.57661772970472     -0.00568166306253      0.01564146750441
  C   0.95813427919438     -0.14853878493753     -0.15587336192316
  Cl  -1.37445067200953     -1.24761045696177     -0.97890326045437
  H   1.42151659252615      0.62953635680238      0.46848540990953
  N   -0.87613944184872     -0.30708097143824      1.39707876993218
  H   -1.87076124302767     -0.44990390575845      1.52553948413130
  H   -0.57764039101768      0.45873572292936      1.99226215109187
  N   -0.94385289346061      1.28072930019930     -0.53136613877570
  H   -0.64437600011357      2.02213887507332      0.09349072043196
  H   -1.94729916838597      1.34493700574281     -0.65443637709722
  C   1.37356078257505      0.08490217627871     -1.54091656790514
  N   1.75111316537246      0.26166521552252     -2.63782997135953
  C   1.43892330286754     -1.44757104559657      0.32033710492032
  N   1.86788941703290     -2.47625782479327      0.68749056959355
