14
Coordinates from ORCA-job run
  C   -0.71148972467458     -0.16043495198641     -0.03559476717175
  C   0.76082529665995     -0.40739807012836     -0.50671624390917
  Cl  -1.63550721975202     -1.59420869666308     -0.59022286093747
  H   0.73687158245961     -0.54621873111932     -1.59320554834212
  N   -0.71968331632454     -0.12608425750429      1.39157318266520
  H   -0.10443806778601      0.60122764613187      1.74140803502226
  H   -1.66316028167222      0.05646492586222      1.71370480561634
  N   -1.33084625319398      0.98830274006094     -0.63883679898822
  H   -0.85367081965771      1.84024048325522     -0.36626602251029
  H   -1.38263811602327      0.92349999513276     -1.64826139533897
  C   1.36132732350522     -1.59467453995056      0.10356843255588
  N   1.87155148453172     -2.54890418869375      0.55818628707853
  C   1.55383658147281      0.78776843352443     -0.20286747644748
  N   2.11702153045500      1.78041921207834      0.07453037070726
