14
Coordinates from ORCA-job run
  C   -0.60417094015593      0.06543355439828     -0.04098557375849
  C   0.80017749218057     -0.37738123763433     -0.52430106918405
  Cl  -1.72017128617220     -1.36742111665798     -0.61393849229907
  H   0.73924032040861     -0.56944410096657     -1.60098721679560
  N   -0.61492608400117      0.21611253289207      1.35497945925957
  H   -0.33782026107913     -0.63245284653517      1.83226230413949
  H   -1.52242501896404      0.50439829464528      1.69881463193831
  N   -0.96061877041679      1.26573670877493     -0.69268384565887
  H   -1.70603834564632      1.75626981986467     -0.21672197962347
  H   -1.22296508448977      1.10709351924477     -1.65601472003678
  C   1.22865502708832     -1.60854027910550      0.14454000352859
  N   1.56185829582834     -2.57586937533915      0.72038884921334
  C   1.77420096676817      0.69268350546636     -0.28353220327369
  N   2.58500368865133      1.52538102095237     -0.12082014744930
