14
Coordinates from ORCA-job run
  C   -0.59328251672888     -0.00499270653760      0.13976886691090
  C   0.84636790911692     -0.57554648649715      0.08952406576191
  Cl  -1.67008227079179     -1.54636687002575     -0.15749461448004
  H   0.91112144116619     -1.38501197191955      0.82456267619110
  N   -0.83380076795445      0.53098985033913      1.42373708279338
  H   -0.99144840791200     -0.19352264923679      2.11086673078761
  H   -1.61011453948430      1.17902233989180      1.43193730729978
  N   -0.77097934601654      0.96339635223093     -0.86174831200633
  H   -1.70793025782523      1.34695768262122     -0.85485062980865
  H   -0.57323356889097      0.59761872080891     -1.78467738109514
  C   1.81371659476862      0.46865479764072      0.44453019816106
  N   2.61945559084181      1.27022577481247      0.73650938033708
  C   1.15825331143646     -1.12272877146905     -1.23346919809138
  N   1.40195682827415     -1.52769606265929     -2.30819617276132
