14
Coordinates from ORCA-job run
  C   -0.54391743132723      0.10120194333926      0.00980683020558
  C   0.99734561665357     -0.08986331279161     -0.07127170536721
  Cl  -1.28237948668283     -1.31955224132651     -0.89394943124288
  H   1.41665736429587      0.80440573055072      0.40371826517937
  N   -0.91716316126052      0.15859621767557      1.37667456806498
  H   -0.61654583589387     -0.65903187616386      1.89467370771064
  H   -1.92310909900668      0.24532801599044      1.46276239600628
  N   -0.88288099293678      1.31594091217040     -0.67104457083419
  H   -1.22233384273050      2.00993440796977     -0.01995533830420
  H   -1.52545707060517      1.18022904795445     -1.43529966090675
  C   1.45057415513064     -0.12532898188842     -1.46176987057725
  N   1.83932511532377     -0.14371281507813     -2.56864619591193
  C   1.44554045338841     -1.27346120511615      0.66608430976406
  N   1.76534421565133     -2.20368584328594      1.30721669621348
