14
Coordinates from ORCA-job run
  C   -0.63127301865367     -0.00718928301161     -0.06593434773521
  C   0.75822400524573     -0.48186769743504     -0.57241549061363
  Cl  -1.78377392739597     -1.36145192069458     -0.51097485011676
  H   0.63052138004700     -0.76558002430151     -1.62110819810339
  N   -0.56735579297102      0.25214997935761      1.32444592398376
  H   -1.44796426619214      0.61450949431692      1.66818381121352
  H   -0.30175922074862     -0.56080062846576      1.86860076334574
  N   -1.01804270480670      1.13385136887620     -0.84912010695019
  H   -0.63442391565667      1.97204247452317     -0.42588773373535
  H   -2.02409848072897      1.21106792233125     -0.91466882428303
  C   1.24889079533536     -1.63049883592905      0.19192677591128
  N   1.61139823218730     -2.54658677243309      0.83051766692544
  C   1.70711322864333      0.63217581468329     -0.49260523771898
  N   2.44954368569505      1.53917810818220     -0.43096015212322
