14
Coordinates from ORCA-job run
  C   -0.54794040735047      0.10380864240265      0.05019182629401
  C   0.99567207790080     -0.02404946614704      0.02469977710018
  Cl  -1.18204136346370     -1.33481196288063     -0.99069113112435
  H   1.35428044396913      0.81568777972310      0.63178780329844
  N   -0.98604281150490      0.00617156714498      1.39130771426866
  H   -1.97387140209361      0.21462609973177      1.47243136518509
  H   -0.82546875039444     -0.92312157971263      1.76113475320275
  N   -0.90621653849675      1.34991611526371     -0.51452885814625
  H   -0.68868361197073      1.37867083658632     -1.50346527170608
  H   -1.89542594031535      1.53531211144359     -0.40080130601668
  C   1.52151782987672      0.12155328772365     -1.33268498476742
  N   1.92340244008908      0.28815748420706     -2.42286958244946
  C   1.43868434535417     -1.27276789038565      0.64489920807425
  N   1.77213368840010     -2.25815302510087      1.18858868678688
