14
Coordinates from ORCA-job run
  C   -0.69081662041429     -0.03589809967281     -0.01743332378079
  C   0.74697582475090     -0.39436645516704     -0.52673147599587
  Cl  -1.71949376274820     -1.45090029222204     -0.59605014807164
  H   0.67284635171510     -0.63147710229818     -1.59321315787400
  N   -0.65636794158880      0.13948392885078      1.37754424082509
  H   -1.56407980823423      0.43631746925456      1.71276339924963
  H   -0.34537494150484     -0.68303657094639      1.87827972734388
  N   -1.25689258774313      1.13731506869817     -0.59732796411277
  H   -0.70869738219565      1.95297839288386     -0.34976217051096
  H   -1.36811940871200      1.06212202140392     -1.59903557897621
  C   1.29406099926709     -1.55680423059983      0.17460425152456
  N   1.69952945874293     -2.48526324702316      0.76840064451556
  C   1.62005573427566      0.77061832310502     -0.36063317758210
  N   2.27637408438952      1.73991079373315     -0.27040526655439
