14
Coordinates from ORCA-job run
  C   -0.58450077015873     -0.09209644179675      0.22507235647420
  C   0.86398070536566     -0.62229049870006      0.04113341543761
  Cl  -1.63346170641602     -1.59502573868927      0.27741818483517
  H   1.02603182194167     -1.37176203188030      0.82122470680345
  N   -0.66938578195945      0.51294264183350      1.52571897510021
  H   -1.60523451087283      0.44769732833624      1.90260428425761
  H   -0.38984971264822      1.48554322246694      1.45880789602037
  N   -0.90582075292108      0.79056403608489     -0.83388599002978
  H   -0.84649783531130      0.35441360788300     -1.74697985701986
  H   -1.82848387397967      1.18823588568044     -0.70948359531364
  C   1.80931975190814      0.48030536580452      0.23786405611505
  N   2.54972867998563      1.37291011602611      0.41871850086339
  C   1.05287462135094     -1.23396505773417     -1.27599837596908
  N   1.16229936371524     -1.71547243531504     -2.34121455757468
