14
Coordinates from ORCA-job run
  C   -0.69306566017359     -0.20136440636418      0.13859082009887
  C   0.81445252983753     -0.63504961730621      0.09702441779694
  Cl  -1.62251768759590     -1.69595469566208     -0.19525069256821
  H   0.94690539033263     -1.45046142628437      0.81503950913801
  N   -0.96622025778470      0.21063876867029      1.48517413527675
  H   -1.95533930347404      0.42203855886547      1.55991365314757
  H   -0.44393360389428      1.05241482041903      1.70877298320134
  N   -1.07931005735783      0.76408390479154     -0.84896593295309
  H   -0.93121784613075      0.43615094760427     -1.79620693419532
  H   -0.59430462301645      1.64250854841288     -0.70403954403813
  C   1.64131455107773      0.50757319632064      0.49341895897448
  N   2.22899384803475      1.47112006343742      0.81838803345159
  C   1.19126395804569     -1.08484248748807     -1.24290769240733
  N   1.46297876209920     -1.43785617541664     -2.32895171492346
