14
Coordinates from ORCA-job run
  C   -0.65339337328256     -0.12602840295966     -0.05304560555612
  C   0.76349159348450     -0.53080123863623     -0.54442528725160
  Cl  -1.72438545235743     -1.52361042056692     -0.33778874898030
  H   0.67074227012166     -0.78834887541594     -1.60413603491060
  N   -0.59533511432470      0.08831732253269      1.36995165207497
  H   -0.05595627666966      0.92246009234261      1.57911290970877
  H   -1.52569729517248      0.19209903081471      1.75671376567832
  N   -1.10595255664579      0.93767942233113     -0.92750308298776
  H   -0.64387485685607      1.80609578587633     -0.67575479346360
  H   -2.10616006753500      1.06785236429063     -0.82985415972017
  C   1.30425080749913     -1.67267290788191      0.19426264884660
  N   1.73388062020852     -2.60957730444184      0.75518170648506
  C   1.64716634475073      0.63257531277552     -0.41370222072687
  N   2.29122335677916      1.60395981893889     -0.26901274919670
