14
Coordinates from ORCA-job run
  C   -0.55789917868161      0.02428847541215      0.23859645797637
  C   0.85863663928556     -0.56293126005226      0.01675608888441
  Cl  -1.64814497012226     -1.53420056222862      0.36115823954746
  H   1.06470045765880     -1.26689733280748      0.83051060040069
  N   -0.57574886859157      0.74378004571735      1.45194499695901
  H   -1.39846998745907      1.32625381805530      1.53970406253042
  H   -0.52165821244705      0.12657759083912      2.25127897313304
  N   -0.92375740132316      0.83601335089923     -0.84740516746610
  H   -1.82428046935804      1.27704262506677     -0.70908741109354
  H   -0.93980697586289      0.32070513422783     -1.71849062282989
  C   1.85773592786409      0.51072254204311      0.04681460493795
  N   2.69228740279468      1.33523501729730      0.07698175974888
  C   0.93582910222039     -1.28939969051705     -1.25313123312773
  N   0.97957653402212     -1.84818975395278     -2.28463134960102
