14
Coordinates from ORCA-job run
  C   -0.69942214967026      0.00491576337651     -0.21408531276746
  C   0.75067163127884     -0.57330699802483     -0.32850736465828
  Cl  -1.54951866704147     -0.55034269930558     -1.69400298101310
  H   0.66034689563888     -1.66046648854887     -0.42960714647254
  N   -1.44380058699806     -0.50616899186843      0.90441022820089
  H   -1.56112366822113     -1.51168114605982      0.87452428988956
  H   -1.01539955186083     -0.22829221270623      1.78018186849853
  N   -0.61215801482686      1.42893246377252     -0.23375131522308
  H   -0.01422770673328      1.76954237467729      0.51187146588503
  H   -1.53980844886751      1.82108039156267     -0.12101013638315
  C   1.47199910302156     -0.27564261495082      0.91272453366241
  N   1.97944719792837      0.00448227841581      1.93439146329645
  C   1.48061034770592     -0.05375351594135     -1.48603553056754
  N   2.09238361864581      0.33070139560120     -2.41110406234771
