14
Coordinates from ORCA-job run
  C   -0.52143575724816      0.15738096360348      0.13260210141253
  C   0.97676307321823     -0.10969437895835     -0.15617443978869
  Cl  -1.43047271258775     -1.36186325323212     -0.51518198817032
  H   1.49540805638785      0.77791805318387      0.22500768397774
  N   -0.69124251177764      0.30686495465504      1.52874829331906
  H   -1.62952945093104      0.61349998586597      1.75530884352043
  H   -0.51513002243104     -0.56489335839035      2.01363167298630
  N   -0.91119734056767      1.32875885219681     -0.55727195878827
  H   -1.84583071338313      1.61769109294489     -0.29505848744109
  H   -0.89135754132463      1.18610602355225     -1.55988375812780
  C   1.23284924844379     -0.22011090193726     -1.59236703225143
  N   1.42471173556388     -0.25205471538394     -2.74984187479318
  C   1.46210184897463     -1.28311222076211      0.57030385356293
  N   1.84636208766265     -2.19749109733820      1.19817709058178
