14
Coordinates from ORCA-job run
  C   -0.62878186126717      0.05602768028237      0.01105511446456
  C   0.93157837177833     -0.06327578732353     -0.02965811837057
  Cl  -1.25208270098378     -1.22195915409965     -1.13962971544462
  H   1.29923984584545      0.70069912126380      0.66673653739122
  N   -1.20832136480449     -0.22498390813411      1.28416537462190
  H   -0.87503906075119      0.43453481843020      1.97688067340806
  H   -1.04833278190985     -1.17857050486240      1.58098777788020
  N   -0.96975008166626      1.38292747655332     -0.34162586116906
  H   -0.67466230524797      1.62170470236061     -1.28068337011872
  H   -1.97260849258985      1.50085544658082     -0.25975740620700
  C   1.47025508403033      0.24010530949286     -1.35585017811888
  N   1.86962861082408      0.55458256338300     -2.41437517503239
  C   1.36736483952470     -1.37564385232164      0.44585666344993
  N   1.69251189721768     -2.42600391160564      0.85689768324542
