14
Coordinates from ORCA-job run
  C   -0.63120048924312      0.01089569623799      0.01284882198452
  C   0.93366444335405     -0.02636585178510      0.00485638597170
  Cl  -1.16358968301306     -1.44058809245865     -0.96582239927460
  H   1.24846493014322      0.85120033308873      0.58368513318466
  N   -1.05707964111991      0.00021737113752      1.36158065471094
  H   -2.06574803226547      0.08935161668591      1.39199884976847
  H   -0.77480183531496     -0.84095066721665      1.85002098037192
  N   -1.19700450336436      1.15759318332422     -0.61978736134325
  H   -0.97417802274420      1.20644229117347     -1.60513743699844
  H   -0.91280554021280      2.00216186244946     -0.13849789219790
  C   1.45341401322047      0.10680844690979     -1.35527942827794
  N   1.84760856390948      0.26506475757030     -2.44957018190623
  C   1.45659879265784     -1.21837640357565      0.67277351375042
  N   1.83765700399281     -2.16345454354135      1.25633036025573
