14
Coordinates from ORCA-job run
  C   -0.54490518951930      0.11287150551270      0.06036200991000
  C   0.99543487569703     -0.04080371165471     -0.00163158919649
  Cl  -1.22805980831765     -1.34342442444984     -0.92308370377119
  H   1.38291162312380      0.80811246257228      0.57417279102878
  N   -0.94873334845697      0.05927749361904      1.41468073330551
  H   -0.79516655410050     -0.86258974685281      1.80542511755272
  H   -1.92990511138304      0.28901524848162      1.51622075362361
  N   -0.89859850745636      1.34873520935409     -0.52921400282325
  H   -0.70432722812156      1.34779455441766     -1.52340801817160
  H   -1.88216146317927      1.55161382487230     -0.39758694968042
  C   1.48740040125127      0.06069003112456     -1.37547481408657
  N   1.86174712157934      0.19075311833194     -2.48034644902585
  C   1.43475564537827     -1.27929489022247      0.64131020967391
  N   1.76960754350495     -2.24375067510638      1.22057391166085
