14
Coordinates from ORCA-job run
  C   -0.53632303726039      0.13794995434831      0.07960533881562
  C   0.99262990562671     -0.07382756782876     -0.05015080376876
  Cl  -1.31693021151554     -1.37727093014741     -0.72814729099750
  H   1.43683440001842      0.81060224565488      0.42178355560346
  N   -0.86518703608451      0.22067271174915      1.45243524913744
  H   -0.71501121831133     -0.66640906168543      1.91794732886765
  H   -1.83296737564405      0.48894277263421      1.58398976142341
  N   -0.88596969487295      1.32664821038727     -0.60196537380755
  H   -1.85302360498970      1.57685607243878     -0.43451175484176
  H   -0.75130479715897      1.22777403806857     -1.60108388297181
  C   1.40936444816612     -0.11615150960834     -1.45184903215210
  N   1.72487635459390     -0.09888465721233     -2.58231092621616
  C   1.43081709342872     -1.26376791344767      0.67971168172687
  N   1.76319477400361     -2.19413436535123      1.31354614918117
