14
Coordinates from ORCA-job run
  C   -0.63867972924971     -0.12096445123551     -0.00916068224278
  C   0.92248398488949     -0.05303452846270      0.05088348424584
  Cl  -1.06860336683902     -1.56522873677547     -0.96809476200092
  H   1.17159291195486      0.80352572886845      0.69353191580548
  N   -1.08959224670329     -0.31573205888358      1.33738482468024
  H   -0.84759262669322      0.48674656960706      1.91002886332741
  H   -2.09898615026841     -0.41357466428959      1.33279334104080
  N   -1.24637938859270      1.00715526731239     -0.66365662378197
  H   -1.02218562658447      1.86934931363258     -0.17974354993746
  H   -0.97875844635680      1.08088914317350     -1.63838356862988
  C   1.47708154367513      0.21569891243494     -1.27690761479075
  N   1.88551942776229      0.45651465036740     -2.35080240078581
  C   1.51746851829675     -1.25080673979428      0.64463888192609
  N   2.01663119470911     -2.20153840595520      1.11848789114370
