15

C	-0.792836	0.056674	-1.454002
C	0.093777	-0.057316	-0.224649
F	-0.85137	-1.141597	-2.178145
H	1.126292	-0.225404	-0.548387
H	-1.818225	0.287672	-1.143831
C	-0.336008	1.110431	-2.375482
N	-0.005042	1.889658	-3.188243
C	-0.332537	-1.228359	0.653935
H	-1.356992	-1.075382	1.017848
H	0.345539	-1.248401	1.50886
H	-0.291515	-2.185588	0.125363
N	0.066719	1.237717	0.429069
H	0.951761	1.244901	1.013888
H	-0.701548	1.240415	1.096716
H	2.268389	0.764456	1.815966
