15

C	-0.793704	0.046484	-1.45715
C	0.095434	-0.059235	-0.229363
F	-0.85348	-1.156607	-2.172882
H	1.132249	-0.233274	-0.555615
H	-1.818696	0.279347	-1.146886
C	-0.340027	1.094804	-2.386546
N	-0.023963	1.872012	-3.207245
C	-0.329411	-1.222239	0.660411
H	0.352989	-1.23747	1.511852
H	-1.351715	-1.064557	1.028169
H	-0.292559	-2.18325	0.138531
N	0.074504	1.241051	0.413795
H	0.963151	1.251167	0.993184
H	-0.690076	1.250675	1.085761
H	2.284816	0.767985	1.785562
