15

C	-0.112038	-0.104623	-1.379947
C	0.085789	-0.24739	0.132774
F	-1.40549	0.382855	-1.635674
H	1.105111	-0.633513	0.252233
H	0.6318	0.64611	-1.712195
C	0.030665	-1.374725	-2.101152
N	0.164912	-2.401289	-2.657296
C	-0.914615	-1.20724	0.760192
H	-0.742433	-1.247577	1.837408
H	-1.934284	-0.851048	0.589248
H	-0.830609	-2.215027	0.34295
N	0.047791	1.055677	0.780507
H	-0.832973	1.494171	0.523877
H	0.786032	1.605995	0.30423
H	1.975388	1.942624	-1.110954
