15

C	-0.655416	-0.061902	-1.584131
C	0.107725	-0.083738	-0.277703
F	-0.292671	1.050133	-2.350233
H	1.177183	-0.11485	-0.544893
H	-0.417955	-0.946513	-2.186834
C	-2.116235	-0.012082	-1.388649
N	-3.286498	-0.022217	-1.302456
C	-0.215745	-1.344628	0.510272
H	0.415508	-1.32117	1.401705
H	-0.004217	-2.255139	-0.06351
H	-1.264831	-1.337914	0.817874
N	-0.237939	1.073143	0.523903
H	0.038845	1.902067	0.002691
H	0.448097	1.023581	1.318781
H	1.863949	0.603259	2.192141
