15
Coordinates from ORCA-job run
  C   -0.50219663174265      0.10427237585598      0.01627189665709
  C   1.03349261590727      0.23501115389390      0.07449853348714
  F   -1.04153689463206      1.33785243774502     -0.11038668837652
  H   1.44673036872682     -0.75791315651994      0.28085453179695
  C   -1.01369012077490     -0.81266976809853     -1.06300829314151
  H   -0.59432888761508     -1.81240337277887     -0.95157715382073
  H   -2.10148393722662     -0.86570627285186     -0.98875569068522
  H   -0.74893016064724     -0.40486267998158     -2.03940381598215
  N   -0.93070301891721     -0.45191138595408      1.37228614478276
  O   -0.37234812528350     -1.49587946245753      1.69694944816947
  O   -1.79011009646594      0.15571644443505      1.98979156236285
  C   1.42627772303747      1.13959101054803      1.15971105134629
  N   1.72638443322903      1.84961650933552      2.04504522471635
  C   1.53801064441093      0.71160879530515     -1.21523572688720
  N   1.92243208799370      1.06667737152375     -2.26604102442558
