15
Coordinates from ORCA-job run
  C   -0.49170620554391      0.14852766632415      0.01316881141200
  C   1.05045718593647      0.15351554481177      0.02882844595915
  F   -0.93050939492715      1.40175749541421     -0.24340611163970
  H   1.38517425005888     -0.84176627293464      0.33991918376128
  C   -1.10676893051483     -0.83618245425230     -0.94562063847817
  H   -2.19277095943610     -0.78773800756801     -0.84623781204341
  H   -0.83641441596715     -0.56369184492991     -1.96662348000709
  H   -0.76842664975735     -1.84926653644756     -0.72912794193463
  N   -0.92714077735377     -0.21391362247366      1.43115670594560
  O   -0.44841846570224     -1.25892793186251      1.86216618437224
  O   -1.71579323397263      0.53009778262839      1.99108519320500
  C   1.54669782438163      1.13689921203845      0.99667254515551
  N   1.93096276005552      1.91270703033909      1.78937520402088
  C   1.55841509451200      0.43593401436784     -1.31557641129443
  N   1.94424191823065      0.63204792454471     -2.40677987843422
