15
Coordinates from ORCA-job run
  C   -0.59311545767749      0.02587476178554     -0.23103182967089
  C   0.81834950546072      0.60142844488641     -0.47761574175042
  F   -1.44648784990471      0.74617350940040     -1.00389130618454
  H   0.92186558744729      0.63110269864027     -1.57029740184399
  C   -0.72932921298341     -1.44547962308526     -0.51698996438895
  H   -0.10100621034048     -2.03049518116871      0.15411840990112
  H   -1.77487745597801     -1.72823535752701     -0.38143168606047
  H   -0.44280473170436     -1.64353031488412     -1.55173030904204
  N   -0.97838001070733      0.27636470965328      1.22035018777056
  O   -0.12500516307628     -0.04585020571609      2.04025556472805
  O   -2.09162281949264      0.72796600533129      1.43814684572144
  C   1.89257344718422     -0.24087359159388      0.05045433244094
  N   2.77074224066043     -0.93557254827607      0.40279225263865
  C   0.91342149514155      1.97713534218680      0.01978883647829
  N   0.96667663597052      3.08399135036713      0.40708180926229
