15
Coordinates from ORCA-job run
  C   -0.58421456943068      0.11145970162226     -0.22796713990894
  C   0.87643115835462      0.58774772340391     -0.38211835429800
  F   -1.35724700885226      1.00788083622812     -0.89368505424081
  H   1.00199057211917      0.76267901061630     -1.45876043270106
  C   -0.84395345677397     -1.28604568208503     -0.72279395387075
  H   -1.91228260630450     -1.49113648048229     -0.63268281915372
  H   -0.28008485207416     -2.01456333752079     -0.14076432102384
  H   -0.55945843006122     -1.35875300683250     -1.77435086331594
  N   -0.97188381821235      0.18561348328088      1.24229122471064
  O   -0.16335019192073     -0.32220306201149      2.01215243614398
  O   -2.04696333984449      0.69529750423410      1.51649275856202
  C   1.86298675782173     -0.41338030867579      0.02617793325688
  N   2.67063360620177     -1.22626074105836      0.28085000992463
  C   1.08250293731812      1.86499382830258      0.30727895513042
  N   1.22489324165891      2.89667053097809      0.84887962078443
