15
Coordinates from ORCA-job run
  C   -0.61517928335279      0.19030142786974     -0.01169721747310
  C   0.80832620104885      0.76515904073766      0.20012017926118
  F   -1.36328583060487      1.18598299911311     -0.54771884143906
  H   0.74163705138485      1.54934203177864      0.96527450768113
  C   -0.68757731612903     -1.04987490278165     -0.85871055781647
  H   -0.13420171941695     -1.86670563650821     -0.39625605294404
  H   -1.73534785198416     -1.33459259837840     -0.97136621944825
  H   -0.27356957823738     -0.83632866330656     -1.84598533176662
  N   -1.19854328317232     -0.10998398172497      1.36470380180158
  O   -0.51715343066901     -0.85271340381859      2.06404051050542
  O   -2.28170072388194      0.38292512422268      1.64044628548898
  C   1.25169772449171      1.38162078241868     -1.05605968542039
  N   1.60596186222081      1.85833016395603     -2.06858710623104
  C   1.78884653466175     -0.23984757527278      0.61843912463459
  N   2.61208964364050     -1.02661480830536      0.90435660316612
