15
Coordinates from ORCA-job run
  C   -0.56512016106985      0.07615021031445     -0.28482860797655
  C   0.89859488833219      0.56053661753478     -0.37087592102600
  F   -1.28980568971003      0.88368240171626     -1.10145979885080
  H   1.10989182132356      0.62467048113511     -1.44639660538036
  C   -0.76966239289279     -1.36999259437827     -0.64831441709247
  H   -1.83978776613745     -1.58396625592082     -0.62456946903017
  H   -0.24925853069255     -2.02285190458667      0.05191587267360
  H   -0.39795676002690     -1.54756367011354     -1.65940739811797
  N   -1.07175995956619      0.29694851138568      1.13364756287517
  O   -2.16634427738794      0.82134975528049      1.26644764689994
  O   -0.32810406361735     -0.12232427534531      2.01427305150135
  C   1.85860199824188     -0.37401217232031      0.21843467071918
  N   2.65223957976776     -1.13975302726796      0.62058610225331
  C   1.03509522491447      1.90609275479437      0.19483175590142
  N   1.12337608852117      2.99003316777173      0.63671555465032
