15
Coordinates from ORCA-job run
  C   -0.59028490967965      0.23836157813840      0.03395939995009
  C   0.87154792219087      0.71693927835949      0.14249095834401
  F   -1.34445763309255      1.33294027445175     -0.28332504462286
  H   0.88034924078515      1.55140075022857      0.85159050071680
  C   -0.83265628912471     -0.87490346219090     -0.93818132824095
  H   -0.54085010763800     -0.53978334126640     -1.93466865064143
  H   -0.25869088037428     -1.76115955423376     -0.66645453754488
  H   -1.89113956832202     -1.12891686750110     -0.93942492735408
  N   -1.02696784034014     -0.14504822199678      1.45304318306242
  O   -0.66773954274799      0.62030396829555      2.34322546714696
  O   -1.73516578459851     -1.13610512119321      1.58193308840264
  C   1.34182070817622      1.18052252031220     -1.16422235542912
  N   1.70308268048013      1.54566550929169     -2.21981532809999
  C   1.72002593245158     -0.35832090582240      0.65965607375136
  N   2.37212607183390     -1.23989640487308      1.07919350055903
