15
Coordinates from ORCA-job run
  C   -0.58902799082387      0.24893643949474      0.04286203413877
  C   0.88414967314644      0.67717275935217      0.20623037739503
  F   -1.30461601743275      1.38525937281633     -0.20055507294162
  H   0.89934339790860      1.44687284813247      0.98649430644316
  C   -0.85325885258090     -0.78169379270360     -1.01136647712222
  H   -1.91749228160392     -1.01293553725021     -1.03065543955989
  H   -0.55709006098508     -0.37304161453311     -1.97889150051181
  H   -0.29859305039592     -1.69821278795614     -0.81317470508718
  N   -1.03595944019741     -0.22351935769347      1.42988411036594
  O   -0.85759196774361      0.58343768711510      2.33674320166415
  O   -1.53985905145148     -1.33641331539410      1.52359193290381
  C   1.38243251118447      1.24407206183797     -1.04799221387552
  N   1.76464992445858      1.69435537231103     -2.06253171374216
  C   1.69943353904917     -0.46033395796314      0.63644726263280
  N   2.32447966746765     -1.39195617756615      0.98291389729676
