15
Coordinates from ORCA-job run
  C   -0.58204088429292      0.13052674212202     -0.21953021141061
  C   0.89815386622003      0.50560120900339     -0.44720126624038
  F   -1.32215864195598      1.02242200218415     -0.92791297173443
  H   0.99909670559590      0.59546607168450     -1.53685410010807
  C   -0.93841957821128     -1.28029912394718     -0.60433410726332
  H   -0.40130875620616     -1.99865097138265      0.01469566495437
  H   -0.69013480057411     -1.44538070716904     -1.65461153368624
  H   -2.01383268695423     -1.41226285320145     -0.47198895419882
  N   -0.92208733007716      0.33111115366397      1.25065372596582
  O   -1.97763457336867      0.88688890480831      1.51122411685440
  O   -0.10471197574315     -0.13502804639837      2.03733707952011
  C   1.83649170488894     -0.52219085052418      0.00580467749415
  N   2.59725446515915     -1.36467987311242      0.30467462223505
  C   1.20071292468668      1.81415732624847      0.14022605676885
  N   1.42161956083303      2.87231901602045      0.59781720084914
