15
Coordinates from ORCA-job run
  C   -0.58030361672408      0.12654519792615     -0.22773639997880
  C   0.89571893428066      0.54522498622288     -0.39982866319802
  F   -1.32354034086931      1.03338680746601     -0.91344944440531
  H   1.02244637353432      0.68466138890529     -1.48148010071617
  C   -0.89254806166513     -1.27247613001872     -0.68679679478991
  H   -1.96748834786977     -1.43584708263154     -0.58985228873464
  H   -0.35425656630667     -2.00666270358691     -0.08767995856937
  H   -0.61309865333999     -1.38127814418487     -1.73668731928244
  N   -0.96079662511801      0.25107858765448      1.24099268314160
  O   -0.15798557940409     -0.24483573320932      2.02455421133418
  O   -2.02864629396492      0.78265312593594      1.50153381409735
  C   1.84739104935002     -0.47871706098752      0.03418952873703
  N   2.62573311141897     -1.31241204944980      0.31149642085647
  C   1.15095899245729      1.83365558273889      0.25164622839838
  N   1.33541562422070      2.87602322721904      0.75909808310964
