15
Coordinates from ORCA-job run
  C   -0.51141957420455      0.04476271567530     -0.00534005831451
  C   0.99556123391823      0.36085363377383      0.08360943525630
  F   -1.18612535265971      1.19291793004716     -0.23962990593481
  H   1.51361487514949     -0.55839388535971      0.37671419163886
  C   -0.87410013772173     -1.00227189943088     -1.02492682904002
  H   -1.95007566205513     -1.17956709726390     -0.97505968989440
  H   -0.34448379211482     -1.93403953033909     -0.82739474544255
  H   -0.62537806830990     -0.63708927590891     -2.02223275964824
  N   -0.91966965604796     -0.45911607903110      1.37707750290401
  O   -0.25636274043803     -1.40428759780174      1.79382313089813
  O   -1.86441028914484      0.08602358740377      1.92435038621512
  C   1.24185480823311      1.38227340216503      1.10635330962782
  N   1.42885774037781      2.18330590020269      1.94380276592563
  C   1.48733271732351      0.79834088499956     -1.22471882733469
  N   1.86480389769457      1.12428731086802     -2.28742790685663
