13

C	-0.506366	-0.082111	-1.396836
C	0.0	0.0	0.0
Cl	-2.499313	-0.061634	-1.296044
H	1.093024	0.0	0.0
H	-0.381986	-1.073747	-1.820233
H	-0.344337	0.955016	0.436015
N	-0.06385	0.92496	-2.240496
H	-0.073395	1.83584	-1.806648
H	-0.516343	0.938738	-3.141659
N	-0.415844	-1.176686	0.75881
H	0.30339	-1.353224	1.446352
H	-1.297355	-1.019938	1.229144
F	2.668861	0.0	0.0
