13

C	-0.114239	0.056996	-1.505659
C	0.0	0.0	0.0
Cl	-1.782819	0.556161	-2.082687
H	1.095293	0.0	0.0
H	0.016627	-0.954742	-1.891927
H	-0.352266	0.949172	0.433431
N	0.886596	0.929466	-2.09409
H	1.752447	0.657694	-1.589049
H	0.687478	1.873331	-1.772557
N	-0.578602	-1.200975	0.589243
H	0.023756	-1.49996	1.344841
H	-1.492547	-1.005198	0.976836
F	2.740381	0.0	0.0
