13

C	-0.239131	-0.218116	-1.497193
C	0.0	0.0	0.0
Cl	-0.877573	1.435002	-2.25948
H	1.092094	0.0	0.0
H	-1.087538	-0.870691	-1.702113
H	-0.457393	0.908743	0.395968
N	0.943781	-0.642626	-2.107559
H	1.770627	-0.501435	-1.504326
H	0.893121	-1.539035	-2.560955
N	-0.404205	-1.237594	0.698306
H	0.394392	-1.541429	1.241338
H	-1.164831	-1.054823	1.340325
F	2.755314	0.0	0.0
