13

C	-0.216586	-0.363631	-1.476977
C	0.0	0.0	0.0
Cl	-0.871224	1.16019	-2.390022
H	1.093703	0.0	0.0
H	-1.037939	-1.063768	-1.609293
H	-0.449359	0.952728	0.289831
N	0.978727	-0.833811	-2.060821
H	0.930568	-1.821043	-2.263414
H	1.797331	-0.599732	-1.464698
N	-0.426093	-1.14672	0.816583
H	0.299411	-1.323278	1.49554
H	-1.282253	-0.934303	1.311537
F	2.760897	0.0	0.0
