13

C	-0.111998	0.034394	-1.506837
C	0.0	0.0	0.0
Cl	-1.777109	0.524676	-2.09585
H	1.095293	0.0	0.0
H	0.021587	-0.982402	-1.877689
H	-0.353148	0.955559	0.418009
N	0.889721	0.899353	-2.105068
H	1.755244	0.630657	-1.597535
H	0.691844	1.845303	-1.788089
N	-0.578888	-1.191871	0.605972
H	-1.501032	-0.994195	0.973205
H	0.012303	-1.468821	1.378733
F	2.742138	0.0	0.0
