16

C	0.0	0.0	0.0
C	-0.356332	0.027654	-1.489862
F	1.429442	0.0	0.0
H	0.086358	-0.879232	-1.925719
H	0.183381	0.872046	-1.932908
C	-0.492168	1.201062	0.766638
H	-1.583943	1.187564	0.781809
H	-0.133942	2.120266	0.298019
H	-0.117271	1.170282	1.794315
N	-0.482058	-1.19652	0.586173
H	-0.058791	-2.006921	0.153913
H	-0.337363	-1.219053	1.586362
N	-1.753581	0.101808	-1.850903
H	-2.135414	1.014013	-1.635996
H	-2.318408	-0.526787	-1.28629
Cl	-4.548896	0.0	0.0
