16

C	0.0	0.0	0.0
C	-0.429948	0.174619	-1.448873
F	1.401608	0.0	0.0
H	-0.152483	-0.749609	-1.985817
H	-1.520025	0.244074	-1.436437
C	-0.4431	1.151595	0.873255
H	-0.054272	0.991342	1.881018
H	-0.050659	2.081856	0.463891
H	-1.533423	1.192536	0.895583
N	-0.446127	-1.24334	0.571698
H	-0.329206	-1.982947	-0.114547
H	-1.449452	-1.150066	0.729628
N	0.143905	1.381627	-2.044911
H	1.124372	1.216473	-2.234572
H	-0.320916	1.569376	-2.923413
Cl	-3.807387	0.0	0.0
