16

C	0.0	0.0	0.0
C	-0.49106	0.013505	-1.443492
F	1.396384	0.0	0.0
H	0.210043	-0.6113	-2.003803
H	-1.478593	-0.454256	-1.45982
C	-0.411968	1.22612	0.793745
H	-1.501421	1.280242	0.831792
H	-0.018302	1.134266	1.811209
H	-0.000261	2.125223	0.3331
N	-0.420622	-1.256039	0.579106
H	-0.157036	-1.25817	1.559695
H	-1.440176	-1.26225	0.547186
N	-0.507988	1.366277	-2.017184
H	-1.373795	1.798744	-1.708073
H	-0.592301	1.274348	-3.023319
Cl	-3.742151	0.0	0.0
