16

C	0.0	0.0	0.0
C	-0.279189	0.239694	-1.503237
F	1.396125	0.0	0.0
H	0.352198	-0.491513	-2.025796
H	0.126834	1.227267	-1.753999
C	-0.499176	1.110198	0.893755
H	-0.204061	0.903115	1.924696
H	-1.589625	1.165763	0.838099
H	-0.065349	2.062369	0.581052
N	-0.46444	-1.264284	0.50112
H	-1.458314	-1.177452	0.701577
H	-0.363329	-1.974	-0.217076
N	-1.625138	0.137922	-2.021521
H	-1.998969	-0.785902	-1.843833
H	-2.267778	0.738635	-1.516651
Cl	-4.137776	0.0	0.0
