16

C	0.0	0.0	0.0
C	-0.260677	-0.365322	-1.480893
F	1.399982	0.0	0.0
H	0.329867	0.334102	-2.083261
H	0.202533	-1.352014	-1.620237
C	-0.493058	1.378516	0.370246
H	-0.066036	2.121759	-0.307502
H	-0.183749	1.608797	1.392118
H	-1.583442	1.405472	0.311954
N	-0.479541	-0.954814	0.956548
H	-0.402655	-1.890256	0.57135
H	-1.470356	-0.778812	1.111482
N	-1.609055	-0.403787	-2.000327
H	-2.199494	-1.008228	-1.439817
H	-2.054361	0.498599	-1.889646
Cl	-4.093344	0.0	0.0
