12

C	0.0	0.0	0.0
C	-0.477908	0.053783	-1.462665
Cl	1.77608	0.0	0.0
H	0.305977	-0.413373	-2.070814
H	-0.364626	0.835262	0.591649
H	-0.343906	-0.940294	0.424709
C	-0.502673	1.470923	-1.915129
N	-0.510121	2.570077	-2.332289
N	-1.697252	-0.704475	-1.623058
H	-2.063703	-0.551288	-2.558752
H	-2.458986	-0.378574	-0.940175
H	-3.544989	0.0	0.0
