12

C	0.0	0.0	0.0
C	-0.63405	-0.061896	-1.37052
Cl	1.771053	0.0	0.0
H	-1.714963	-0.238546	-1.078693
H	-0.337226	-0.856124	0.583036
H	-0.35568	0.901062	0.497135
C	-0.130411	-1.162629	-2.176505
N	0.24371	-2.050957	-2.850877
N	-0.469441	1.218956	-2.078676
H	-1.141476	1.843336	-1.631507
H	-0.808317	1.093475	-3.027491
H	-3.030103	0.0	0.0
