12

C	0.0	0.0	0.0
C	-0.41213	0.012304	-1.502214
Cl	1.778272	0.0	0.0
H	0.314545	-0.636255	-2.006388
H	-0.353544	-0.915638	0.469223
H	-0.373091	0.863556	0.544164
C	-0.144892	1.363318	-2.04252
N	0.066091	2.427854	-2.491211
N	-1.738361	-0.419036	-1.869946
H	-2.456548	-0.128055	-1.138236
H	-1.747431	-1.43385	-1.831953
H	-3.426148	0.0	0.0
