12

C	0.0	0.0	0.0
C	-0.705675	0.060543	-1.302048
Cl	1.781016	0.0	0.0
H	-1.881121	0.001629	-0.781554
H	-0.315738	0.873458	0.578004
H	-0.31019	-0.893437	0.540003
C	-0.463261	-1.072917	-2.158824
N	-0.290668	-1.99265	-2.882252
N	-0.595229	1.358699	-1.961988
H	-1.480555	1.558991	-2.418253
H	0.13696	1.3478	-2.657783
H	-2.898068	0.0	0.0
