14

C	-0.322128	-0.190232	-1.479473
C	0.0	0.0	0.0
F	-0.246588	-1.503235	-1.794123
H	1.092308	0.0	0.0
H	-0.315242	1.002581	0.299707
N	-1.766134	0.246607	-1.750856
O	-1.975579	1.453508	-1.643063
O	-2.59611	-0.608098	-2.025557
N	0.502923	0.551585	-2.367988
H	0.320128	1.539125	-2.238279
H	1.472788	0.37696	-2.098941
C	-0.597707	-0.997512	0.870242
N	-1.105862	-1.785062	1.577154
Cl	3.286216	0.0	0.0
