14

C	-0.521391	-0.014665	-1.420215
C	0.0	0.0	0.0
F	0.101276	0.969482	-2.148285
H	1.090324	0.0	0.0
H	-0.341494	-0.895064	0.520148
N	-0.147459	-1.322118	-2.119914
O	-0.281405	-1.310973	-3.340948
O	0.177494	-2.280302	-1.432833
N	-1.931236	0.051083	-1.523785
H	-2.18818	0.147572	-2.499403
H	-2.277338	0.845691	-1.00002
C	-0.517407	1.185156	0.67254
N	-0.992214	2.133797	1.176327
Cl	3.302824	0.0	0.0
