14

C	-0.502336	0.003419	-1.427176
C	0.0	0.0	0.0
F	-0.092252	1.099231	-2.098862
H	1.093905	0.0	0.0
H	-0.318109	-0.924251	0.488008
N	0.152862	-1.206575	-2.144662
O	0.802179	-1.015841	-3.16175
O	-0.123887	-2.295753	-1.643694
N	-1.914964	-0.081732	-1.538138
H	-2.192936	-0.062736	-2.512654
H	-2.247361	-0.930629	-1.101227
C	-0.526254	1.149942	0.72202
N	-0.94311	2.075329	1.311063
Cl	3.302061	0.0	0.0
