14

C	-0.349549	0.023297	-1.466608
C	0.0	0.0	0.0
F	-0.101443	-1.252763	-1.984102
H	1.094339	0.0	0.0
H	-0.369453	-0.915907	0.458872
N	-1.855467	0.147253	-1.723323
O	-2.192803	0.531848	-2.839949
O	-2.612964	-0.221541	-0.83174
N	0.306997	1.051509	-2.13202
H	1.295049	1.050415	-1.888817
H	0.15508	1.015894	-3.130046
C	-0.50447	1.170604	0.702445
N	-0.907038	2.113234	1.274124
Cl	3.296295	0.0	0.0
