14

C	-0.383769	-0.195733	-1.460136
C	0.0	0.0	0.0
F	-0.2583	-1.532365	-1.734325
H	1.092374	0.0	0.0
H	-0.387652	-0.815965	0.610711
N	-1.889315	0.084301	-1.622223
O	-2.24403	1.050875	-2.291388
O	-2.63244	-0.685885	-1.025619
N	0.329429	0.569881	-2.395307
H	-0.14014	1.435728	-2.606892
H	1.28147	0.716058	-2.073343
C	-0.483771	1.283051	0.490565
N	-0.898519	2.31377	0.871024
Cl	3.278025	0.0	0.0
