14

C	-0.314266	0.046444	-1.491624
C	0.0	0.0	0.0
F	-0.175846	-1.191713	-2.019868
H	1.094036	0.0	0.0
H	-0.321252	0.939932	0.455417
N	-1.777311	0.453683	-1.69614
O	-2.044781	1.61343	-1.385837
O	-2.564894	-0.382199	-2.117997
N	0.477652	0.963246	-2.236391
H	1.454547	0.781095	-1.999816
H	0.254867	1.906287	-1.940922
C	-0.598389	-1.127371	0.693304
N	-1.116515	-2.019422	1.253525
Cl	3.284783	0.0	0.0
