12
Coordinates from ORCA-job run
  C   1.29288789350398      0.26336717451930      0.07583626907311
  C   -0.10646417468087     -0.07263289492462     -0.38964303069002
  F   1.64163047104769      1.45587612476868     -0.52470604718477
  H   -0.17460647151453     -0.17353212729707     -1.47239367170532
  H   1.98494395979412     -0.51481304613540     -0.23985510978126
  H   1.31006762204007      0.39000899885508      1.15811855499080
  N   -1.07330731013349      0.99196733511057      0.01899327871461
  O   -0.98344096131211      1.39526296018510      1.17297663172319
  O   -1.87841725682372      1.35174835199448     -0.83340211334046
  N   -0.56667898054147     -1.37362611929617      0.21425982842983
  O   0.24955863754682     -2.28603839065521      0.14290042765658
  O   -1.69617342892649     -1.42658836712474      0.67891498211373
