12
Coordinates from ORCA-job run
  C   1.30634158675239      0.25362383515576      0.04098919987486
  C   -0.10402650146678     -0.02491546685249     -0.42019373530245
  F   1.38665137840578      0.10432264694198      1.40485700150541
  H   -0.16681898879260     -0.16524600546661     -1.49910960974512
  H   1.59414346213746      1.27071746955792     -0.22731410186971
  H   1.97231410555776     -0.47220516281716     -0.42900811833817
  N   -1.08776830477332      1.04675547394607     -0.06663733484114
  O   -2.18307065453864      0.93701112588488     -0.60796954668408
  O   -0.73138802983591      1.92226223724082      0.71418764167827
  N   -0.57114354097146     -1.31176521645903      0.21221729101374
  O   -0.02518524403385     -2.31088951890497     -0.23860957061252
  O   -1.38904926844083     -1.24967141822717      1.11659088332092
