12
Coordinates from ORCA-job run
  C   1.30041689412698      0.25141172570758     -0.02522715889921
  C   -0.15047657526391      0.02469776142681     -0.38810405330773
  F   2.02049706854621     -0.77276083364872     -0.60837355909702
  H   -0.32976553927076      0.04628680660517     -1.46279224028224
  H   1.42941877215210      0.21099577351574      1.05592048394458
  H   1.64540646475039      1.20439098964129     -0.42099289467226
  N   -1.04449661339575      1.05553936031783      0.24353859266193
  O   -0.52850828728629      2.14368367669887      0.47832108534390
  O   -2.21247953613818      0.73903658926857      0.42089695147895
  N   -0.60187000406585     -1.31248719162480      0.11096331176256
  O   -0.43117262574588     -1.51820108457447      1.30750209006782
  O   -1.09697001840907     -2.07259357333388     -0.71265260900129
