12
Coordinates from ORCA-job run
  C   1.30853606926325      0.20650706367003     -0.01535155250321
  C   -0.12921732314509     -0.08013588155319     -0.38800313075051
  F   1.64218301794482      1.40619746186859     -0.61278704460771
  H   -0.28004870770039     -0.17712062257169     -1.46290237941101
  H   1.40560329481346      0.30416278910298      1.06547967886432
  H   1.96137827578564     -0.57747613654960     -0.39348590424451
  N   -1.01398435012179      1.03023815915097      0.08649584317778
  O   -0.93522410167042      1.29905854293435      1.28010123716761
  O   -1.73037452774075      1.56415469716115     -0.75192426572950
  N   -0.62460166540897     -1.34467052567538      0.25730299852116
  O   -1.83222426672683     -1.44273611956221      0.42417735003449
  O   0.22897428470707     -2.18817942797600      0.51289716948108
