12
Coordinates from ORCA-job run
  C   1.30454576498540      0.16992959036948     -0.14315975065477
  C   -0.17803565102602      0.01229638361518     -0.37563229436998
  F   1.70273042727878      1.33485856081117     -0.76167766387607
  H   -0.46008090021418      0.09294898351058     -1.42243921105875
  H   1.83135765073724     -0.67327481911843     -0.59632856196848
  H   1.51488236919958      0.23576555041095      0.92261092733350
  N   -0.98806801284103      1.03299616282492      0.37603456398052
  O   -0.47639165907559      1.57204704783355      1.34934128335905
  O   -2.12430505423667      1.20627318134699     -0.05565713161820
  N   -0.61668320532326     -1.33194823794493      0.11531295836008
  O   -0.55741828376619     -1.50608334400506      1.32913454086106
  O   -0.95153344571810     -2.14680905965439     -0.73753966034799
