12
Coordinates from ORCA-job run
  C   1.29774815519720      0.29001307969241     -0.03970425979839
  C   -0.13230441652488     -0.03238492288510     -0.39369028406842
  F   2.09454511157647     -0.65174003069411     -0.65711954527925
  H   -0.30391312486257     -0.13445531930673     -1.46196783679106
  H   1.44268172217735      0.23853340943129      1.03666095259931
  H   1.55438042506477      1.28087700821638     -0.42135992100942
  N   -1.04619257952152      1.03631145809954      0.11779908781744
  O   -1.87502168853714      1.48243597825399     -0.66910074303588
  O   -0.88645936527346      1.36206788557336      1.29206811807689
  N   -0.58898779836274     -1.31958620989273      0.24375252561294
  O   -0.11070262564234     -1.61121374554023      1.33320094601602
  O   -1.44477381529115     -1.93885859094815     -0.38153904014018
