12
Coordinates from ORCA-job run
  C   1.29638252022720      0.23585846711173      0.10423111517124
  C   -0.09977361235337     -0.06727115112777     -0.39254329081307
  F   1.68031264942300      1.42727693073165     -0.47680575235584
  H   -0.14748175852695     -0.15683482739143     -1.47741299358913
  H   1.29447035440910      0.35123513652387      1.18791909081958
  H   1.97916966068234     -0.55268797162984     -0.20574516523025
  N   -1.05233113732326      1.01356902392571      0.00664705558287
  O   -1.82767166940283      1.40335567367694     -0.85999140639504
  O   -0.98153227326849      1.39925427180440      1.16799072335024
  N   -0.59958256943536     -1.36350311283960      0.18953615948776
  O   0.20270637112081     -2.28954787577375      0.13751273370984
  O   -1.74366853555223     -1.39970456501189      0.61866173026179
