12
Coordinates from ORCA-job run
  C   1.30233338443521      0.17083920859645     -0.21687089283850
  C   -0.19068974126412      0.02580512015396     -0.38944511277979
  F   1.65080473033998     -0.12941979524191      1.07838217770482
  H   -0.48653597541823      0.00215293878697     -1.43807791768833
  H   1.60784383008528      1.19294305569123     -0.44337400141057
  H   1.79732519594551     -0.53676218014704     -0.88411142174686
  N   -0.99095561900205      1.11096344467469      0.26037252102125
  O   -0.41556558728842      1.86515377627833      1.03727488133645
  O   -2.17717847869197      1.13225603337785     -0.05163879926075
  N   -0.61820933964796     -1.29078817860896      0.21035583740174
  O   -1.23807159118305     -1.27556760962788      1.26198050808046
  O   -0.24010080831019     -2.26757581393367     -0.42384777981995
