12
Coordinates from ORCA-job run
  C   1.30686704412062      0.24452630617610     -0.05539160428383
  C   -0.14584531975624      0.01325712330699     -0.39375003225990
  F   2.02828026693403     -0.74176865736551     -0.70005784717749
  H   -0.34579395316288     -0.02007486004514     -1.46214878834099
  H   1.46543666931254      0.16687787859534      1.01772559325891
  H   1.62670438192203      1.22106294726522     -0.42138340878548
  N   -1.02822586707160      1.06483321640816      0.20476274009151
  O   -2.16136153089114      1.13931137389799     -0.25944041098125
  O   -0.55563090727421      1.74166878098904      1.11450423367887
  N   -0.61761204844109     -1.29577072746034      0.17817534143920
  O   -0.41568481984537     -1.46088200893477      1.37658430418011
  O   -1.15713391584669     -2.07304137283305     -0.60058012081968
