18

C	0.0	0.0	0.0
C	-0.282531	-0.093714	-1.533873
F	1.35427	0.0	0.0
H	0.536447	-0.749231	-1.852046
N	-0.581441	1.231418	0.582211
O	-1.760925	1.441866	0.033416
O	-0.32182	1.437957	1.799505
N	-0.501064	-1.12701	0.711528
H	-0.281802	-0.934021	1.689683
H	-1.531855	-1.027508	0.631391
N	-0.016072	1.224774	-2.121924
H	-0.088087	1.129948	-3.130441
H	-0.780866	1.817657	-1.81308
C	-1.564795	-0.737435	-2.046598
H	-2.424479	-0.094639	-1.876702
H	-1.759455	-1.700831	-1.569129
H	-1.438964	-0.911652	-3.125062
H	-2.883426	0.0	0.0
