18

C	0.0	0.0	0.0
C	-0.384196	0.022343	-1.503964
F	1.375964	0.0	0.0
H	0.43689	0.592815	-1.950219
N	-0.212274	1.446433	0.606847
O	0.019216	2.410144	-0.119207
O	-0.489977	1.518453	1.800931
N	-0.601444	-0.974186	0.773693
H	-0.432106	-0.787673	1.756518
H	-1.624009	-0.872689	0.601467
N	-1.62525	0.64585	-1.908333
H	-2.39008	0.326245	-1.278019
H	-1.544801	1.643453	-1.745037
C	-0.329024	-1.409976	-2.028895
H	0.593048	-1.916693	-1.730112
H	-1.178552	-1.978929	-1.64698
H	-0.395437	-1.376095	-3.118203
H	-3.3006	0.0	0.0
