18

C	0.0	0.0	0.0
C	-0.367333	-0.115053	-1.510445
F	1.378748	0.0	0.0
H	0.45261	0.405723	-2.013945
N	-0.297953	1.445862	0.459178
O	0.079058	2.323934	-0.318127
O	-0.799354	1.641443	1.55709
N	-0.562347	-0.870336	0.947998
H	-0.447444	-1.818516	0.610811
H	-1.578495	-0.664981	0.9351
N	-1.61324	0.467972	-1.956577
H	-2.372049	0.217596	-1.282896
H	-1.526378	1.476933	-1.90391
C	-0.332404	-1.58841	-1.906054
H	0.578102	-2.089837	-1.560453
H	-1.21125	-2.101903	-1.506553
H	-0.380264	-1.652322	-2.994147
H	-3.322186	0.0	0.0
