18

C	0.0	0.0	0.0
C	-0.281253	0.033153	-1.522041
F	1.372163	0.0	0.0
H	0.215926	0.954931	-1.843465
N	-0.260758	1.36436	0.68161
O	-0.246023	2.363197	-0.020491
O	-0.36285	1.353138	1.906449
N	-0.608475	-1.054377	0.671688
H	-0.467788	-0.958564	1.671563
H	-1.626554	-0.941857	0.492946
N	-1.660006	-0.009461	-1.947738
H	-1.848963	0.754237	-2.587285
H	-2.359424	0.046697	-1.160835
C	0.461684	-1.15914	-2.154686
H	1.514796	-1.236901	-1.869675
H	0.400882	-1.03716	-3.2383
H	-0.057596	-2.07816	-1.885445
H	-3.261127	0.0	0.0
