19

C	-0.478452	-0.015805	-1.463711
C	0.0	0.0	0.0
Cl	0.325014	1.318221	-2.380586
H	1.096313	0.0	0.0
C	-0.090716	-1.266869	-2.124101
N	0.131556	-2.296323	-2.644496
C	-1.986333	0.170341	-1.629245
H	-2.283209	1.143384	-1.237377
H	-2.258534	0.122772	-2.685123
H	-2.523101	-0.61474	-1.092207
C	-0.438567	-1.261901	0.743151
H	-0.066716	-2.166024	0.257125
H	-1.527223	-1.334311	0.847389
H	-0.005224	-1.235089	1.745998
C	-0.460649	1.248127	0.747202
H	-1.530312	1.222634	0.980923
H	0.091959	1.305082	1.687176
H	-0.238763	2.158098	0.187224
Br	3.606139	0.0	0.0
