19

C	-0.386369	0.053702	-1.490183
C	0.0	0.0	0.0
Cl	0.058961	-1.501209	-2.307678
H	1.097379	0.0	0.0
C	-1.837416	0.199974	-1.652758
N	-2.998699	0.356022	-1.754957
C	0.363484	1.162001	-2.22532
H	1.428615	1.047049	-2.008879
H	0.189845	1.090515	-3.30027
H	0.025227	2.141021	-1.881185
C	-0.542053	-1.224313	0.722889
H	-0.221686	-1.188556	1.767074
H	-1.638299	-1.250341	0.702196
H	-0.159488	-2.149712	0.293834
C	-0.451559	1.277486	0.712185
H	-1.540635	1.400481	0.686974
H	0.018109	2.169561	0.295124
H	-0.140164	1.218197	1.758284
Br	3.620777	0.0	0.0
