19

C	-0.396428	0.042645	-1.485802
C	0.0	0.0	0.0
Cl	0.145052	-1.470161	-2.317792
H	1.097384	0.0	0.0
C	-1.85474	0.095681	-1.641061
N	-3.022719	0.173715	-1.747384
C	0.27152	1.204323	-2.216212
H	0.102091	1.125024	-3.291248
H	-0.136944	2.154165	-1.867606
H	1.34275	1.16397	-2.002579
C	-0.532372	-1.223146	0.733097
H	-0.171314	-1.202505	1.764409
H	-1.628753	-1.232982	0.753513
H	-0.180202	-2.150049	0.280925
C	-0.455227	1.278402	0.707448
H	-1.540576	1.420316	0.645295
H	-0.18276	1.207563	1.763305
H	0.04443	2.163712	0.31244
Br	3.631389	0.0	0.0
