19

C	-0.35225	-0.026812	-1.490905
C	0.0	0.0	0.0
Cl	-2.169159	-0.103159	-1.745198
H	1.099253	0.0	0.0
C	0.063524	1.221368	-2.14035
N	0.383644	2.224998	-2.661902
C	0.279389	-1.207808	-2.220779
H	1.353722	-1.20215	-2.004848
H	-0.162049	-2.140891	-1.868377
H	0.112277	-1.127456	-3.296406
C	-0.445495	-1.261401	0.732728
H	-1.53006	-1.400714	0.688653
H	0.047189	-2.153648	0.343314
H	-0.152573	-1.172563	1.781919
C	-0.492179	1.254935	0.708451
H	-1.584794	1.279438	0.77352
H	-0.149044	2.161309	0.204814
H	-0.082802	1.271784	1.721591
Br	3.575652	0.0	0.0
