14

C	0.0	0.0	0.0
C	-0.603323	0.102693	-1.401713
Br	1.950155	0.0	0.0
H	-1.643576	0.394263	-1.213233
H	-0.331333	-0.915457	0.489167
C	-0.383596	1.152443	0.813652
N	-0.626571	2.100641	1.45982
N	-0.512221	-1.2195	-2.032002
H	-0.858871	-1.116446	-2.980998
H	-1.193241	-1.817749	-1.563136
N	0.038943	1.143937	-2.16418
H	0.891422	0.789498	-2.582223
H	-0.584439	1.46551	-2.89259
Br	-3.757498	0.0	0.0
