14

C	0.0	0.0	0.0
C	-0.609966	-0.31205	-1.37211
Br	1.950383	0.0	0.0
H	-1.626152	0.092277	-1.305864
H	-0.326909	-0.732228	0.738266
C	-0.370261	1.344296	0.441107
N	-0.580344	2.446441	0.787294
N	-0.624988	-1.771452	-1.533709
H	-1.366787	-2.116534	-0.924726
H	-0.953596	-1.953306	-2.477761
N	0.094309	0.376476	-2.423931
H	0.922909	-0.146806	-2.684648
H	-0.510123	0.468332	-3.229443
Br	-3.754911	0.0	0.0
