17
Coordinates from ORCA-job run
  C   -0.65444865380908      0.15733258103218     -0.33359022787059
  C   0.78333754442222     -0.37133211065107     -0.16716014267633
  Br  -0.60012624722725      1.95025658933051     -1.14469219463689
  H   0.66736789224062     -1.40140551866706      0.20365844969833
  C   -1.36862752023434      0.28730623323482      1.00726610762943
  H   -2.40662266134570      0.58087041566630      0.83971994476226
  H   -0.90855375178940      1.02910341956685      1.66022400982532
  H   -1.36168044334566     -0.68584841617350      1.51227936551419
  N   -1.32079019044019     -0.70006899936141     -1.29119345254657
  H   -1.40867631092461     -1.63437824139606     -0.90166209727366
  H   -2.25061062948866     -0.35037648879573     -1.49362207732964
  C   1.65749339337593      0.39765347955745      0.82642970268569
  H   1.74420466722452      1.44361009985755      0.53026169029091
  H   1.24313119896307      0.34374064738348      1.83381603331329
  H   2.65812178372264     -0.03716898767642      0.84838854106860
  C   1.45527898443600     -0.46590058323545     -1.46599905956782
  N   2.07020094421989     -0.54139411967246     -2.46312459288650
