17
Coordinates from ORCA-job run
  C   -0.76460462049531      0.09519535650768     -0.20387387079773
  C   0.78721806078420      0.16379836682321     -0.33022037278034
  Br  -1.45132900512231     -0.25124907034144     -2.02672115193854
  H   1.02857831248418      0.96131083031729     -1.04200988548178
  C   -1.33714843971852      1.42785457245466      0.24909360562970
  H   -1.01091360720248      2.23797905136461     -0.40493850233942
  H   -2.42541337841522      1.37350489483528      0.23826450227660
  H   -1.00552735878752      1.64669729345312      1.26865464579479
  N   -1.27111460072004     -0.94689188244899      0.64544732019299
  H   -0.91256140160219     -1.85852097425161      0.39235460719275
  H   -1.04964677600796     -0.74860859038905      1.61535872277861
  C   1.46647250682429     -1.13297602193322     -0.77832785317301
  H   2.54470171780187     -0.97973532807142     -0.85031551997059
  H   1.09331936147815     -1.44096935765501     -1.75440421539133
  H   1.29553331419314     -1.93525085397584     -0.05806929365827
  C   1.31278408475081      0.55267824971023      0.98281791501515
  N   1.69965182975489      0.83418346360051      2.05588934665044
