17
Coordinates from ORCA-job run
  C   -0.65835840970303      0.23766727301446     -0.27278502482492
  C   0.74429194318717     -0.40035088395684     -0.25636352510844
  Br  -0.51873193241965      2.10365057534233     -0.88352119601663
  H   0.57336596997800     -1.45617527416747      0.00473094781397
  C   -1.28602505108869      0.25988577675189      1.11649480853160
  H   -0.73746831476034      0.88950466003387      1.81721305218636
  H   -1.32208505962560     -0.76325713999476      1.50895205004086
  H   -2.30757384754794      0.63873178172507      1.04851158404100
  N   -1.43688700262810     -0.45907428751302     -1.27532634188429
  H   -2.34647744862215     -0.02462463915752     -1.38343697623335
  H   -1.57581566678448     -1.42229889877367     -0.98323650849658
  C   1.72450943851593      0.18952292743312      0.76038540694722
  H   1.86477553651579      1.25645461997459      0.58291641575817
  H   2.69315538604239     -0.30425574882128      0.66690675801794
  H   1.36543389711517      0.04006577170852      1.77939733457515
  C   1.33496044531042     -0.39033483761066     -1.59709267478176
  N   1.88793011651512     -0.39311167598862     -2.63274611056629
