15

C	0.0	0.0	0.0
C	-0.600705	0.143415	-1.385779
Cl	1.845657	0.0	0.0
H	-1.679256	0.132918	-1.170868
H	-0.250487	-0.975076	0.420299
N	-0.501497	1.028449	0.810205
H	-0.121586	1.031869	1.743662
H	-0.394723	1.919377	0.344828
N	-0.171685	-0.946757	-2.268027
H	-0.202285	-1.819521	-1.749748
H	-0.872076	-1.032246	-2.997579
N	-0.259195	1.443726	-1.933617
H	-0.996651	1.757041	-2.550903
H	0.597491	1.342367	-2.466071
Cl	-4.072132	0.0	0.0
