15

C	0.0	0.0	0.0
C	-0.512329	-0.583715	-1.330063
Cl	1.782308	0.0	0.0
H	-1.584086	-0.365858	-1.331623
H	-0.285564	-0.666353	0.822895
N	-0.495259	1.350003	0.116038
H	-1.515582	1.263122	0.095038
H	-0.245362	1.721984	1.025744
N	-0.236253	-2.01658	-1.370076
H	-0.525561	-2.32627	-2.291742
H	-0.857314	-2.468044	-0.705129
N	0.059019	0.008543	-2.524131
H	1.068684	-0.0719	-2.465047
H	-0.165218	0.997039	-2.50818
Cl	-3.652515	0.0	0.0
