15

C	0.0	0.0	0.0
C	-0.43774	0.048253	-1.466622
Cl	1.809476	0.0	0.0
H	-1.531161	0.048784	-1.406872
H	-0.308505	-0.947031	0.446335
N	-0.501086	1.079358	0.787051
H	-0.445527	1.906392	0.198583
H	-1.494608	0.88256	0.925023
N	0.094136	-1.095037	-2.222951
H	0.13768	-1.91087	-1.620981
H	-0.562496	-1.317241	-2.963245
N	-0.020003	1.313733	-2.048179
H	-0.606399	1.52962	-2.844137
H	0.932413	1.198414	-2.37754
Cl	-3.660804	0.0	0.0
