15

C	0.0	0.0	0.0
C	-0.436514	-0.073954	-1.511912
Cl	1.805056	0.0	0.0
H	0.467361	-0.122256	-2.124752
H	-0.284749	-0.933161	0.48669
N	-0.495849	1.085873	0.784946
H	-0.458424	1.914298	0.201059
H	-1.48102	0.892019	0.959788
N	-1.124584	1.156511	-1.858773
H	-2.03561	1.12788	-1.399244
H	-1.312501	1.112343	-2.853976
N	-1.233936	-1.252993	-1.841119
H	-2.113212	-1.184273	-1.32919
H	-0.754207	-2.092544	-1.531465
Cl	-3.735529	0.0	0.0
