15

C	0.0	0.0	0.0
C	-0.500279	0.212518	-1.417914
Cl	1.879247	0.0	0.0
H	-1.587189	0.105961	-1.318562
H	-0.230508	-1.014324	0.317322
N	-0.531515	0.94546	0.852449
H	-0.466093	1.891812	0.515056
H	-0.364338	0.81531	1.834334
N	-0.015337	-0.849312	-2.284184
H	0.97338	-0.726082	-2.465674
H	-0.514391	-0.817786	-3.164225
N	-0.22024	1.596852	-1.805049
H	-0.863492	1.880496	-2.533223
H	0.726562	1.665125	-2.159519
Cl	-4.138116	0.0	0.0
