13

C	0.0	0.0	0.0
C	-0.207979	-0.174798	-1.551858
Cl	1.790289	0.0	0.0
H	0.279719	0.703921	-1.991139
H	-0.371182	-0.844237	0.566152
H	0.439176	-1.019102	-1.814304
C	-0.512653	1.250142	0.542395
N	-0.633939	2.329993	0.994845
C	-1.544139	-0.388024	-2.245432
H	-1.324097	-0.502483	-3.319358
H	-2.225054	0.434512	-2.068406
H	-2.045474	-1.276154	-1.872079
F	-2.403527	0.0	0.0
