13

C	0.0	0.0	0.0
C	-0.438265	-0.117773	-1.464614
Cl	1.791964	0.0	0.0
H	-1.50171	0.142054	-1.413195
H	-0.371491	-0.836808	0.581963
H	0.148571	0.593239	-2.057126
C	-0.454508	1.252509	0.603465
N	-0.590342	2.321537	1.072017
C	-0.271516	-1.53851	-1.981794
H	-0.52798	-1.596501	-3.044205
H	-0.961664	-2.187949	-1.436798
H	0.748843	-1.917133	-1.86261
F	-2.546366	0.0	0.0
