13

C	0.0	0.0	0.0
C	-0.449582	0.048703	-1.468242
Cl	1.792072	0.0	0.0
H	0.254486	0.669548	-2.033073
H	-0.362503	-0.897038	0.490202
H	-1.452787	0.473571	-1.422591
C	-0.446358	1.173278	0.751945
N	-0.584959	2.170714	1.357839
C	-0.554934	-1.359055	-2.033725
H	0.361253	-1.942394	-1.888589
H	-1.389374	-1.836377	-1.516578
H	-0.776144	-1.341172	-3.105873
F	-2.524176	0.0	0.0
