13

C	-0.293994	-0.000585	-1.479521
C	0.0	0.0	0.0
Cl	-2.041465	-0.193009	-1.865959
H	1.09546	0.0	0.0
H	0.217841	-0.865025	-1.904178
C	0.192005	1.224985	-2.107258
N	0.540826	2.21975	-2.624817
N	-0.331129	-1.264789	0.615828
O	-0.545726	-1.279625	1.836007
O	-0.200833	-2.275333	-0.092884
C	-0.534299	1.124714	0.720967
N	-0.915047	2.093965	1.268745
H	2.353374	0.0	0.0
