13

C	-0.302038	-0.014477	-1.477822
C	0.0	0.0	0.0
Cl	-2.055033	-0.207268	-1.849714
H	1.096379	0.0	0.0
H	0.20313	-0.886419	-1.897161
C	0.181962	1.204968	-2.119301
N	0.542662	2.201376	-2.62691
N	-0.331999	-1.258728	0.629266
O	-0.53846	-1.262095	1.850485
O	-0.209062	-2.275639	-0.071338
C	-0.528489	1.132854	0.713602
N	-0.891657	2.104815	1.268388
H	2.354733	0.0	0.0
