13

C	-0.430496	0.078992	-1.454377
C	0.0	0.0	0.0
Cl	0.43116	-1.074802	-2.524679
H	1.091791	0.0	0.0
H	-0.119914	1.069214	-1.802219
C	-1.874305	-0.047074	-1.648627
N	-3.035661	-0.099232	-1.819459
N	-0.44032	-1.188738	0.704676
O	-0.808693	-2.164201	0.034355
O	-0.281324	-1.185116	1.932357
C	-0.413513	1.188017	0.711759
N	-0.717473	2.203158	1.22355
H	2.377157	0.0	0.0
