16

C	-0.492598	0.022202	-1.433477
C	0.0	0.0	0.0
F	-0.024323	-1.172987	-2.037383
H	1.092757	0.0	0.0
H	-0.338365	-0.949466	0.451021
N	-1.93118	0.018693	-1.462749
H	-2.247392	-0.858508	-1.060794
H	-2.243407	0.039869	-2.42758
C	0.076192	1.173636	-2.225621
H	-0.258906	2.113183	-1.789761
H	-0.244769	1.105398	-3.270445
H	1.165342	1.123708	-2.178686
N	-0.464868	1.198896	0.694052
H	-1.450208	1.11301	0.910063
H	0.055974	1.299626	1.556573
Cl	3.632341	0.0	0.0
