16

C	-0.422339	0.008504	-1.457722
C	0.0	0.0	0.0
F	-1.842151	-0.045234	-1.469296
H	1.093974	0.0	0.0
H	-0.355502	-0.925667	0.475933
N	-0.046935	1.215069	-2.137909
H	-0.082458	1.957413	-1.442735
H	0.92042	1.124055	-2.431039
C	0.080774	-1.209023	-2.198075
H	-0.226968	-1.147816	-3.243115
H	-0.342492	-2.112924	-1.757532
H	1.168655	-1.260552	-2.128885
N	-0.472552	1.219496	0.657186
H	0.115964	1.411345	1.458428
H	-1.425339	1.094428	0.976354
Cl	3.586839	0.0	0.0
