16

C	-0.427045	0.014861	-1.458288
C	0.0	0.0	0.0
F	-1.83813	-0.107476	-1.479027
H	1.095726	0.0	0.0
H	-0.346522	-0.930572	0.470257
N	-0.115699	1.254869	-2.118435
H	-0.284323	1.980884	-1.425678
H	0.882933	1.257431	-2.30217
C	0.151983	-1.155906	-2.21783
H	-0.160709	-1.098782	-3.262223
H	1.24138	-1.138386	-2.14844
H	-0.208567	-2.092353	-1.788748
N	-0.47553	1.20753	0.682831
H	-1.335818	1.019157	1.180274
H	0.225241	1.496046	1.354171
Cl	3.526327	0.0	0.0
