16

C	-0.389885	-0.010405	-1.463434
C	0.0	0.0	0.0
F	-1.808192	0.048517	-1.54728
H	1.094696	0.0	0.0
H	-0.34195	0.958537	0.417305
N	0.124597	1.192409	-2.068266
H	0.255773	1.05324	-3.06294
H	1.036709	1.398687	-1.667918
C	0.022177	-1.28957	-2.164036
H	-0.306709	-1.253461	-3.208516
H	1.111121	-1.380495	-2.122401
H	-0.42519	-2.151395	-1.667777
N	-0.507971	-1.172181	0.705546
H	0.053596	-1.318637	1.53519
H	-1.464461	-1.003874	0.992878
Cl	3.548974	0.0	0.0
