16

C	-0.437993	0.015769	-1.459835
C	0.0	0.0	0.0
F	-0.204824	-1.251014	-2.009969
H	1.093793	0.0	0.0
H	-0.323136	0.945696	0.456921
N	-1.881372	0.186441	-1.539944
H	-2.154468	0.235452	-2.516274
H	-2.125608	1.069076	-1.106692
C	0.381454	0.993214	-2.279345
H	0.209589	2.014726	-1.929789
H	1.443915	0.766396	-2.166294
H	0.095578	0.927276	-3.334294
N	-0.524381	-1.124378	0.765995
H	-1.448604	-1.340902	0.408354
H	0.065126	-1.923581	0.570837
Cl	3.619434	0.0	0.0
