16

C	-0.536148	0.039241	-1.426703
C	0.0	0.0	0.0
F	-0.198782	-1.181673	-2.015567
H	1.098756	0.0	0.0
H	-0.366784	-0.921596	0.463905
N	-1.987023	0.12699	-1.504191
H	-2.239737	0.851712	-0.836398
H	-2.346304	-0.74404	-1.121592
C	0.105419	1.142636	-2.236531
H	1.192213	1.05396	-2.177015
H	-0.229506	1.062226	-3.271982
H	-0.198096	2.117681	-1.846401
N	-0.531321	1.16962	0.737976
H	0.17627	1.895921	0.69166
H	-0.594413	0.924048	1.718359
Cl	3.60251	0.0	0.0
