16
Coordinates from ORCA-job run
  C   -0.58502812276776     -0.49349428578945      0.48739381501912
  C   0.80067559780454      0.19515648294824      0.32910970260986
  Br  -0.32542596508419     -2.16239805752377      1.48264208161084
  H   1.27002328075150      0.18805488426051      1.32260870632264
  C   -1.44799285996958      0.35307536343901      1.30688082257455
  N   -2.11323946027110      1.08799954130104      1.93946943329324
  C   -1.23663026326600     -0.80336974071594     -0.85247505156738
  H   -1.34728010873593      0.12575899761722     -1.41516008755377
  H   -2.21575672046185     -1.25992331463951     -0.70531004050215
  H   -0.59997610343673     -1.49674938392385     -1.40180303153700
  N   0.56468511407306      1.53406861702064     -0.20622698907760
  H   0.04157802908554      2.10571954380445      0.44892515236189
  H   1.46047421987835      1.98396991124779     -0.35696576794363
  N   1.62327900539031     -0.58043968373144     -0.56479188854452
  H   1.51279820722961     -0.23858668879892     -1.51164109126257
  H   2.59781614978022     -0.53884218651600     -0.30365576580350
