16
Coordinates from ORCA-job run
  C   -0.59081868848876     -0.38535052782085      0.37656526920649
  C   0.57267396844048      0.46719669697394     -0.18549226592708
  Br  0.09968360573599     -1.69274042658727      1.66932004283437
  H   0.09275275967900      1.09806359389371     -0.95323108589146
  C   -1.51272178982495      0.48795555768751      1.09837093951893
  N   -2.24721992048865      1.23758317603633      1.62882215821600
  C   -1.31869551948101     -1.13406430949730     -0.73284061223008
  H   -2.12689525190442     -1.73836133850365     -0.32028757436672
  H   -0.60389090419298     -1.76901581026897     -1.25326174550555
  H   -1.74142892861077     -0.41345180773080     -1.43937637778065
  N   1.50962038787109     -0.38868470978635     -0.87139997156686
  H   2.14447390344526     -0.78780612744882     -0.18862967697998
  H   2.04818282354327      0.14339888144612     -1.54277165907121
  N   1.20160254577314      1.22802833528742      0.88197780047948
  H   0.53903123209956      1.84260707331839      1.34333884428305
  H   1.93564977640375      1.80464174300058      0.48789591478129
