16
Coordinates from ORCA-job run
  C   -0.57078907335559     -0.49578162135857      0.50214873492634
  C   0.79640452243463      0.22352051903174      0.32093158602973
  Br  -0.26542211756234     -2.13202715575540      1.53790516914134
  H   1.26985818032334      0.25231347142188      1.31202286572855
  C   -1.45234620499439      0.34864544783341      1.30372931966645
  N   -2.13382506597665      1.08211209635475      1.92057831746882
  C   -1.21872611157853     -0.85559867348036     -0.82693402338158
  H   -2.18593747813579     -1.33207738551578     -0.66487904966254
  H   -0.56686496194103     -1.54673784991406     -1.36097212776463
  H   -1.35386694854372      0.05622494333028     -1.41214714148066
  N   0.52447829695591      1.54231748731421     -0.24546821225103
  H   1.40756571258765      2.01054003463655     -0.41425305612259
  H   -0.00886481266025      2.11726533799800      0.39844377654469
  N   1.63475037383454     -0.55277943161840     -0.55771478889984
  H   1.51287214502742     -0.23646101805759     -1.51182754159357
  H   2.60871354358481     -0.48147620222064     -0.30156382834946
