16
Coordinates from ORCA-job run
  C   -0.55627594703933     -0.49832501975222      0.47300391648960
  C   0.74600514165086      0.32974934431384      0.32533018580989
  Br  -0.12012711180058     -2.22530257082323      1.33195297506656
  H   1.13474215952900      0.48022907305239      1.34320039577192
  C   -1.44298127836429      0.20327132163147      1.39636744507989
  N   -2.15207907070971      0.77067333379098      2.14184863303635
  C   -1.24572950286648     -0.76440407477988     -0.85679206896806
  H   -2.14463824345544     -1.36277635025261     -0.70614557893574
  H   -0.56424211217051     -1.28542008200881     -1.52761468708859
  H   -1.53087476532404      0.19363107729094     -1.29670491349637
  N   0.37248555300893      1.61904847689417     -0.21490659048478
  H   0.90230897949774      2.37141331015050      0.20084454998299
  H   0.50858471517310      1.61971182472136     -1.21820880170514
  N   1.66635586313433     -0.35854730618294     -0.56692424714979
  H   2.52251905442128      0.18087018360134     -0.62605231515269
  H   1.90294656531525     -1.27382254164722     -0.20119889825609
