16
Coordinates from ORCA-job run
  C   -0.58199663697409     -0.50208770583578      0.50836354379067
  C   0.76705734890034      0.25466680362414      0.40762547275554
  Br  -0.28470331889095     -2.21026084579952      1.43060651199934
  H   1.16355092420497      0.31267865686720      1.42490585159278
  C   -1.50789662995875      0.26104787434515      1.34201504964274
  N   -2.27493161008101      0.85251929182018      2.00713308845716
  C   -1.19872214210560     -0.78794370097952     -0.85587459759549
  H   -0.52179083229722     -1.41009367451169     -1.44245892175692
  H   -2.14395908499888     -1.31872243036198     -0.74075944741064
  H   -1.40022357229422      0.15298452640074     -1.37606488774726
  N   0.46553427488148      1.61508841163792     -0.01858762134702
  H   1.21506978437253      2.24184785492123      0.24604179056881
  H   0.36415275960354      1.66218478873107     -1.02577925007573
  N   1.70193711832395     -0.51997159502227     -0.38958828982779
  H   1.58163763747379     -0.31919637101316     -1.37512764561794
  H   2.65428397984009     -0.28674188482371     -0.14045064742822
