16
Coordinates from ORCA-job run
  C   -0.47047682574696     -0.63670579399064      0.20983605722993
  C   0.89557379636078     -0.02795594030879     -0.22283575623415
  Br  -0.24467219053546     -2.55312209911106      0.56216254740236
  H   1.22237507999658     -0.61860208246961     -1.08610175228279
  C   -0.89370546984800      0.00670790096446      1.45053147464425
  N   -1.19143929615518      0.60678625086567      2.41723640161734
  C   -1.54447539184762     -0.48379620238749     -0.86354959907298
  H   -1.18649975497698     -0.91710648305245     -1.80046603194784
  H   -2.45552401676895     -1.00333052946615     -0.56693097008071
  H   -1.78360210592026      0.57037204419218     -1.01532034880083
  N   1.85823509187328     -0.20633600307405      0.83587413613135
  H   2.74624093850114      0.16168607481296      0.51564161796412
  H   1.58599602190515      0.33293033027568      1.65209900625155
  N   0.79960639509206      1.35706184424679     -0.65746514653281
  H   0.41339411979906      1.94726410072439      0.07177580005572
  H   0.24997360827136      1.46414658777815     -1.50048743634453
