16
Coordinates from ORCA-job run
  C   -0.53491898573457     -0.34707309091788      0.39195882280499
  C   0.60157243190160      0.56248472260334     -0.17579652245388
  Br  0.19636854827279     -1.60143925058001      1.70974191282346
  H   0.08768161194622      1.16809636970404     -0.94404499574654
  C   -1.50607502150391      0.49674475483047      1.08130544277270
  N   -2.28786978595729      1.22175730733831      1.57756187858102
  C   -1.22370731457003     -1.14733671432686     -0.70780286472234
  H   -2.04078263269655     -1.74081137688145     -0.29737572982626
  H   -1.62804952964730     -0.46476333263591     -1.46135593353802
  H   -0.50982483297182     -1.82520035815557     -1.17720974657186
  N   1.68201848688957     -0.12212797749102     -0.83358495964779
  H   1.38143051423533     -0.60079600137802     -1.67112197170913
  H   2.11551890611155     -0.77880489967513     -0.19493219324148
  N   1.18660175291307      1.33541787216425      0.89452447955812
  H   0.51883554626664      1.98013869548568      1.29974032035675
  H   1.96020030454465      1.86271327991575      0.50939206056031
