16
Coordinates from ORCA-job run
  C   -0.50321995035700     -0.60224228156287      0.25472264871501
  C   0.77384674392883      0.12218458249380     -0.22807169496376
  Br  -0.03244455544924     -2.44562240875879      0.78421404076827
  H   1.10590669299934     -0.42454978896108     -1.12445342778795
  C   -1.03215539639888      0.07587684916440      1.43432979654900
  N   -1.49947783091978      0.66214833919224      2.33938358767711
  C   -1.55822352884883     -0.68763404777745     -0.84096367140645
  H   -2.43587905916521     -1.22695984878274     -0.48353803824379
  H   -1.83604842920235      0.32331657922846     -1.13715391199923
  H   -1.14683807990814     -1.21581139329152     -1.70375904080076
  N   1.75424168812838      0.17461156179787      0.84371856500318
  H   2.57875065339190      0.66272628402812      0.51408418018871
  H   2.03429625210374     -0.75460291910457      1.13397525306710
  N   0.38211868543819      1.45365558289720     -0.64170688374832
  H   0.38099221660772      2.05786430374105      0.17394579819401
  H   1.03413389765134      1.82603860569591     -1.31972720121208
