16
Coordinates from ORCA-job run
  C   -0.52574770068512     -0.46065765978444      0.46252144247276
  C   0.85248634551043      0.25878812794841      0.32059696163080
  Br  -0.22617648166242     -2.20182632800023      1.34527076689350
  H   1.27785802500277      0.30349608446036      1.33458660636931
  C   -1.35345425567254      0.32903613923157      1.36913514731629
  N   -1.98648423975049      1.02386961011393      2.07570123662496
  C   -1.23559443856352     -0.69913813338486     -0.86272922179562
  H   -1.45918575330420      0.26111616958861     -1.33436815285061
  H   -2.17555344168243     -1.22762807398349     -0.70166246799134
  H   -0.59073464015184     -1.27693969641676     -1.52189702945684
  N   0.75449950391206      1.61481937275273     -0.16142169680506
  H   0.22103071974068      2.20634324775092      0.46239563099208
  H   0.35695933806498      1.63742805118518     -1.09198203026121
  N   1.66308403342996     -0.46307498497006     -0.63804907991939
  H   1.91224885257217     -1.37599309660792     -0.27799112058627
  H   2.51276413323955      0.07036117011608     -0.77910699263337
