16
Coordinates from ORCA-job run
  C   -0.51412099288876     -0.66954490881549      0.18643538600353
  C   0.83125091275374      0.01895137008289     -0.15297867827213
  Br  -0.18867153678827     -2.59509076119257      0.37593752414763
  H   1.26580978256563     -0.55400234449010     -0.98458457671331
  C   -0.99413866550073     -0.16905108935957      1.47101374868763
  N   -1.34722055043976      0.27027831587207      2.50222823492340
  C   -1.56557537856880     -0.46718002546357     -0.89903046486867
  H   -1.17158609202502     -0.80449715701296     -1.86133512707430
  H   -2.46228588570511     -1.04435899865568     -0.67364311388630
  H   -1.83396824063064      0.58923308635916     -0.95351529706616
  N   1.72482100926802     -0.08802333946066      0.96792371961758
  H   1.46225223420958      0.57296628664941      1.69096948274469
  H   2.68300371133189      0.07948302530112      0.69211723499360
  N   0.53044946451464      1.41067918026376     -0.49541332903209
  H   0.20148430806856      1.49329389969652     -1.45067735924645
  H   1.37949591983501      1.95686346022564     -0.41544738495862
