16
Coordinates from ORCA-job run
  C   -0.46419731837329     -0.61343704995764      0.15348476957153
  C   0.86745411295455      0.12991072865603     -0.16897432434369
  Br  -0.02933446227172     -2.51701402133132      0.42608174591615
  H   1.32179506154346     -0.41891235488857     -1.00785573478140
  C   -1.01049907854025     -0.10712718739250      1.40719084596597
  N   -1.45185467061131      0.31701271910549      2.41058443066843
  C   -1.48473045765430     -0.51219202298621     -0.97244854363015
  H   -1.81206975001296      0.52504505685049     -1.06643110262357
  H   -1.03384448512187     -0.84784835572114     -1.90992655772359
  H   -2.35615720789205     -1.13351544598876     -0.76446137688509
  N   1.83037569866544      0.17187590437109      0.90141731252369
  H   1.41305450705258      0.59592670940969      1.72391887718781
  H   2.15205777274639     -0.75684267392702      1.13939120846236
  N   0.51719748021541      1.50740087110479     -0.47081240527080
  H   1.36243831019366      2.05929170242685     -0.38211676627834
  H   0.17931448710624      1.60142542026875     -1.42004237875937
