16
Coordinates from ORCA-job run
  C   -0.55570940184254     -0.47900665729110      0.47739321362343
  C   0.86438500429042      0.16738718806401      0.40214239650552
  Br  -0.43093132119080     -2.18221603116136      1.44518182038907
  H   1.28434831107340      0.10134870690626      1.40970520418890
  C   -1.42095602945349      0.38981414335937      1.27095813105473
  N   -2.07435230564280      1.14396217609887      1.89306824405898
  C   -1.16789536674661     -0.74417373560633     -0.89306208051697
  H   -2.17511018071765     -1.14829084825122     -0.79050901213831
  H   -0.55372383208944     -1.46727543936771     -1.42922124314659
  H   -1.23322482029804      0.18725736667371     -1.46393728078158
  N   0.84926259244847      1.57640728049963      0.04080558710214
  H   0.36056584626055      2.13647597159348      0.72979294024686
  H   0.41150339577042      1.72460216976823     -0.86125394124359
  N   1.68435149533110     -0.63026175514835     -0.48122209062398
  H   1.50089247743616     -0.37195000383637     -1.44497005667497
  H   2.65559413537085     -0.40508053230117     -0.30287183204366
