16
Coordinates from ORCA-job run
  C   -0.61221816866285     -0.27983005722934      0.34439344902468
  C   0.63084309452845      0.52044941373301     -0.15706234475716
  Br  -0.16389878321864     -1.29978104789803      1.95899919179827
  H   0.22753783963452      1.14796108192037     -0.97089682957170
  C   -1.63692960040023      0.68990327020280      0.72169325585659
  N   -2.43255933990156      1.51808635887088      0.97352972291086
  C   -1.13966378771680     -1.24508805281673     -0.71023624004707
  H   -2.06140179162573     -1.72254782242581     -0.37685231850716
  H   -1.34471006217664     -0.69762914302977     -1.63625213805434
  H   -0.39455552277330     -2.01886043091268     -0.89641395439657
  N   1.65485751078349     -0.40764513555478     -0.58875961854023
  H   1.44661255094478     -0.78556175930343     -1.50402273836703
  H   2.52069233647795      0.11415124721975     -0.65283736565237
  N   1.22860727744340      1.41328177811659      0.80156916881751
  H   1.48473131654256      0.89682216524827      1.63568492893324
  H   0.59105513012061      2.15628813385891      1.05846383055249
