16
Coordinates from ORCA-job run
  C   -0.51089424826740     -0.46472941339732      0.47338611539361
  C   0.84820207037252      0.28670851707683      0.31521091133562
  Br  -0.16523280034323     -2.18128732904602      1.38699994070936
  H   1.27444017870659      0.36097858463839      1.32709227243911
  C   -1.35945758210285      0.31847229625658      1.36581169929049
  N   -2.03304481369095      1.00161024106403      2.04552125838042
  C   -1.21688896182086     -0.74489848430618     -0.84589150182088
  H   -0.55837011168795     -1.31764067918224     -1.49594850440967
  H   -1.46602070461157      0.20067322950511     -1.33397909799969
  H   -2.14263227558706     -1.29437635456898     -0.67317694353730
  N   0.71428627465468      1.63087219485874     -0.19136523331488
  H   0.16591722742140      2.21959539239603      0.42212055348022
  H   0.31515257845966      1.62567621696181     -1.12150291846237
  N   1.67538852631239     -0.43131427875862     -0.63204216323300
  H   2.51117461599973      0.12077504720644     -0.78398187032095
  H   1.94798002618482     -1.33111518070460     -0.25625451793010
