16
Coordinates from ORCA-job run
  C   -0.53119353355151     -0.27354594532622      0.33190105166002
  C   0.64321836927563      0.62914683644353     -0.21459161240992
  Br  0.17456509615390     -1.47987688360291      1.71972408410869
  H   0.15315055039363      1.26138757519339     -0.96754775368267
  C   -1.51929806034191      0.58458282897540      0.97553999301474
  N   -2.30430556045106      1.32681240493384      1.44035413159466
  C   -1.18528412796866     -1.11284915221635     -0.75748235428066
  H   -2.03156061413733     -1.67616326589025     -0.36312209924091
  H   -0.46365216495352     -1.81697875702317     -1.17177516601355
  H   -1.54449629756548     -0.45202451323998     -1.55297011575119
  N   1.68235084096371     -0.11528705352673     -0.87822876747402
  H   1.36347137813455     -0.50761587404998     -1.75253348638962
  H   2.03364362939420     -0.86121630825403     -0.28935486991501
  N   1.23243330751782      1.50257733522164      0.76983367746499
  H   0.52264733502809      2.02293830061869      1.27138171114877
  H   1.77330985210789      0.96811247174313      1.43887157616572
