16
Coordinates from ORCA-job run
  C   -0.61114076301024     -0.37404991710218      0.35589554182140
  C   0.58700608264996      0.45620596968122     -0.16515184828652
  Br  0.00935943561901     -1.69269080889889      1.67237680782242
  H   0.14601445939825      1.09670406219219     -0.94809293386842
  C   -1.54106287745698      0.51725522504855      1.04478074646749
  N   -2.27433547721079      1.28501522255949      1.55023956015894
  C   -1.31340254699645     -1.11006212133900     -0.77806331545348
  H   -1.69678692385377     -0.38252511609944     -1.49977965635327
  H   -2.14719325412304     -1.69823440579552     -0.39416136436920
  H   -0.59303352096494     -1.75934240501516     -1.27244371251662
  N   1.53021693713144     -0.41743214128804     -0.81953903000398
  H   2.13562611186998     -0.82621695340467     -0.11610493582604
  H   2.09941175501532      0.10372896968173     -1.47392582392479
  N   1.19414309745871      1.20427796126067      0.92372253469186
  H   1.94898394254872      1.77026491180781      0.55432594963041
  H   0.52719354192483      1.82810154671126      1.36592148000976
