16
Coordinates from ORCA-job run
  C   -0.63375232922251     -0.27079050440961      0.30847390213726
  C   0.65517534412138      0.50321402359950     -0.11073642255528
  Br  -0.28291929479582     -1.37889025043353      1.88899479655105
  H   0.30614548908713      1.18150530254021     -0.90872674978657
  C   -1.63708750722021      0.71788703120545      0.69418272185859
  N   -2.41866774331905      1.55502914458008      0.95995064571256
  C   -1.15612533923073     -1.16709198722959     -0.80773172241703
  H   -1.30700229305232     -0.57120587033016     -1.71403628163632
  H   -2.10624201374867     -1.62377762967181     -0.52934419541971
  H   -0.43302028795228     -1.95926630538798     -1.00312585953332
  N   1.66007415021289     -0.44291260257943     -0.54848102768757
  H   1.47384708366323     -0.76837447309783     -1.48830146682714
  H   2.54662814337027      0.04692458648380     -0.55480074363080
  N   1.24879769800997      1.32888932966436      0.90893603562770
  H   0.62959391662368      2.08357391524834      1.17648819730162
  H   1.45355498345298      0.76628628981819      1.72725817030492
