16
Coordinates from ORCA-job run
  C   -0.46239586679427     -0.56851873739874      0.26146861546179
  C   0.86967309925356      0.08598348666273     -0.20132092059052
  Br  -0.09269934089324     -2.43241088345268      0.79914535894522
  H   1.20907402107675     -0.51539115620984     -1.06099175700762
  C   -0.98195891020086      0.14120541500499      1.42541433119808
  N   -1.43506127163484      0.77101749650559      2.30835392408604
  C   -1.50469128701920     -0.61392714741728     -0.85055059324707
  H   -2.39034699121855     -1.15887190429629     -0.52374222367931
  H   -1.80806734010326      0.40065776868784     -1.11708813643111
  H   -1.08858390145435     -1.11431550204208     -1.72781998188248
  N   1.79167197125369      0.13713906489813      0.91022117491148
  H   2.07264182785281     -0.78988290817326      1.20100537150661
  H   2.61012167260650      0.65374037978763      0.61279585485384
  N   0.71762022148618      1.44837653186658     -0.65223330974324
  H   0.14426570162184      1.52632406530887     -1.47991343240056
  H   0.34773639416729      2.02887403026783      0.09225572401885
