16
Coordinates from ORCA-job run
  C   -0.46629465688572     -0.44321861505845      0.49455885112864
  C   0.90086767260139      0.34060807999660      0.39124223824301
  Br  -0.13924264834496     -2.13784804618997      1.44926964842379
  H   1.27453691136817      0.41673851336974      1.41779776865212
  C   -1.38346024348418      0.33314588213863      1.32044573656721
  N   -2.10403447888705      1.01684690149790      1.95040816521898
  C   -1.09251845488656     -0.76536112778868     -0.85489894791821
  H   -0.41013982303269     -1.37691494274717     -1.44566087851686
  H   -2.02573050491713     -1.31359585083293     -0.72518325573208
  H   -1.31463063246052      0.15931068635823     -1.39412696267934
  N   0.72220348818476      1.68316551440166     -0.10854484515512
  H   0.16084853888908      2.24359995705206      0.51876829051467
  H   0.30234513802891      1.69688987115633     -1.02951500096555
  N   1.89958453303886     -0.32593209748152     -0.40708462231083
  H   1.71467312566999     -0.21848345092209     -1.39614790735464
  H   1.95999203511757     -1.30995127495033     -0.18032827811579
