17

C	0.0	0.0	0.0
C	-0.566653	-0.118836	-1.403321
F	1.390658	0.0	0.0
H	-1.664195	-0.210147	-1.22598
H	-0.330599	0.980222	0.359699
C	-0.479798	-1.063867	0.957124
H	-0.111462	-2.04701	0.661816
H	-1.576447	-1.040827	0.940456
H	-0.113856	-0.831561	1.961562
N	-0.084302	-1.376921	-2.037264
O	0.835349	-1.305405	-2.860824
O	-0.626228	-2.432805	-1.699364
C	-0.223295	1.071757	-2.271199
H	-0.564888	0.919892	-3.297167
H	-0.746704	1.940396	-1.86248
H	0.851418	1.258866	-2.284453
H	-3.213508	0.0	0.0
