14

C	-0.456582	0.064807	-1.474935
C	0.0	0.0	0.0
Br	-0.029928	-1.626435	-2.356622
H	1.097201	0.0	0.0
H	-1.545239	0.141618	-1.529438
C	0.23744	1.208461	-2.191913
H	-0.067396	2.160539	-1.74688
H	-0.031559	1.216573	-3.249427
H	1.318726	1.101099	-2.085198
C	-0.52094	-1.165331	0.710999
N	-0.966684	-2.084495	1.290853
C	-0.458055	1.217248	0.675755
N	-0.831159	2.212617	1.176417
Cl	3.208526	0.0	0.0
