14

C	-0.328209	0.003373	-1.498716
C	0.0	0.0	0.0
Br	-2.267416	0.067187	-1.816304
H	1.099281	0.0	0.0
H	0.055497	0.938513	-1.910247
C	0.291849	-1.190887	-2.194776
H	1.365021	-1.186864	-1.976465
H	0.135135	-1.128464	-3.273676
H	-0.145066	-2.123041	-1.830405
C	-0.482765	-1.206851	0.665824
N	-0.852225	-2.192054	1.187568
C	-0.482053	1.197684	0.681193
N	-0.850966	2.173373	1.220764
Cl	3.195268	0.0	0.0
