15

C	0.0	0.0	0.0
C	-0.628157	-0.567326	-1.324725
Cl	1.79047	0.0	0.0
H	0.225717	-0.867883	-1.944247
H	-0.292824	1.039991	0.153801
C	-0.408475	-0.753623	1.184752
N	-0.66102	-1.325503	2.17863
C	-1.397279	0.536991	-2.050365
H	-1.674326	0.170892	-3.049087
H	-0.793253	1.445642	-2.161697
H	-2.329655	0.746607	-1.513804
N	-1.527682	-1.686858	-1.158939
H	-1.168083	-2.394976	-0.535203
H	-2.408246	-1.340173	-0.769586
Cl	-4.299169	0.0	0.0
