15

C	0.0	0.0	0.0
C	-0.567093	-0.221315	-1.428157
Cl	1.781882	0.0	0.0
H	0.265591	-0.036386	-2.114035
H	-0.297714	0.982325	0.371283
C	-0.438462	-1.009167	0.961315
N	-0.727566	-1.819316	1.759481
C	-1.687426	0.773174	-1.7117
H	-1.329504	1.807014	-1.650118
H	-2.070815	0.606075	-2.722954
H	-2.533064	0.633302	-1.029776
N	-0.938251	-1.625812	-1.583588
H	-1.83971	-1.771043	-1.132008
H	-1.080868	-1.809524	-2.570203
Cl	-4.640154	0.0	0.0
