15

C	0.0	0.0	0.0
C	-0.584289	0.12283	-1.40386
Cl	1.793228	0.0	0.0
H	-1.663944	0.169271	-1.209652
H	-0.319407	0.869509	0.573506
C	-0.406328	-1.22857	0.683984
N	-0.63404	-2.236982	1.240423
C	-0.28223	-1.080639	-2.28649
H	-0.66222	-2.003455	-1.842074
H	-0.776829	-0.945444	-3.251204
H	0.792938	-1.189451	-2.460752
N	-0.161993	1.408757	-1.953945
H	0.709129	1.298864	-2.461877
H	-0.867571	1.726262	-2.606802
Cl	-3.669137	0.0	0.0
