13

C	-0.438983	0.044898	-1.442063
C	0.0	0.0	0.0
Br	-2.384527	0.091886	-1.623838
H	1.095524	0.0	0.0
H	-0.057137	0.920286	-1.959051
H	-0.357189	-0.924302	0.46234
N	0.032052	-1.152552	-2.213028
O	-0.100235	-2.251484	-1.683875
O	0.501564	-0.939979	-3.328229
N	-0.439119	1.2292	0.656704
H	0.31152	1.552728	1.252379
H	-1.255332	1.061122	1.228273
Br	3.552501	0.0	0.0
