13

C	-0.473641	-0.019574	-1.430996
C	0.0	0.0	0.0
Br	-0.136115	1.645509	-2.359265
H	1.092197	0.0	0.0
H	-0.01258	-0.819905	-2.003623
H	-0.365104	0.901041	0.499248
N	-1.956724	-0.272574	-1.497134
O	-2.664135	0.270527	-0.652589
O	-2.35861	-1.002033	-2.399309
N	-0.465243	-1.248958	0.608379
H	-1.22731	-1.072453	1.24796
H	0.301955	-1.665202	1.119256
Br	3.585659	0.0	0.0
