13

C	-0.46776	0.003097	-1.433128
C	0.0	0.0	0.0
Br	-0.128661	1.683001	-2.333565
H	1.092435	0.0	0.0
H	-0.004762	-0.788126	-2.015748
H	-0.364955	0.893285	0.513583
N	-1.949762	-0.245102	-1.516312
O	-2.660644	0.260017	-0.651585
O	-2.349228	-0.928045	-2.455264
N	-0.461594	-1.25924	0.586932
H	0.297062	-1.665577	1.116833
H	-1.245157	-1.101886	1.204188
Br	3.603211	0.0	0.0
