13

C	-0.445339	0.046564	-1.439897
C	0.0	0.0	0.0
Br	-2.391652	0.091627	-1.613232
H	1.095496	0.0	0.0
H	-0.067288	0.923557	-1.957442
H	-0.355578	-0.924944	0.462355
N	0.02303	-1.148941	-2.215313
O	0.488362	-0.933331	-3.331137
O	-0.107632	-2.249402	-1.68898
N	-0.438346	1.227445	0.661546
H	-1.242827	1.053452	1.248287
H	0.320158	1.557364	1.243524
Br	3.552377	0.0	0.0
