13

C	-0.61486	0.013076	-1.377851
C	0.0	0.0	0.0
Br	0.071048	-1.398999	-2.509532
H	1.094023	0.0	0.0
H	-1.696278	-0.089982	-1.344324
H	-0.324573	-0.938718	0.460793
N	-0.390946	1.326006	-2.080966
O	-1.21005	1.617454	-2.949592
O	0.570719	2.003128	-1.744855
N	-0.579996	1.137251	0.732332
H	-0.673772	0.883514	1.708014
H	0.098114	1.89118	0.694859
Br	3.675095	0.0	0.0
