13

C	-0.538432	-0.14396	-1.424747
C	0.0	0.0	0.0
Br	0.187173	-1.667866	-2.358368
H	1.091214	0.0	0.0
H	-1.622105	-0.254273	-1.437022
H	-0.358718	0.969654	0.36622
N	-0.294537	1.130048	-2.193295
O	-1.218544	1.944211	-2.104147
O	0.767191	1.305487	-2.771443
N	-0.438288	-1.059977	0.891066
H	0.17796	-1.852842	0.790793
H	-1.388276	-1.35128	0.705765
Br	3.610294	0.0	0.0
