14

C	-0.399061	0.015661	-1.472106
C	0.0	0.0	0.0
Br	0.439742	1.54722	-2.40947
H	1.093545	0.0	0.0
H	-0.356453	-0.960095	0.397479
C	0.059674	-1.197528	-2.151949
N	0.415638	-2.170322	-2.706415
C	-1.843421	0.156253	-1.683866
N	-3.01103	0.262288	-1.778602
C	-0.555811	1.166796	0.795188
H	-0.154472	2.10901	0.415745
H	-0.212812	1.069332	1.828288
H	-1.650972	1.226309	0.799408
F	2.598894	0.0	0.0
