14

C	-0.269768	-0.027321	-1.470632
C	0.0	0.0	0.0
Br	-2.269538	0.017629	-1.952154
H	1.095879	0.0	0.0
H	-0.360735	0.951233	0.401541
C	0.287736	1.14219	-2.14663
N	0.725483	2.083677	-2.696204
C	0.220411	-1.251298	-2.104433
N	0.611362	-2.236843	-2.611894
C	-0.520256	-1.200908	0.762992
H	-0.062295	-2.118053	0.382708
H	-0.219678	-1.106826	1.809303
H	-1.610437	-1.306776	0.721449
F	2.544624	0.0	0.0
