14

C	-0.400685	-0.029108	-1.470961
C	0.0	0.0	0.0
Br	0.440493	-1.567985	-2.395711
H	1.093521	0.0	0.0
H	-0.356753	0.963053	0.389269
C	-1.844984	-0.174404	-1.680893
N	-3.012194	-0.28419	-1.776277
C	0.055827	1.178168	-2.162943
N	0.40984	2.145858	-2.727623
C	-0.553526	-1.160134	0.806652
H	-1.648394	-1.221896	0.812122
H	-0.209939	-1.052494	1.838496
H	-0.150488	-2.104863	0.435597
F	2.598593	0.0	0.0
