16

C	-0.615989	0.034037	-1.373804
C	0.0	0.0	0.0
Br	0.22293	1.383822	-2.520791
H	1.089729	0.0	0.0
H	-0.313881	0.93165	0.483464
N	-0.312284	-1.320386	-2.093384
O	0.846853	-1.688	-2.159134
O	-1.289731	-1.943368	-2.519232
N	-2.008806	0.296681	-1.360929
H	-2.40176	0.162114	-2.285193
H	-2.454053	-0.359287	-0.730028
C	-0.452999	-1.205961	0.822831
H	-0.175108	-2.14315	0.334043
H	0.092495	-1.178238	1.77031
H	-1.526143	-1.229968	1.050005
H	2.945321	0.0	0.0
