16

C	-0.169919	-0.145582	-1.478436
C	0.0	0.0	0.0
Br	-2.063286	-0.767793	-2.082341
H	1.098962	0.0	0.0
H	-0.412116	0.939297	0.360947
N	-0.168135	1.266793	-2.167473
O	-0.71494	2.199866	-1.592591
O	0.381993	1.336888	-3.263243
N	0.790307	-0.987467	-2.000142
H	0.883188	-0.896117	-3.002655
H	1.692473	-0.815092	-1.50321
C	-0.467155	-1.202727	0.800893
H	-0.091026	-2.122741	0.350141
H	-1.557292	-1.262305	0.857305
H	-0.062433	-1.136757	1.814935
H	2.799698	0.0	0.0
