16

C	-0.171973	-0.13702	-1.479045
C	0.0	0.0	0.0
Br	-2.06155	-0.789712	-2.080649
H	1.09898	0.0	0.0
H	-0.413129	0.936444	0.367684
N	-0.203734	1.277787	-2.159928
O	0.33676	1.364723	-3.259435
O	-0.765141	2.196608	-1.576499
N	0.799033	-0.957335	-2.010959
H	1.699594	-0.786093	-1.509447
H	0.889335	-0.856775	-3.012987
C	-0.46211	-1.207798	0.796353
H	-0.051687	-1.146826	1.808423
H	-1.551657	-1.269507	0.85823
H	-0.086761	-2.124682	0.338577
H	2.797175	0.0	0.0
