16

C	-0.493808	0.011248	-1.419879
C	0.0	0.0	0.0
Br	0.097905	1.613148	-2.376591
H	1.091911	0.0	0.0
H	-0.312785	-0.958185	0.432998
N	0.111789	-1.197053	-2.207603
O	-0.023392	-1.189787	-3.429483
O	0.53484	-2.140112	-1.549704
N	-1.91447	-0.070579	-1.549733
H	-2.171991	-0.166415	-2.526552
H	-2.242369	-0.873005	-1.022107
C	-0.519226	1.164224	0.832991
H	-0.031345	2.091253	0.528207
H	-1.602656	1.293237	0.756541
H	-0.255104	0.99067	1.8801
H	2.962261	0.0	0.0
