15

C	-0.5111	0.037686	-1.503828
C	0.282016	0.018696	-0.212846
Br	-2.385551	0.347099	-1.205656
H	1.342421	-0.017968	-0.469326
H	0.110485	0.96089	0.316751
N	-0.052968	1.106788	-2.484589
O	0.538622	2.068014	-2.010434
O	-0.342654	0.933354	-3.662615
N	-0.277968	-1.280681	-2.236159
O	0.89002	-1.425332	-2.575004
O	-1.20036	-2.054428	-2.413982
N	-0.062551	-1.194018	0.502331
H	0.729839	-1.351723	1.133901
H	-0.86471	-1.014074	1.094913
Cl	2.534083	-0.593262	2.272903
