15

C	-0.508405	-0.039746	-1.616799
C	0.40004	0.08917	-0.408796
Br	-0.208858	-1.692472	-2.557553
H	1.43483	0.128655	-0.778085
H	0.305138	-0.827179	0.177315
N	-1.958535	0.039239	-1.145453
O	-2.559559	1.079565	-1.368156
O	-2.359538	-0.928759	-0.520921
N	-0.333577	1.089146	-2.62804
O	-1.010588	1.036088	-3.645736
O	0.475321	1.965825	-2.340732
N	-0.032065	1.197773	0.408723
H	0.243822	0.947267	1.361603
H	0.472266	2.033226	0.144545
Cl	1.464931	-0.439171	2.748348
