15

C	-0.407829	0.001842	-1.462636
C	0.0	0.0	0.0
F	-1.753887	0.333395	-1.636017
H	1.10378	0.0	0.0
H	0.184552	0.751054	-1.997143
C	-0.196131	-1.310386	-2.097547
N	-0.044176	-2.353856	-2.613354
N	-0.567612	-1.179208	0.671075
H	0.033422	-1.970358	0.457737
H	-0.469125	-1.032072	1.669864
C	-0.494945	1.269397	0.671621
H	-0.174568	2.155616	0.1188
H	-0.066167	1.338489	1.67475
H	-1.584879	1.264	0.744024
Cl	3.447857	0.0	0.0
