15

C	-0.534616	-0.055833	-1.416222
C	0.0	0.0	0.0
F	-0.077335	-1.196823	-2.066477
H	1.096788	0.0	0.0
H	-1.627765	-0.138119	-1.373335
C	-0.182263	1.119558	-2.228471
N	0.063141	2.0491	-2.900622
N	-0.536137	-1.197222	0.674189
H	-0.186028	-1.171463	1.62712
H	-0.077903	-1.998643	0.249424
C	-0.507382	1.247714	0.702031
H	-0.143956	1.253199	1.732663
H	-1.602443	1.269664	0.722357
H	-0.128824	2.152426	0.222404
Cl	3.48098	0.0	0.0
