15

C	-0.471294	0.0537	-1.446899
C	0.0	0.0	0.0
F	-0.177772	1.27208	-2.044495
H	1.100356	0.0	0.0
H	0.029013	-0.735403	-2.010967
C	-1.934712	-0.140202	-1.530124
N	-3.100194	-0.262168	-1.602871
N	-0.426862	-1.312922	0.49512
H	-1.23126	-1.224249	1.10444
H	0.334155	-1.724883	1.020269
C	-0.513591	1.177065	0.811471
H	-1.607915	1.159922	0.890061
H	-0.211192	2.122035	0.356343
H	-0.087215	1.13353	1.816165
Cl	3.4479	0.0	0.0
