15
Coordinates from ORCA-job run
  C   -0.51066500912413     -0.08869992020371     -0.41618511448860
  C   0.70283944871520      0.52034274384300      0.25166707786756
  F   -0.21217729614184     -0.52009136490539     -1.66831982623714
  H   1.00789611237323      1.37773106959653     -0.35603703635107
  H   0.39501005225611      0.90518124108132      1.22789664653325
  N   -1.52679822095304      1.07291959500528     -0.62054122431995
  O   -1.64094753208340      1.57309432813474     -1.73056776084612
  O   -2.11678518384404      1.41573221984122      0.40226949430011
  N   -1.08148529064356     -1.15869609245539      0.30351446866247
  H   -1.40982921652846     -0.84512673348673      1.20667452059149
  H   -1.84770169029242     -1.57268717566753     -0.21367837235799
  C   1.84265781917159     -0.48306766989230      0.38039466594805
  H   1.54484901942980     -1.33764977819018      0.98720287855223
  H   2.14349459076299     -0.85024039987106     -0.60144697923966
  H   2.70864239690197     -0.00874206282980      0.84615656138538
