15
Coordinates from ORCA-job run
  C   -0.60714389421027     -0.17876723316536     -0.49574610228357
  C   0.58503765003734     -0.59382793422942      0.34915193562127
  F   -0.22768806048672     -0.12594216335335     -1.79828966691888
  H   0.87133434081995     -1.59038946626080     -0.00406888956843
  H   0.24119451212965     -0.69400041296640      1.38152437565634
  N   -0.99007906952944      1.23747821702858     -0.07451778995742
  O   -1.49253661223704      1.31846672366810      1.04409300071652
  O   -0.73683728573846      2.16054198267168     -0.83230259116986
  N   -1.80576186185462     -0.94366810897439     -0.41096029112770
  H   -1.61413674921410     -1.90832996471599     -0.65080575402831
  H   -2.18358658348516     -0.89267308159455      0.52594362359422
  C   1.76336356979543      0.37018050741610      0.25609049680592
  H   1.52648562855747      1.33136272779154      0.71678509657309
  H   2.63000902591693     -0.04108671027355      0.77653344657600
  H   2.04034538949903      0.54865491695782     -0.78343089048919
