15
Coordinates from ORCA-job run
  C   -0.64146217282313     -0.23101630771453     -0.60371175540478
  C   0.86823101842919     -0.22690095013621     -0.60227433129359
  F   -1.11389410693144     -0.32729843464470     -1.88224470093017
  H   1.17438709976810     -1.20739291801352     -0.97504056839811
  H   1.17881237990910      0.52396068186514     -1.33095634660099
  N   -1.09699837438794      1.20156942292226     -0.16783231488255
  O   -1.72236989685770      1.29648420563054      0.88579263340908
  O   -0.75973215110916      2.12705411650430     -0.89566005287220
  N   -1.22387562657896     -1.24319924915246      0.16889553667374
  H   -2.23214192601066     -1.15397423663033      0.18624184982331
  H   -0.87961835503072     -1.23044868699091      1.11775656294711
  C   1.48234152481812      0.06195590851281      0.76353868868597
  H   2.57000328745604      0.09033916077571      0.68189519895544
  H   1.23709308583050     -0.70891848202102      1.49774650540256
  H   1.15822421351867      1.02778576909293      1.15685309448515
