15
Coordinates from ORCA-job run
  C   -0.58650964583098      0.01331748263757     -0.46278060837091
  C   0.68801267057433      0.50283499491010      0.20660812159597
  F   -0.29205542693997     -0.37550469610048     -1.73021449279512
  H   1.08261619418339      1.32184778901962     -0.40344945180557
  H   0.41759800326247      0.91473187190212      1.18224952638911
  N   -1.52627428638631      1.21522280634234     -0.55711058155819
  O   -1.64916974541048      1.77084857473201     -1.63751034050382
  O   -2.05246011738229      1.53895502193139      0.50450299306338
  N   -1.34913439386321     -1.02302957899494      0.14602040262029
  H   -1.64252438210632     -0.75315888647782      1.07488618218718
  H   -0.81164660266287     -1.87886190669792      0.17904387091701
  C   1.72663840409068     -0.60411957137048      0.34477583888304
  H   1.38506299928668     -1.39457785615408      1.01658191252898
  H   2.65243256582855     -0.20267021460764      0.76005610788487
  H   1.95741376335632     -1.04583583107179     -0.62565948103622
