15
Coordinates from ORCA-job run
  C   -0.54929865677349     -0.29057053407762     -0.46890492773552
  C   0.66400678916140     -0.62340552383532      0.36846327446290
  F   -0.22561215072262     -0.20962309705553     -1.78447787004344
  H   1.00357703167044     -1.59947481652000      0.01263470016289
  H   0.34285988980440     -0.73870947523407      1.40659778011706
  N   -0.98752311921450      1.14633855333911     -0.07149693878293
  O   -0.83395286300597      2.06411858329833     -0.86503753054379
  O   -1.44732560717867      1.23092548877656      1.06588206729201
  N   -1.60511607546375     -1.21459545772814     -0.32120908431820
  H   -2.37993659354789     -0.98023701027012     -0.93039896994762
  H   -1.92023489691436     -1.24819144635787      0.63843305696768
  C   1.76988678103831      0.42006663923424      0.25605135114527
  H   2.01316391612950      0.62032329071768     -0.78823520869879
  H   2.67262893300907      0.06229397440087      0.75365483527725
  H   1.48287662200811      1.36174083131187      0.72804346464523
