15

C	0.0	0.0	0.0
C	-0.359758	0.106221	-1.509385
Cl	1.774257	0.0	0.0
H	0.458715	-0.345429	-2.075247
H	-0.264911	-1.03375	0.247443
N	-0.618707	0.989552	0.805629
H	-0.486109	0.706177	1.774128
H	-1.653468	0.760718	0.583163
N	-0.396751	1.51175	-2.062728
O	-0.937057	1.68759	-3.151015
O	0.255731	2.347698	-1.4515
N	-1.516914	-0.790677	-1.946619
O	-1.28912	-1.964728	-1.658802
O	-2.405819	-0.389686	-2.670755
H	-2.805129	0.0	0.0
