18

C	-0.454288	0.045584	-1.468183
C	0.0	0.0	0.0
F	-0.08514	-1.205064	-2.009013
H	1.101747	0.0	0.0
C	-1.957759	0.148053	-1.622706
H	-2.224546	0.027353	-2.675564
H	-2.31318	1.120183	-1.277542
H	-2.440878	-0.631346	-1.034639
C	0.318664	1.105283	-2.221276
H	0.056464	2.102476	-1.859386
H	0.08007	1.043724	-3.287297
H	1.388971	0.948294	-2.069527
N	-0.560511	-1.192813	0.65934
H	-0.179903	-1.980964	0.141941
H	-0.139293	-1.243855	1.58203
C	-0.473609	1.204513	0.685829
N	-0.868066	2.166603	1.233548
Cl	3.420328	0.0	0.0
