18

C	-0.478954	-0.032362	-1.461066
C	0.0	0.0	0.0
F	-0.081428	1.184901	-2.035927
H	1.100581	0.0	0.0
C	0.242935	-1.141324	-2.197813
H	-0.064751	-2.115116	-1.807589
H	0.000857	-1.095038	-3.263467
H	1.320937	-1.021335	-2.063045
C	-1.984956	-0.107899	-1.584502
H	-2.440121	0.778009	-1.135766
H	-2.267921	-0.143773	-2.640297
H	-2.355637	-0.996514	-1.075003
N	-0.462446	-1.226422	0.697115
H	0.353167	-1.826921	0.780053
H	-0.73735	-0.990111	1.644564
C	-0.506039	1.192428	0.67562
N	-0.936227	2.109928	1.269805
Cl	3.361921	0.0	0.0
