15
Coordinates from ORCA-job run
  C   0.74952901357191     -0.02535566436388      0.25258277630688
  C   -0.55177945605224     -0.12395859118440     -0.09554770075423
  C   1.39690870266571     -1.23666928484790      0.66443082592692
  N   1.94049639672360     -2.22664235159526      0.99605428439079
  C   1.61279194389064      1.20463848993430      0.18452244264425
  H   2.28636345985384      1.14561850040361     -0.67386491620973
  H   2.23033873621889      1.27873904351018      1.08264529129651
  H   1.01255961986323      2.10818146057024      0.11166512158153
  C   -1.41829001953363     -1.33708983979459     -0.10997896923859
  H   -1.74165182938219     -1.55554676116991     -1.12875465618957
  H   -2.31338724770851     -1.15711877047004      0.49316510970124
  H   -0.88993672448229     -2.19925102281474      0.29410313184997
  N   -1.24733489492007      1.07905021344107     -0.56872024000430
  O   -1.73849139157311      1.00482454307243     -1.69395843136119
  O   -1.32911630913579      2.04158003530891      0.19265593005952
