15
Coordinates from ORCA-job run
  C   0.66287347544842      0.21017375447058      0.39905433030745
  C   -0.61478429677464      0.01988344417672      0.00475165754108
  C   0.98275144641086      1.06091815421587      1.50874747024564
  N   1.37462816168914      1.75340729939094      2.37633938664805
  C   1.86859797863734     -0.39933821797245     -0.26601681699392
  H   2.55823393254969      0.39062987119004     -0.57312317455175
  H   1.60889498442673     -0.99081305846612     -1.14129293527994
  H   2.39919534863844     -1.03675942022792      0.44610031470672
  C   -1.12540291387929     -0.77666359888945     -1.14785447977470
  H   -1.47950436172590     -0.11061754063684     -1.93716076461791
  H   -0.36150711844924     -1.43750304679487     -1.55109489329842
  H   -1.97654438442633     -1.38355017577232     -0.82937072624712
  N   -1.68758574373792      0.72487431603592      0.73050183527020
  O   -2.53565496040709      1.26873306225551      0.02389711665953
  O   -1.67419154840021      0.70462515702438      1.95852167938510
