15
Coordinates from ORCA-job run
  C   0.75990253257138      0.13941339814207      0.10992122397897
  C   -0.55831897415412      0.03405694239038     -0.16866185564104
  C   1.47936466993805      1.19212549937382     -0.54505842035652
  N   2.09836389558347      2.04900588443211     -1.06378669837701
  C   1.56452755739260     -0.71749822482431      1.05049796013244
  H   1.70448780727306     -0.19332738244878      1.99932467597809
  H   2.54926826417923     -0.90684290634952      0.62036128800609
  H   1.07622948577316     -1.66602001962495      1.26192260741718
  C   -1.36446452860438      0.84335718092643     -1.12615096291077
  H   -2.25095157401525      1.24228657840999     -0.62502525287886
  H   -0.77796712787675      1.67181998512352     -1.52230845827082
  H   -1.70555938658896      0.21384572807965     -1.95038391201384
  N   -1.32315967747371     -1.03300644070838      0.49052180214020
  O   -1.22465829738876     -1.14535244461049      1.71199055254260
  O   -2.02906464660899     -1.72486377831152     -0.24216454974671
