15
Coordinates from ORCA-job run
  C   0.64504246100910      0.06108084662582      0.47374827200807
  C   -0.59627620359316      0.13680622112632     -0.05269446810926
  C   0.91013782989568      0.47218264663101      1.82197891126631
  N   1.24688599232472      0.75094226091385      2.91515080450763
  C   1.85564354245081     -0.46289619879212     -0.25264321004237
  H   2.59238827630717      0.33694881748518     -0.36538731976476
  H   1.61330536442807     -0.85891727338733     -1.23645758068138
  H   2.32321236788611     -1.25625675599177      0.33499132505228
  C   -1.06252114064977     -0.28396742616533     -1.40539261991763
  H   -1.69752304559761      0.49484131293429     -1.83488551461363
  H   -0.22941512655402     -0.46223536692452     -2.08140626666073
  H   -1.66659061459502     -1.19025998896464     -1.32975008499061
  N   -1.69373517959562      0.63283063322016      0.79846842756752
  O   -2.73080688173699     -0.02886142867710      0.76401211132774
  O   -1.51074764197945      1.65776169996617      1.45026721305082
