15
Coordinates from ORCA-job run
  C   0.73327832662384     -0.03446172409196      0.26166170637123
  C   -0.54476221765347     -0.13627988982076     -0.16525351392064
  C   1.33438726154916     -1.20952735813658      0.81998309722873
  N   1.87139706924080     -2.15533825540309      1.27078107653380
  C   1.61405656720249      1.18596293099031      0.20469533976957
  H   2.31852473731527      1.08651669262958     -0.62663593024256
  H   1.04500652981899      2.10017883056563      0.04857022401323
  H   2.18964540596159      1.26961613239914      1.12821958930728
  C   -1.44740073638071     -1.32010156169948     -0.08139418803682
  H   -1.88008651954535     -1.52851933529463     -1.06408497773366
  H   -2.27053381088374     -1.11614188909135      0.60509491453554
  H   -0.90043694343286     -2.20004536937031      0.25804817780060
  N   -1.18391127371196      1.05416498740505     -0.74121000584523
  O   -2.28371295100474      1.35317003791061     -0.27662839242674
  O   -0.59545144509930      1.65080577100786     -1.64184711735433
