15
Coordinates from ORCA-job run
  C   0.72478709542433     -0.01832890533739      0.29059435486570
  C   -0.53290621773335     -0.14898963800725     -0.18610482708902
  C   1.37148861723517     -1.20164809870475      0.77386115873817
  N   1.92496576479685     -2.15671596295762      1.18303736297289
  C   1.55340279118342      1.23979498154263      0.32437315653115
  H   2.28751812025995      1.19474410360051     -0.48614363438470
  H   0.95464437319315      2.13682577874559      0.18872206159552
  H   2.09642710667211      1.30489450605138      1.26982003636162
  C   -1.38882649217099     -1.36953817310270     -0.21047181291493
  H   -2.21991948393499     -1.25057456218419      0.48709328807911
  H   -0.80798890006564     -2.24948542783573      0.06428055882520
  H   -1.80937536344933     -1.52195814565697     -1.20653987436272
  N   -1.20511413846002      1.04972981307261     -0.69971142596504
  O   -0.63946494300224      1.69727311634168     -1.57888261323667
  O   -2.30863832994843      1.29697661443219     -0.21592779001628
