15
Coordinates from ORCA-job run
  C   0.72571961266842     -0.02634687606162      0.25612714088985
  C   -0.56337916290168     -0.13314633088876     -0.13048867499042
  C   1.35933546420072     -1.20811455492763      0.76338006345924
  N   1.90847859682448     -2.15621997187067      1.19412871960304
  C   1.60985964114075      1.18996749043435      0.18385654428608
  H   1.85104865280914      1.52898233851042      1.19456242435822
  H   2.54960131034133      0.92188355967859     -0.30596476321409
  H   1.14166659357275      2.01322428032771     -0.34899220687092
  C   -1.43868247447539     -1.33658164972933     -0.10346836386608
  H   -2.29965862565746     -1.16653108023041      0.55081031153634
  H   -0.88903907413639     -2.20478287022130      0.26121227103214
  H   -1.81177661347667     -1.54097677999521     -1.10933992052551
  N   -1.21352332678667      1.06940547302476     -0.66469420741047
  O   -1.21213097505526      2.07851394666546      0.04143211517789
  O   -1.71651961906806      0.97072302528366     -1.78356145346531
