15
Coordinates from ORCA-job run
  C   0.64056666617552      0.07808245390385      0.47717823477074
  C   -0.60119316675785      0.11705604910379     -0.05258946390863
  C   0.88673889009670      0.47686110724172      1.83272004793941
  N   1.21021776031563      0.75085665720349      2.93100247117509
  C   1.87117205073337     -0.39112846992679     -0.25330249393213
  H   2.57662923881616      0.43743293870365     -0.35901521930881
  H   1.64464216517599     -0.78819343024718     -1.24049967231481
  H   2.36862158698965     -1.17103462673877      0.32782864522234
  C   -1.04565401865537     -0.29840259453192     -1.41428837965013
  H   -1.60854753674156     -1.23228207882806     -1.35787672804102
  H   -1.71373800315991      0.45872291761964     -1.83167778725409
  H   -0.20346202120038     -0.42618487638058     -2.09033892555202
  N   -1.71881539155046      0.55593943152656      0.80335148613899
  O   -2.73020498371876     -0.14315456078853      0.75211118682644
  O   -1.57597323651872      1.57342908213914      1.47639659788864
