15
Coordinates from ORCA-job run
  C   0.73096199312476     -0.01123130562634      0.27842240842347
  C   -0.54453562099888     -0.14625265886863     -0.14253954411886
  C   1.38499570471593     -1.19944154500138      0.74422761198207
  N   1.93900539005539     -2.16599597590006      1.12473323920442
  C   1.56005864054232      1.24299055099193      0.28026663780384
  H   2.44340223667679      1.10653623999116     -0.34756796208974
  H   0.99610840278721      2.10470530417427     -0.06684221575239
  H   1.90479072507841      1.45301397884162      1.29592210328058
  C   -1.38254593822605     -1.37699039701832     -0.18938850616677
  H   -0.81256449446997     -2.25011018187304      0.12903464133321
  H   -2.24980511179072     -1.25940819074978      0.46734323615103
  H   -1.74415427613397     -1.53622741430858     -1.20721421599958
  N   -1.23168076302719      1.04780687317167     -0.65472151924102
  O   -1.38056770481381      2.00009073399925      0.10945040036081
  O   -1.61446918352019      0.99051398817622     -1.82212631517108
