15
Coordinates from ORCA-job run
  C   0.66444768205794      0.24964234999252      0.37401864010938
  C   -0.61482557364122      0.01072907580490      0.01252062726865
  C   0.98421802744848      1.17967488131964      1.41801895715818
  N   1.37459130749322      1.93378035045693      2.23342770114654
  C   1.87101566827873     -0.38289786648434     -0.26789602733563
  H   2.54968211016974      0.39658137187449     -0.62236677553909
  H   2.41445499448758     -0.97667283111285      0.47184070104666
  H   1.60992116361693     -1.02182394392556     -1.10873224680536
  C   -1.12581657974586     -0.87504564928793     -1.07295154754780
  H   -1.49903423089077     -0.27434357268542     -1.90477169325059
  H   -0.35652241140975     -1.55314521527896     -1.43524833483554
  H   -1.96382996598260     -1.46923306212309     -0.70027738008609
  N   -1.69056674896278      0.74635609799856      0.70237787046899
  O   -2.55794460710995      1.22367622673232     -0.02850407210032
  O   -1.66079083580970      0.81272178671880      1.92854358030201
