15
Coordinates from ORCA-job run
  C   0.62334478548332     -0.01567340647062      0.50469728095789
  C   -0.60944436520444      0.07278672636927     -0.03970874107379
  C   0.86211106015999      0.33952633101194      1.87357581176130
  N   1.19041137062550      0.62803610225267      2.96676999943798
  C   1.86117763782320     -0.44639417964102     -0.23675856271604
  H   2.61860769862058      0.33873735897028     -0.17486722138110
  H   1.66727994831279     -0.65690848831401     -1.28622988517081
  H   2.27975788624709     -1.34077809010751      0.23176509466902
  C   -1.02843120935484     -0.19596234865407     -1.44569969126373
  H   -1.24038391074403      0.74330743717314     -1.96060391994436
  H   -0.26649642250408     -0.74377754710293     -1.99525910792015
  H   -1.94950066603228     -0.78387672867860     -1.45094157803173
  N   -1.71681601102593      0.56220782521522      0.80205145361961
  O   -2.44368780199324      1.40729615510993      0.28071567222944
  O   -1.84793000041366      0.09047285286631      1.92849339482648
