15
Coordinates from ORCA-job run
  C   0.64408054736006      0.08255056022120      0.47166961444084
  C   -0.61389427077499      0.02545717947959     -0.01657834381074
  C   0.91137719116804      0.57994401744282      1.79015622288550
  N   1.26014245066350      0.98971181771112      2.83725706704857
  C   1.87927583268474     -0.32658992382850     -0.28655774786673
  H   2.36914887590953     -1.15805321252361      0.22685213054470
  H   2.58757499978132      0.50487862162327     -0.31226736868404
  H   1.66092476712094     -0.62552029259811     -1.30954152555380
  C   -1.07011083301745     -0.40970094625784     -1.36793203868740
  H   -1.38502512686507      0.45527364954972     -1.95508617794918
  H   -1.93600709322529     -1.06911384355292     -1.27046711540786
  H   -0.28885658829459     -0.94288440543699     -1.90490841220917
  N   -1.72031371348186      0.50970623197529      0.82987861920628
  O   -2.53513248093666      1.24095006938896      0.26806888786775
  O   -1.76418455809221      0.14339047680600      2.00145618817528
