15
Coordinates from ORCA-job run
  C   0.64916719934008      0.09658564960776      0.46196151563579
  C   -0.61433323380287      0.02706465700460     -0.01016663416798
  C   0.93313955500959      0.63767671721522      1.75950597660674
  N   1.29529784559439      1.07983471159341      2.78873963710840
  C   1.87408323446147     -0.34330060435771     -0.29575151324069
  H   2.58595227081561      0.48345050098341     -0.35533818844340
  H   2.36627114761642     -1.15962135814391      0.23947715319746
  H   1.64344888606154     -0.67327510116672     -1.30638089572944
  C   -1.08568530722004     -0.45378454215734     -1.34095032402928
  H   -1.96185773713154     -1.09397559902003     -1.21264754624590
  H   -0.31653085615994     -1.02212750725249     -1.85903654411136
  H   -1.39007053881218      0.39165446365973     -1.96123446849621
  N   -1.70941118574787      0.54605919664754      0.82968698140803
  O   -1.74218698208066      0.22309358869434      2.01429742095317
  O   -2.52728429794397      1.25966522669218      0.24983742955468
