15
Coordinates from ORCA-job run
  C   -0.63027952191791      0.45307688942354      0.06032751652286
  C   0.90174281521895      0.33862233988758      0.22364106238201
  Br  -1.04693122633342      2.34756856370133      0.36431636467415
  H   1.38389756534295      1.03052844954666     -0.46936171568253
  C   -1.07900477310971      0.05519172493806     -1.34221434988586
  H   -2.14292088378528      0.26286960247038     -1.45649396995161
  H   -0.91558810286656     -1.01370984860344     -1.49952941557639
  H   -0.52091514530309      0.62002384148669     -2.09109106954892
  C   -1.33122806317933     -0.32362619834720      1.07671636721356
  N   -1.92714744215378     -0.96016435075798      1.86573790696538
  N   1.32583078121820     -1.04824162986169     -0.22021196717916
  O   1.08825222740518     -1.97109906377423      0.54960350231337
  O   1.82350281940900     -1.12009994705376     -1.33910457421541
  C   1.34868119236888      0.56689265927639      1.59013567446131
  N   1.72310775768595      0.76116696766767      2.68652866750725
