15
Coordinates from ORCA-job run
  C   -0.52668625914419      0.38486157967317     -0.18799942021311
  C   0.73769972641787     -0.31721260960876      0.35844047423837
  Br  -0.03112983382038      1.54006409082473     -1.68696000762538
  H   0.45659081419026     -0.85762275949451      1.26863617495552
  C   -1.53608822001899     -0.65803127743497     -0.66903238607721
  H   -2.43951275610536     -0.15574870871759     -1.01524044521272
  H   -1.79875927659402     -1.32424479901340      0.15801704511618
  H   -1.11766064011485     -1.24110308654970     -1.49002354886960
  C   -1.13516012801889      1.21716204176863      0.84632770194266
  N   -1.70513775027984      1.84757466754764      1.65898532487216
  N   1.77832255279102      0.69238880854563      0.80643815940441
  O   1.51888541921222      1.25606794562037      1.86335860664118
  O   2.75111868950314      0.86844300166914      0.08607065827769
  C   1.31282417959351     -1.23368168745894     -0.61525890690469
  N   1.73569348238851     -2.01791720737144     -1.38075943054546
