15
Coordinates from ORCA-job run
  C   -0.55455029516265      0.35099867132755     -0.17601095502592
  C   0.76787755976389     -0.26430993235577      0.33723127532473
  Br  -0.18513485300728      1.47299670610703     -1.73535154228659
  H   0.55745862688341     -0.77783805897114      1.28143214448673
  C   -1.52755082480946     -0.75919643593376     -0.57441990177799
  H   -1.11532978777724     -1.34919803682158     -1.39346377833225
  H   -1.71791045700233     -1.40765162679530      0.28577712156329
  H   -2.47066051910920     -0.31706205930060     -0.89573494413744
  C   -1.15993137223678      1.18904230784654      0.85552350003231
  N   -1.72312546696054      1.81785857515190      1.67407835392431
  N   1.77611963410485      0.81297925633346      0.69158981363247
  O   2.71024656787926      0.99666497826890     -0.07677641155944
  O   1.53566304146408      1.41357276465895      1.73261953039756
  C   1.34266489037727     -1.19258677334948     -0.62559290346825
  N   1.76616325559271     -1.98627033616672     -1.38090130277351
