15
Coordinates from ORCA-job run
  C   -0.63897516292721      0.44282204612189      0.04340438227595
  C   0.89140889484901      0.35756888520847      0.23619761775054
  Br  -1.09390049664662      2.33344141810387      0.31351133698232
  H   1.37354747136438      1.04959398283197     -0.45678022952993
  C   -1.05429353092916      0.01832542822075     -1.36168442466027
  H   -0.49052110119674      0.58119172238126     -2.10759102152268
  H   -0.87152134213804     -1.04986816603223     -1.50018011475233
  H   -2.11883468368499      0.20753680916575     -1.49950550681977
  C   -1.34578089848640     -0.33279230114019      1.05666996554112
  N   -1.95035407568200     -0.96890370373478      1.83946963753808
  N   1.34783187860340     -1.02673226527988     -0.18254034955770
  O   1.86893643368377     -1.10325490969119     -1.29040012639065
  O   1.11088315419114     -1.94424102106419      0.59378472163761
  C   1.30960256770393      0.61042832390367      1.60745267000053
  N   1.66197089129456      0.82588375100488      2.70719144150705
