15
Coordinates from ORCA-job run
  C   -0.49071338199424      0.35994198725772     -0.30037488047109
  C   0.70725858166501     -0.26398135347265      0.45168972950183
  Br  0.10413390635218      0.99802223503621     -2.05124137110514
  H   0.38197738906471     -0.49664990769965      1.47130136097912
  C   -1.58894803905629     -0.68649357237813     -0.49268908418147
  H   -1.22527047274351     -1.50982676516258     -1.10826368380643
  H   -1.90660103562053     -1.06887941378045      0.48190187084878
  H   -2.44606088554113     -0.22706253917478     -0.98535221007964
  C   -1.02266289438692      1.49900089133155      0.44286259776588
  N   -1.53497590857157      2.37855476145725      1.03163865049368
  N   1.83529325556440      0.73738511048589      0.61808464598010
  O   2.82155992808992      0.61131667376527     -0.09456754187671
  O   1.62828229008579      1.60215562470119      1.46162172723408
  C   1.19501685793755     -1.46574311136039     -0.20917879991553
  N   1.54071040915463     -2.46774062100646     -0.71543301136748
