15
Coordinates from ORCA-job run
  C   -0.54272352049993      0.37380532354332     -0.16287682645968
  C   0.76986660218882     -0.29420863848804      0.30788135263999
  Br  -0.19726959229810      1.40878999703182     -1.78647722397858
  H   0.58148521297920     -0.76006726268337      1.28102492225302
  C   -1.59482420913081     -0.69466395137752     -0.46173911916937
  H   -1.77613336081563     -1.29348785178384      0.43563148486885
  H   -2.52736329673153     -0.21302388119146     -0.75602741234313
  H   -1.25912948736531     -1.34215625926102     -1.27234054765076
  C   -1.04614519988080      1.28589669668448      0.86059789130468
  N   -1.53373872879375      1.97841890721889      1.67634229479160
  N   1.85080429290337      0.73804173253035      0.56842285522198
  O   2.74883544753596      0.84593434159431     -0.25518913281773
  O   1.69832794527726      1.38658862369535      1.59724793925740
  C   1.24307597781606     -1.28849856729370     -0.64416756712648
  N   1.58293191681518     -2.13236921021956     -1.38733091079179
