15
Coordinates from ORCA-job run
  C   -0.62690719240206      0.45936844769253      0.04924526236936
  C   0.90522563534500      0.34001158722902      0.20546862987463
  Br  -1.02800237451055      2.36653845704403      0.28674975142288
  H   1.38646917043045      1.00379951887064     -0.51520310531779
  C   -1.08811008356860      0.01382498407491     -1.33486702116943
  H   -0.93699667015223     -1.06187795695464     -1.45204571342619
  H   -2.15041515457451      0.22846443464441     -1.45158528473611
  H   -0.52823076890390      0.54387211565637     -2.10734684733317
  C   -1.32646508945347     -0.27459552313429      1.09795238472338
  N   -1.92733507140454     -0.87451327840623      1.91155069587832
  N   1.31649436212701     -1.06441679061159     -0.19255844907257
  O   1.80685535116205     -1.17894732201424     -1.31108484851688
  O   1.07724673970754     -1.95802739994090      0.61058226367090
  C   1.36540267209974      0.61293521111532      1.55934213831411
  N   1.75376847409807      0.84356351473464      2.64380014331858
