15
Coordinates from ORCA-job run
  C   -0.52256335925096      0.31795048229256     -0.29404963147751
  C   0.74285668510170     -0.20317128011809      0.42522854240290
  Br  -0.05634168946983      0.86216028639830     -2.11417123295537
  H   0.48532868808769     -0.38052084321594      1.47484415284603
  C   -1.58053110600077     -0.78443365207990     -0.35413217758187
  H   -1.82695255960170     -1.11319564229606      0.65975199594790
  H   -1.21373586961895     -1.63144354074447     -0.93465905653596
  H   -2.48311800568587     -0.39561547118160     -0.82572306628430
  C   -1.06403548588546      1.48054807631918      0.40466379813671
  N   -1.58252115725557      2.37528405381580      0.96445097027549
  N   1.83114479941822      0.85377261853559      0.46081905445617
  O   1.63218423364637      1.76322665369037      1.25800873447021
  O   2.78061081015461      0.72236326969781     -0.29928316212712
  C   1.24821552792803     -1.42466338537083     -0.18403874567868
  N   1.61145848843248     -2.44326162574273     -0.64271017589462
