15
Coordinates from ORCA-job run
  C   -0.59212165358206      0.58626791956277     -0.03647797972444
  C   0.82733784548428      0.25829109620708      0.49896954435432
  Br  -0.63296931688543      2.36912115871175     -0.85244336521345
  H   1.25038397261773      1.13958484823050      0.99231495456333
  C   -1.10196029748273     -0.46359383446703     -1.01984016257384
  H   -2.13436986661322     -0.24089863241145     -1.28921461283318
  H   -1.06736260053799     -1.45126786733520     -0.55060107536464
  H   -0.49479583774579     -0.45987169776646     -1.92444140312782
  C   -1.47533439879888      0.66864083345808      1.12599843247363
  N   -2.20087788619157      0.71252836150208      2.05062258487109
  N   1.81590907111061     -0.09416364754404     -0.61332427359232
  O   2.61477186963378     -0.98880131281574     -0.36980613664715
  O   1.76042822386259      0.58310494193866     -1.62941394615344
  C   0.76498107876808     -0.86387529162257      1.43009081888064
  N   0.66597979636059     -1.75606687564844      2.18856662008727
