15
Coordinates from ORCA-job run
  C   -0.60907481827739      0.51243328031578     -0.07317639170845
  C   0.80721411055429      0.27921301864961      0.51542079873156
  Br  -0.54652753958248      2.14003470752141     -1.16272613878905
  H   1.09883961276385      1.14171786315692      1.11815435617935
  C   -1.15828293720678     -0.64192075205116     -0.90547049509266
  H   -2.17512154010575     -0.40047349719073     -1.21628287079516
  H   -1.17734568915743     -1.55412761972690     -0.30399716660213
  H   -0.54220885806192     -0.80719104251774     -1.78696086886883
  C   -1.48258119115189      0.78009700394371      1.06743287946859
  N   -2.18188391627728      0.96241267730702      1.99529437547312
  N   1.85052804891260      0.17516973826824     -0.57658840131571
  O   1.80734144880500     -0.82424302804847     -1.28520500593729
  O   2.64219988766500      1.10623206055582     -0.65351856273041
  C   0.83391067110776     -0.94406284235577      1.30915165034595
  N   0.83299271001249     -1.92329156782775      1.95847184164111
