15
Coordinates from ORCA-job run
  C   -0.55199924478881      0.32584621042835     -0.22364147345404
  C   0.74922358678161     -0.23032213452080      0.39870073194290
  Br  -0.10633120951253      1.44672580658018     -1.76379812953406
  H   0.48565565757554     -0.74725830252549      1.32765196537012
  C   -1.44580783146361     -0.82670876892228     -0.68250527112999
  H   -1.68057446372172     -1.47185345090888      0.16921855815770
  H   -2.37593686296444     -0.42623457460143     -1.08575581550453
  H   -0.94588987317579     -1.40993048574826     -1.45634684648104
  C   -1.27016809515821      1.14865513379802      0.74599732722105
  N   -1.92446590173009      1.76228193925818      1.50630676946115
  N   1.68059392511231      0.89036918447650      0.82326848834045
  O   1.33318250954718      1.48470108275170      1.83724927850358
  O   2.66290839750639      1.11117760676402      0.12849476928495
  C   1.43718887838409     -1.13912550127612     -0.50682078575713
  N   1.95242052760809     -1.91832374555369     -1.21901956642111
