15
Coordinates from ORCA-job run
  C   -0.60252633380285      0.57528574117093     -0.03159555098069
  C   0.82595936880963      0.27236873044007      0.49557265998984
  Br  -0.68020505228372      2.35937755757388     -0.84285654897431
  H   1.23618633846591      1.16129491728394      0.98573247854226
  C   -1.09757802789263     -0.48060895300115     -1.01590765343638
  H   -0.49595957400796     -0.46122933566441     -1.92414138804286
  H   -1.04090632379800     -1.46954774883009     -0.55123000957516
  H   -2.13567586698713     -0.27682422272107     -1.27850699322857
  C   -1.48059509068284      0.63969250863579      1.13590140284383
  N   -2.19883151701699      0.67245050120030      2.06669481621936
  N   1.81163720273595     -0.06325296221480     -0.62421463662295
  O   2.61797495576596     -0.95459485418543     -0.39308121574355
  O   1.74371550325443      0.62087847822067     -1.63482117285878
  C   0.78846226219801     -0.85068977698350      1.42685846545522
  N   0.70834215524224     -1.74460058092513      2.18559534641274
