15
Coordinates from ORCA-job run
  C   -0.65832558804204      0.41030808727379      0.06530248188514
  C   0.87652900788759      0.39141622478825      0.24045345512194
  Br  -1.19983401717008      2.26560975855284      0.40785522552937
  H   1.31743986986256      1.13035303013544     -0.43130757840489
  C   -1.06930519215605      0.01628755164948     -1.34991912115882
  H   -2.14350159010950      0.15725061450545     -1.46911865262548
  H   -0.83627146722303     -1.03591958947078     -1.52919465429427
  H   -0.54305504362710      0.63232507704663     -2.08096994390271
  C   -1.31585797136466     -0.43443282127281      1.05636365531117
  N   -1.87972289330228     -1.12668412367639      1.82168835244357
  N   1.39301951531531     -0.95380163064346     -0.23240203939472
  O   1.21110866169797     -1.90814304408044      0.51379943634145
  O   1.90144736846772     -0.96650494840608     -1.34862568715779
  C   1.29710056628300      0.61455309046235      1.61620257735901
  N   1.65022877348058      0.80738272313572      2.71987249294703
