15
Coordinates from ORCA-job run
  C   -0.54416495987231      0.33236333343629     -0.23266039891491
  C   0.75643840749773     -0.23048253307507      0.38501206639888
  Br  -0.12344672803097      1.23976186426875     -1.91392948605131
  H   0.51656276801796     -0.62062108730386      1.37991918144022
  C   -1.52673681802407     -0.80629208089889     -0.50797262851381
  H   -1.10624237882786     -1.50330399857965     -1.23348303796590
  H   -2.45476411338461     -0.39647568849855     -0.90685066220445
  H   -1.74751685568505     -1.33506674350725      0.42396088675710
  C   -1.15789377398131      1.30456498899122      0.66784402974422
  N   -1.73113251214828      2.04320996990640      1.38096306988388
  N   1.77244065066931      0.87016043577850      0.62932121902401
  O   1.51779980181071      1.59573941710133      1.58377517750762
  O   2.72443787521660      0.94912201044620     -0.13482712490965
  C   1.33932810815449     -1.27804968616537     -0.44066834769254
  N   1.76689052858769     -2.16563020190005     -1.08040394450334
