15
Coordinates from ORCA-job run
  C   -0.68708203646339      0.36097321768370      0.06130777466287
  C   0.84875210756928      0.47351812100760      0.18573486909216
  Br  -1.36529532803566      2.18740894193364      0.30147881801821
  H   1.21022147841084      1.19819046289604     -0.54623546995645
  C   -1.10458566318214     -0.15764804400004     -1.31119164644123
  H   -2.18935978517664     -0.10738814497834     -1.40474339383771
  H   -0.64832917078742      0.44604877323963     -2.09758668860122
  H   -0.79456992862035     -1.19866935299423     -1.42892028763855
  C   -1.24649910242893     -0.46426771599898      1.12618860093221
  N   -1.73232522193565     -1.14582752996354      1.95222086736263
  N   1.45724153227132     -0.85529807889181     -0.21807393785701
  O   1.37261901492567     -1.77037428739183      0.59201878179843
  O   1.93432041832297     -0.90098471226096     -1.34730022960856
  C   1.28924166698640      0.81988205383137      1.52931298916127
  N   1.65665001814371      1.11343629588773      2.60578895291292
