15
Coordinates from ORCA-job run
  C   -0.52698196516036      0.35832985665332     -0.23156106463089
  C   0.71522772495108     -0.28502398047966      0.42618016914704
  Br  0.04975112562986      1.57657182304742     -1.65011617605917
  H   0.37764664171485     -0.86563089905384      1.29146225953350
  C   -1.42045519436006     -0.72654832752814     -0.83361208668080
  H   -2.31159724945754     -0.26688274918459     -1.26119627443207
  H   -1.72660904083029     -1.42712719514681     -0.05105406302341
  H   -0.88787924359263     -1.26481307460823     -1.61830475169563
  C   -1.28349174249916      1.13086213565806      0.74980764239379
  N   -1.96665365009235      1.71255966815078      1.50992384643832
  N   1.64460383160395      0.76925515182396      0.99871793635916
  O   2.67670217632054      1.01332161991984      0.38911013542373
  O   1.24569174989006      1.29218995551124      2.03282161862880
  C   1.43748361137077     -1.14015760179851     -0.50467191877129
  N   1.97556122451130     -1.87490638296484     -1.24650727263108
