15
Coordinates from ORCA-job run
  C   -0.67765899473848      0.38189706152591      0.04475131062147
  C   0.83856500437584      0.40199499621906      0.33836052587385
  Br  -1.31655235953079      2.18695524986232      0.47739872073092
  H   1.29964498568074      1.20667353659751     -0.23731710400783
  C   -0.96169400931865      0.08246106466835     -1.42391629755331
  H   -0.67300659621060     -0.94477532047496     -1.65923657125005
  H   -2.02823513081225      0.19462799506713     -1.61853761210071
  H   -0.40607329889125      0.77004881579917     -2.06393789859205
  C   -1.37725530744044     -0.55701114680290      0.91495779293710
  N   -1.97509319493848     -1.32371522959942      1.57640966103348
  N   1.44410767231708     -0.88194965379220     -0.19469844543645
  O   1.21772513749657     -1.90369753152839      0.44232847566122
  O   2.06285182194266     -0.78260383538402     -1.24907420926942
  C   1.14509535215618      0.52823531955500      1.75595702094480
  N   1.40657891791190      0.64185867828745      2.89555463040697
