15
Coordinates from ORCA-job run
  C   -0.61796316735607      0.47004476569238      0.06367811109203
  C   0.90166274906887      0.29385216745358      0.27737921887948
  Br  -0.98479123048967      2.35732567517728      0.46152708459979
  H   1.43238286061298      1.00787660653688     -0.35517202937765
  C   -1.02295475083806      0.16859758894190     -1.37575545945115
  H   -0.41638563504492      0.75441973293419     -2.06852500787891
  H   -2.07376110108735      0.42033741917529     -1.51883170308565
  H   -0.88939460796851     -0.89473371048390     -1.58817739794087
  C   -1.38385628299064     -0.33844948966664      1.00583589488376
  N   -2.03553288890111     -0.99373895624282      1.73302803166413
  N   1.29849398350679     -1.07852199128212     -0.23160679279483
  O   0.99966439792866     -2.03574409722784      0.47205776752961
  O   1.83990466267516     -1.10220605222010     -1.33206828970876
  C   1.30342824422757      0.42728289960649      1.67019907822836
  N   1.64710276665629      0.54465744160542      2.78743149336065
