15
Coordinates from ORCA-job run
  C   -0.60703396077954      0.51154857786772     -0.09104172651398
  C   0.80507125601212      0.28756319301247      0.51108745894098
  Br  -0.52739804909572      2.10728298158165     -1.22583694102296
  H   1.09515567665578      1.16276964346106      1.09623083891420
  C   -1.16030208429762     -0.66234931146922     -0.89248442728204
  H   -1.19100336355888     -1.55572097341897     -0.26392363046268
  H   -0.53925762286657     -0.85858228452835     -1.76386893692113
  H   -2.17310368521377     -0.42264737878259     -1.21740006892516
  C   -1.48300697634570      0.81798740788190      1.03775580047418
  N   -2.18335707007999      1.03274685084455      1.95788058103358
  N   1.85656338309299      0.15645322700078     -0.57018757635980
  O   1.80430897629372     -0.84908539010332     -1.26945816346576
  O   2.66575862132778      1.07217519068655     -0.64679950648746
  C   0.82344624344010     -0.91697143226828      1.33329188295551
  N   0.81515865541530     -1.88117030176595      2.00475441512253
