15
Coordinates from ORCA-job run
  C   -0.62924850896015      0.47928635033868     -0.11517546608685
  C   0.78817314300711      0.34524755095805      0.50137464069380
  Br  -0.61701856348313      2.02913172009006     -1.31426725616413
  H   1.03498818450408      1.25672088420869      1.04956938223124
  C   -1.12352979547109     -0.75069658371007     -0.86975855547908
  H   -1.11442954957811     -1.61877732278291     -0.20592416890456
  H   -0.49100913191303     -0.95242891375599     -1.73172841413450
  H   -2.14527047802364     -0.57206988488541     -1.20597443570009
  C   -1.52380878653225      0.78994376581623      0.99799095353299
  N   -2.23255035010159      1.00731343663657      1.91087266042451
  N   1.85024325607245      0.21589067836488     -0.56939676747605
  O   1.84777783643514     -0.82030284165914     -1.22457690634896
  O   2.61469863422446      1.16536903135725     -0.68597684661711
  C   0.85613511188853     -0.82126324035449      1.37422016263901
  N   0.88584899793120     -1.75436463062242      2.08775101738979
