15
Coordinates from ORCA-job run
  C   -0.60502073236333      0.51674197871572     -0.07930399370551
  C   0.81102174817652      0.28038646648944      0.50862735775808
  Br  -0.53186029784103      2.12670720011942     -1.19391877684652
  H   1.11185962694720      1.14920933981531      1.09761289177231
  C   -1.16638027571943     -0.64567328856058     -0.89198698576796
  H   -0.55326562671880     -0.83095467838952     -1.77153223256998
  H   -1.19291324547305     -1.54772905563574     -0.27569329088035
  H   -2.18145737749205     -0.40006658731299     -1.20520126226461
  C   -1.47261571083964      0.80891780687467      1.05979582849736
  N   -2.16876335930269      1.01066289837445      1.98602599420952
  N   1.85057060217436      0.15056065872206     -0.58438781741800
  O   2.64970238050418      1.07361887827807     -0.67841254169154
  O   1.79801746076787     -0.85997494471813     -1.27634674048558
  C   0.82971363375533     -0.93103729598241      1.32058206974276
  N   0.82139117342456     -1.90136937678976      1.98313949965001
