15
Coordinates from ORCA-job run
  C   -0.61156244676385      0.50988112039481     -0.07167483490157
  C   0.81091940641923      0.28410794870667      0.50391607482842
  Br  -0.56206389174835      2.13087253056574     -1.17140456360078
  H   1.10508569342042      1.15080934086670      1.09941730333504
  C   -1.16799248163508     -0.65055090935869     -0.89045099948521
  H   -2.18707095662033     -0.41083270879320     -1.19526182672602
  H   -1.18380541476847     -1.55738303556603     -0.28057657334675
  H   -0.55845403165338     -0.82432641720520     -1.77480992945019
  C   -1.47328075047552      0.78234528912700      1.07678678965993
  N   -2.16170475319241      0.96611443899453      2.01251092498839
  N   1.84589607564347      0.17712294868109     -0.59583553219812
  O   2.64386379185573      1.10247228192648     -0.67472476890323
  O   1.79207469639111     -0.82022158255179     -1.30665340444173
  C   0.85004165549622     -0.93394626874728      1.30547390384590
  N   0.85905340763119     -1.90746497704084      1.96328743639594
