14
Coordinates from ORCA-job run
  C   0.70184481471825      0.11953933147685     -0.49179578049562
  C   -0.76444442440588     -0.17718944671137     -0.14768230624803
  Br  1.10615526325488     -0.66812150378508     -2.23213396427724
  H   -0.87655271460434     -1.26482888542292     -0.08643334486532
  H   0.82798109088666      1.19704626744602     -0.62973526405495
  C   1.65861697451093     -0.41622069945744      0.55529288164013
  H   1.55658872763558     -1.50023091874420      0.64440432893512
  H   1.43142200508766      0.03642418903123      1.52059011508782
  H   2.68948001830749     -0.19004860033717      0.27995056328646
  C   -1.67423731758817      0.31367157298058     -1.20257337363239
  N   -2.44596130747330      0.76411953740865     -1.96552901995625
  N   -1.07308561759589      0.38560992640217      1.16382047351481
  H   -1.95052344398151      0.00866126645360      1.50214137801222
  H   -1.18628406875236      1.39056796325906      1.08768331305323
