14
Coordinates from ORCA-job run
  C   0.66043084314079     -0.23052277698057     -0.63882178173128
  C   -0.84850333232257     -0.06764795255486     -0.39398623561181
  Br  1.01772862979183     -2.13534547546294     -0.94643784183721
  H   -1.37417146834760     -0.48322478945448     -1.26714170565477
  H   0.90951120005728      0.24795268321708     -1.58807409715750
  C   1.52528737331461      0.29333542193147      0.48925100798519
  H   2.58110389380767      0.15142566606498      0.25570688930489
  H   1.33962425702107      1.36334827351026      0.61965561676969
  H   1.28971887065976     -0.21447693418743      1.42270145803258
  C   -1.14692867365592      1.37169963678105     -0.35631045893772
  N   -1.37884186936972      2.52246231657377     -0.34534831782636
  N   -1.23817034023683     -0.66745862574213      0.87622740617266
  H   -1.11881472826053     -1.67199972735097      0.81050623589420
  H   -2.21597465559985     -0.47954771634524      1.06207182459742
