14
Coordinates from ORCA-job run
  C   0.70066005429602     -0.22524494373027     -0.67099614550414
  C   -0.82136924776965     -0.18201254081308     -0.45808716955087
  Br  1.22565988101862     -2.05158668930706     -1.10875921253964
  H   -1.29617144138614     -0.68247784874717     -1.30671355086707
  H   0.94265926597576      0.35781231849237     -1.56226171373420
  C   1.48357016607470      0.27150664118196      0.52930564760791
  H   2.55176183894407      0.27826455278628      0.31127959090795
  H   1.17921293637009      1.29336330183958      0.77792695144604
  H   1.31764692786211     -0.37825277790390      1.38931870303598
  C   -1.24019492594740      1.23730912896276     -0.48618035229883
  N   -1.56128272534925      2.36744137074801     -0.45781049568193
  N   -1.21462096321576     -0.87696624999013      0.75558670466398
  H   -1.07086039574099     -0.29029323935542      1.56807348148220
  H   -2.19667137113219     -1.11786302416393      0.71931756103262
