14
Coordinates from ORCA-job run
  C   0.68903308626700      0.10047863171330     -0.54840050455497
  C   -0.79029187213149     -0.08553210412574     -0.18121067062956
  Br  1.03026858671202     -0.80786707501031     -2.24363294803557
  H   -1.00446821032212     -1.16453867997175     -0.17631016955677
  H   0.87099042160401      1.16105138950729     -0.73025720574909
  C   1.61467036575796     -0.43792244320061      0.52462289076543
  H   1.42298254354924     -1.49878213259979      0.70724640453176
  H   2.65636296681716     -0.32950082719753      0.22141406060253
  H   1.46481232479793      0.12620509892858      1.44741537083852
  C   -1.65657436844746      0.52688801065813     -1.19418923284503
  N   -2.37521366841756      1.04503230769712     -1.96422885163856
  N   -1.03379750439287      0.56375732174403      1.11126426494611
  H   -0.90333797935428     -0.10625401832581      1.85844884091569
  H   -1.98343669243953      0.90898452018309      1.16681775040953
