17
Coordinates from ORCA-job run
  C   -0.65225054992930     -0.26036676336031     -0.66578945673147
  C   0.74740104044085      0.26937831736278     -0.25823016298110
  Br  -0.42652387276411     -1.76519627140735     -1.91801610342230
  H   1.30781827760179      0.41221419215014     -1.19371862220677
  C   -1.50573838145021     -0.71144843054428      0.51192239975887
  H   -1.06184682565776     -1.58590338076925      0.98787197659547
  H   -1.55948861525479      0.11015613684814      1.22841877863509
  H   -2.51007851133159     -0.97225628744981      0.17646311337860
  C   -1.33574407095695      0.79198680772021     -1.41634313040857
  N   -1.85803646779808      1.67782081898864     -1.98624446610062
  C   1.50625670972273     -0.70186799257550      0.63176484376555
  H   2.53579553823274     -0.35407925757016      0.75223255576690
  H   1.04746075047089     -0.74780950145766      1.62132677333560
  H   1.54080284837373     -1.70321491519347      0.20280083722427
  N   0.52560721135219      1.51338124138660      0.47482756552522
  H   1.34933392836816      1.74620327513711      1.01637509373189
  H   0.34723099057971      2.28000201073416     -0.16366199586662
