17
Coordinates from ORCA-job run
  C   -0.67569651349216     -0.26380503048456     -0.64123398910647
  C   0.74382966635900      0.25058828512143     -0.28435653735842
  Br  -0.50988103310606     -1.80091130851076     -1.86357308780128
  H   1.27920884294493      0.36337633722960     -1.23848119307551
  C   -1.50419236717701     -0.67263369785556      0.56907458679064
  H   -1.06141051489374     -1.54321077052480      1.05317621698097
  H   -2.52136381605853     -0.92433997523878      0.26693070043797
  H   -1.52477604030839      0.16597695332253      1.26728582985382
  C   -1.35903525202458      0.78323475515250     -1.39882278566046
  N   -1.87713484406868      1.66547984080009     -1.97809094600959
  C   1.51171600366170     -0.71367779225211      0.60538672934808
  H   1.07980648407451     -0.73170334138864      1.60800282713224
  H   2.54935022929339     -0.37965036861541      0.69064289202014
  H   1.51930968292034     -1.72426542853380      0.19719185054396
  N   0.56289202270993      1.51403509719618      0.42616646781211
  H   0.38469448203694      2.27073289885903     -0.22392169323644
  H   1.40168296712839      1.74177354572305      0.94562213132823
