17
Coordinates from ORCA-job run
  C   -0.71131761909158     -0.05748403376225     -0.53084883474309
  C   0.82273922447850      0.05317041672100     -0.28185800567143
  Br  -1.02778284759355      0.08276683920714     -2.47670954683296
  H   1.27123781823623     -0.75526438175403     -0.87163179616789
  C   -1.31744667096391     -1.37511763875139     -0.06020676515321
  H   -1.28713254970513     -1.43316234496899      1.02932581029614
  H   -2.35599086101565     -1.45850931252602     -0.38159033777183
  H   -0.75129857869225     -2.20836827869133     -0.48275748527319
  C   -1.38129195608096      1.08025347441563      0.09083391585534
  N   -1.86777008759396      1.99479236551786      0.64755584812840
  C   1.14568578953992     -0.16135804553333      1.19399695482074
  H   0.62451505276765      0.56930070950722      1.82063450431585
  H   0.88687513058124     -1.16291821998137      1.53777230257565
  H   2.21835193368110     -0.01636618054220      1.32694254973172
  N   1.42707473370807      1.29740289013280     -0.70848001665029
  H   1.24151803515104      1.47701825032957     -1.68730166816079
  H   1.06303345259322      2.07384349067970     -0.16667742929914
