17
Coordinates from ORCA-job run
  C   -0.76136462941102     -0.05866277515896     -0.50510382244130
  C   0.75487844983145      0.09049321628031     -0.27660826107870
  Br  -1.09888347396002      0.01987733630100     -2.45512359937287
  H   1.21771569552180     -0.75021914739607     -0.81987177649290
  C   -1.32160933977051     -1.38725739831035     -0.00671911911941
  H   -0.74312560807951     -2.21360836436240     -0.42538230328003
  H   -1.27649474435283     -1.42632190202444      1.08324971271466
  H   -2.36256279188084     -1.49767675712975     -0.31085576558961
  C   -1.48113803211798      1.05806750641215      0.10087672465965
  N   -2.08613948570282      1.90021898691743      0.65401991408443
  C   1.09746194169440     -0.02240382437174      1.20507356529206
  H   0.85452382305732     -1.00388116317446      1.61244110172380
  H   2.17283905239200      0.12612778199474      1.33711428692563
  H   0.57821520476323      0.75073738873372      1.77605525358998
  N   1.18095657709203      1.39871607485379     -0.74647416094158
  H   2.13952355741781      1.56830483030653     -0.46793641337981
  H   1.13520380350549      1.44948821012848     -1.75675533729401
