17
Coordinates from ORCA-job run
  C   -0.61343627250069     -0.23484091774225     -0.66250836607905
  C   0.82383966925475      0.25292425359237     -0.29023164285181
  Br  -0.48003495248510     -1.77799064078126     -1.88393835306995
  H   1.35958013716830      0.35445068503783     -1.24012597158549
  C   -1.46764261903691     -0.63832290166519      0.53385057509481
  H   -1.03204293561427     -1.50150047429018      1.03668299657374
  H   -1.53454822131154      0.19593602218126      1.23746403335677
  H   -2.47710548925839     -0.89637562058312      0.21237702691208
  C   -1.27371946510665      0.82594853225591     -1.41993221344143
  N   -1.77645691991792      1.72522372431252     -1.98692973260776
  C   1.56298008368621     -0.73833396016495      0.59589514773537
  H   1.13110531014569     -0.76247669703358      1.60029297190712
  H   2.59882148950597     -0.41075904293366      0.69049957450616
  H   1.54750555120934     -1.74774593756016      0.18447180070840
  N   0.83775029435384      1.55429004072024      0.35057891079736
  H   0.39356666348212      1.53168319027593      1.25962434095238
  H   0.39883767642528      2.26788974437830     -0.21807109890870
