17
Coordinates from ORCA-job run
  C   -0.77311997450881     -0.11397341809891     -0.56617773141516
  C   0.74834566750446      0.06184165766549     -0.35370269329300
  Br  -1.13201126001201     -0.20747593926526     -2.49650476601241
  H   1.22127668668952     -0.74895532320643     -0.91897580374358
  C   -1.33778415680096     -1.37906351349281      0.07408887517026
  H   -2.38243650981736     -1.51183273717671     -0.20729039029490
  H   -0.77067458459496     -2.24712504648790     -0.26979733969080
  H   -1.27821872412787     -1.31424497519233      1.16213056488452
  C   -1.45981293931304      1.06868192523925     -0.05129021743087
  N   -1.96539308881210      2.01433069775725      0.43091062693899
  C   1.12080022500543     -0.06778482013038      1.12611511309651
  H   0.93016345925412     -1.06421526354303      1.52896765156117
  H   0.57427227304806      0.66471152086142      1.72876334653482
  H   2.18799226305982      0.13807098767659      1.23727776778510
  N   1.16574329006311      1.32004510905151     -0.95282616202342
  H   2.15612233119726      1.29907030555870     -1.15872860642767
  H   0.99673504216533      2.08791883278356     -0.31196023563955
