17
Coordinates from ORCA-job run
  C   -0.71776332903571     -0.42082583688894     -0.25312754257776
  C   0.53526975400440      0.40257618292525      0.12428653506063
  Br  -0.61895645916914     -2.20423175457482      0.59390030568549
  H   0.36222900803168      1.37650800571880     -0.35427701174088
  C   -2.00656324350030      0.25061899307225      0.20599511044410
  H   -2.09446731340111      1.22210342814668     -0.28988867274995
  H   -2.87308111939068     -0.35765094130134     -0.05504233182158
  H   -1.96229465277370      0.40362062565366      1.28225362535363
  C   -0.74871428056742     -0.64513372626129     -1.69570136844063
  N   -0.78115469462835     -0.76813627699128     -2.86452295630874
  C   1.83603287894974     -0.17847541653798     -0.42308287197622
  H   1.80899170174905     -0.30511933574521     -1.50771984748788
  H   2.65961713815494      0.49787641186021     -0.18103615010210
  H   2.04691031867109     -1.14777235388873      0.03390787405735
  N   0.52676591800163      0.63411950824539      1.56343917309376
  H   0.89991073221897     -0.17955471888224      2.04032612061717
  H   1.12926764268490      1.41847720544960      1.78129000889363
