17
Coordinates from ORCA-job run
  C   -0.63813982923437     -0.24555108568134     -0.63469983279324
  C   0.81418078870548      0.24210869233707     -0.32528574613967
  Br  -0.55649083938533     -1.81440916372591     -1.82733023666585
  H   1.31548631634307      0.31995728242738     -1.29596627166786
  C   -1.44969132948433     -0.61945619849206      0.60037085653834
  H   -2.47163594204564     -0.87823177033570      0.32175678491129
  H   -1.00012909021923     -1.47453958433874      1.10474699439167
  H   -1.48650474671670      0.22942760373632      1.28858245485500
  C   -1.32089630821480      0.80298093674276     -1.38923092501954
  N   -1.84065110850885      1.69296004906332     -1.95551083278198
  C   1.57966671172808     -0.73410442842200      0.55518352721541
  H   1.18519440456199     -0.73229949077567      1.57512402777238
  H   2.62031828976394     -0.41180230728104      0.60397627095582
  H   1.54264131451631     -1.75247807848667      0.16792310064617
  N   0.85801913033390      1.55700416906031      0.28579759610734
  H   0.44399400811727      1.55763288245059      1.20928418874063
  H   0.40463822973921      2.26080049172136     -0.28372195706592
