17
Coordinates from ORCA-job run
  C   -0.72458672081575     -0.06577764484018     -0.51147757341786
  C   0.81573230987179      0.03919910462646     -0.30334652084693
  Br  -1.08858581311502      0.02575212299303     -2.45187897187138
  H   1.24356606622668     -0.78811401427081     -0.88217829215515
  C   -1.32841514746730     -1.36563456321283      0.00884639563207
  H   -1.27105678010498     -1.39565732454066      1.09841201522109
  H   -0.77927646170157     -2.21412991936496     -0.40573519874328
  H   -2.37534094143372     -1.44905678137356     -0.28402664695437
  C   -1.37096421904415      1.09324014306223      0.09593985843893
  N   -1.83692046354358      2.02602797396619      0.63971880397492
  C   1.17332535359676     -0.13909138437890      1.16938863506227
  H   0.67137270408092      0.61042924791780      1.78939330141416
  H   0.91776769568306     -1.12999648060209      1.54499070783716
  H   2.24961798485953      0.00297937386131      1.27275390363086
  N   1.41852957297528      1.26683579835529     -0.77750240076316
  H   1.21087926751209      1.42168827911173     -1.75608554724057
  H   1.07335559241996      2.06030606868996     -0.24821246921878
