17
Coordinates from ORCA-job run
  C   -0.62306296300856     -0.22672312891170     -0.65412066427649
  C   0.82144705120531      0.25498798694514     -0.30425346305430
  Br  -0.51493756599196     -1.75797855265740     -1.89283686733294
  H   1.34047461279563      0.36378899545448     -1.26255778121380
  C   -1.45538151174097     -0.64056093675775      0.55421882715324
  H   -2.47099998313415     -0.89433084315036      0.24922612634853
  H   -1.50814873636491      0.18706245147782      1.26678524787011
  H   -1.01140098116497     -1.50897885967453      1.04049454117028
  C   -1.29923383664403      0.84143371272956     -1.38656623975801
  N   -1.84797398156691      1.73089419786279     -1.92561299274886
  C   1.57499379917088     -0.74462486139488      0.56014522700369
  H   1.16297211585074     -0.77442030901845      1.57268364954946
  H   1.54791677224061     -1.75112135942442      0.14221559663708
  H   2.61367691841245     -0.42135847830451      0.63658208230604
  N   0.84908457116115      1.55113533496678      0.34715034960039
  H   0.40170221329634      2.27031481880293     -0.20774765464056
  H   0.41987150548332      1.52147983105450      1.26319401538614
