16

C	-0.413484	-0.004149	-1.453128
C	0.0	0.0	0.0
Br	-2.378329	0.080279	-1.666547
H	1.096816	0.0	0.0
H	-0.072358	0.922866	-1.926109
N	0.043411	-1.222777	-2.091882
H	1.05971	-1.190706	-2.12792
H	-0.307508	-1.274302	-3.041015
C	-0.545217	-1.128408	0.832807
H	-0.101918	-1.104411	1.831122
H	-0.281729	-2.070412	0.349038
H	-1.629348	-1.070935	0.936739
N	-0.374585	1.333289	0.545498
O	-1.113842	1.397503	1.535101
O	0.193609	2.306041	0.036801
Br	2.751283	0.0	0.0
