16

C	-0.520076	0.039514	-1.440303
C	0.0	0.0	0.0
Br	-0.002333	1.772727	-2.243446
H	1.088794	0.0	0.0
H	0.072526	-0.686176	-1.999249
N	-1.916819	-0.197563	-1.651556
H	-2.449435	0.134799	-0.858691
H	-2.095016	-1.173549	-1.826678
C	-0.440735	-1.267595	0.71763
H	0.016324	-1.292057	1.708961
H	-1.525047	-1.339205	0.814798
H	-0.062223	-2.131905	0.166424
N	-0.515493	1.170106	0.767709
O	-1.74775	1.254039	0.880563
O	0.277028	1.96817	1.248296
Br	3.53036	0.0	0.0
