16

C	-0.276605	-0.040105	-1.500943
C	0.0	0.0	0.0
Br	-2.212307	-0.212409	-1.862638
H	1.096037	0.0	0.0
H	-0.004072	0.923782	-1.924628
N	0.436034	-1.073654	-2.20407
H	0.232433	-1.975954	-1.789742
H	1.429853	-0.892669	-2.053413
C	-0.506863	-1.160224	0.821208
H	-0.155981	-2.09289	0.374391
H	-0.094862	-1.103009	1.828058
H	-1.595206	-1.174398	0.881513
N	-0.447602	1.307462	0.56732
O	-1.01828	1.308586	1.659449
O	-0.200287	2.320509	-0.086576
Br	3.436038	0.0	0.0
