16

C	-0.291458	-0.054186	-1.487321
C	0.0	0.0	0.0
Br	-2.24518	-0.249901	-1.858185
H	1.096821	0.0	0.0
H	-0.072666	0.915625	-1.933289
N	0.416068	-1.171483	-2.045465
H	0.455586	-1.083474	-3.052567
H	1.371152	-1.146591	-1.684258
C	-0.511718	-1.164222	0.812069
H	-1.595375	-1.130582	0.925465
H	-0.048808	-1.158798	1.79852
H	-0.231656	-2.08203	0.29352
N	-0.43662	1.313611	0.559239
O	-0.22045	2.320417	-0.115351
O	-0.957563	1.324003	1.675025
Br	3.42905	0.0	0.0
