16

C	-0.478077	-0.025537	-1.440343
C	0.0	0.0	0.0
Br	0.257733	1.581597	-2.412375
H	1.090195	0.0	0.0
H	0.064368	-0.838152	-1.924992
N	-1.877148	-0.195657	-1.611361
H	-2.105126	-0.272952	-2.593825
H	-2.356622	0.603923	-1.217443
C	-0.485302	-1.215556	0.779663
H	-1.574802	-1.244501	0.838561
H	-0.046521	-1.191202	1.778505
H	-0.133966	-2.119181	0.277886
N	-0.462507	1.211102	0.745208
O	-1.477288	1.799176	0.352745
O	0.160463	1.511119	1.756695
Br	3.510414	0.0	0.0
