16

C	-0.340241	-0.034574	-1.477045
C	0.0	0.0	0.0
Br	-2.304364	-0.121552	-1.780374
H	1.096794	0.0	0.0
H	-0.07226	0.921033	-1.930999
N	0.280005	-1.199462	-2.054496
H	0.174376	-1.177068	-3.061558
H	1.276117	-1.16086	-1.829426
C	-0.511106	-1.157183	0.821476
H	-1.596034	-1.133224	0.9221
H	-0.213076	-2.079824	0.322405
H	-0.061033	-1.131126	1.814092
N	-0.41256	1.32116	0.566258
O	-1.044221	1.336599	1.624881
O	-0.077503	2.327114	-0.060238
Br	3.462332	0.0	0.0
