13

C	-0.355693	-0.009974	-1.465176
C	0.0	0.0	0.0
Cl	-2.154305	-0.097464	-1.776327
H	1.092973	0.0	0.0
H	-0.390091	0.886888	0.495228
C	0.095816	1.267146	-2.032137
N	0.427709	2.291461	-2.501534
C	0.275782	-1.093901	-2.227551
N	0.757271	-1.899932	-2.93329
N	-0.502055	-1.169342	0.708489
O	-0.723445	-1.038686	1.913655
O	-0.625917	-2.226537	0.085212
F	2.458668	0.0	0.0
