13

C	-0.336075	-0.024918	-1.469087
C	0.0	0.0	0.0
Cl	-2.130666	-0.118452	-1.807563
H	1.093071	0.0	0.0
H	-0.396456	0.891076	0.48181
C	0.121533	1.246929	-2.042623
N	0.454275	2.265167	-2.523669
C	0.308646	-1.11396	-2.210013
N	0.802876	-1.932832	-2.891731
N	-0.506239	-1.163388	0.717654
O	-0.732269	-1.020283	1.919995
O	-0.629824	-2.226094	0.104326
F	2.460301	0.0	0.0
