13

C	-0.462844	-0.033007	-1.448667
C	0.0	0.0	0.0
Cl	0.478567	-1.197067	-2.442815
H	1.088828	0.0	0.0
H	-0.349149	0.909506	0.490551
C	-1.893296	-0.330838	-1.614624
N	-3.052561	-0.488863	-1.732672
C	-0.227989	1.305045	-2.009745
N	-0.089842	2.38719	-2.445858
N	-0.505653	-1.131089	0.773185
O	-0.523104	-0.997438	1.996634
O	-0.831901	-2.161616	0.177026
F	2.470079	0.0	0.0
