13

C	-0.447387	-0.000408	-1.452942
C	0.0	0.0	0.0
Cl	0.450141	1.197884	-2.449373
H	1.090137	0.0	0.0
H	-0.332241	-0.911858	0.499284
C	-0.137077	-1.331268	-1.996867
N	0.093232	-2.404944	-2.417532
C	-1.888845	0.223619	-1.64485
N	-3.048998	0.338632	-1.796086
N	-0.532831	1.126329	0.75865
O	-0.929084	2.125489	0.14801
O	-0.510564	1.019858	1.985884
F	2.467685	0.0	0.0
