18

C	0.0	0.0	0.0
C	-0.587737	0.381985	-1.365824
Cl	1.739916	0.0	0.0
H	0.050986	-0.16612	-2.066569
N	-0.488336	0.877897	1.151924
O	0.136891	0.799411	2.200541
O	-1.487234	1.551754	0.940447
N	-0.458561	-1.420058	0.348613
O	-1.238292	-1.554585	1.278344
O	-0.026659	-2.292873	-0.39139
N	-0.333815	1.80628	-1.554067
H	-0.225932	1.99028	-2.542853
H	-1.144071	2.322303	-1.230225
C	-2.028571	-0.075144	-1.5666
H	-2.745812	0.310219	-0.840158
H	-2.114062	-1.162588	-1.555306
H	-2.347621	0.258709	-2.559091
Cl	-5.181073	0.0	0.0
