13

C	0.0	0.0	0.0
C	-0.44039	-0.059632	-1.450762
F	1.393276	0.0	0.0
H	-1.527763	0.071097	-1.476629
H	-0.33179	0.939056	0.442735
H	-0.139379	-0.997455	-1.917354
N	-0.484942	-1.082449	0.789472
H	-0.413673	-1.951008	0.270351
H	-1.478536	-0.911976	0.953137
N	0.183583	1.023328	-2.254323
O	0.715651	0.716827	-3.322322
O	0.119581	2.166337	-1.806485
Br	-3.699939	0.0	0.0
