13

C	0.0	0.0	0.0
C	-0.473989	-0.107093	-1.429849
F	1.405387	0.0	0.0
H	-0.193558	-1.061	-1.875172
H	-0.33773	0.93976	0.433395
H	-1.561384	0.038341	-1.426264
N	-0.498536	-1.092899	0.735269
H	-0.579818	-0.915479	1.722345
H	0.010414	-1.942156	0.542585
N	0.164945	0.949201	-2.256172
O	0.022355	2.112429	-1.883449
O	0.798801	0.604425	-3.255167
Br	-3.886355	0.0	0.0
