15
Coordinates from ORCA-job run
  C   -0.66778334391154     -0.04203638911535     -0.22942327712181
  C   0.76231222633652     -0.52810372559972     -0.08387254091697
  Cl  -0.74920065083958      1.28087052433247     -1.48651959520233
  H   0.95347354192691     -1.15224691016253     -0.96375253663345
  H   0.76638875267121     -1.18949304386795      0.78571935774856
  N   -1.19637628110550      0.61559615407760      1.05108807401878
  O   -0.42665378133663      0.74093336246933      1.99582745411021
  O   -2.37896674177093      0.93170690758413      1.03460919654401
  N   -1.55815168864506     -1.10685745660325     -0.46856323545592
  H   -1.28090425536520     -1.64206655287168     -1.28007458741391
  H   -2.50891983397581     -0.77397544715191     -0.57380357770924
  C   1.85605248120877      0.52675467116766      0.03113228318800
  H   1.95262128085255      1.10453341338480     -0.88735250976656
  H   2.81012443308204      0.02891929597055      0.21737231894970
  H   1.66598386087226      1.20846519638584      0.85761317566095
