15
Coordinates from ORCA-job run
  C   -0.72574637008408     -0.02925848790647     -0.38480770125420
  C   0.71363873897995     -0.49964664681830     -0.18817560492122
  Cl  -0.84461950414057      1.01627304911265     -1.80185282057462
  H   1.00035336128937     -1.01632593276314     -1.10896309697320
  H   0.68793588538108     -1.24341788946623      0.61456356624592
  N   -1.08094362974620      0.76826352217510      0.87926446407473
  O   -1.14339747710091      1.98635747593909      0.84814276591830
  O   -1.21267941889929      0.05518946191791      1.87128424092079
  N   -1.73287463266754     -1.04455179983174     -0.48920645510255
  H   -1.65731239316040     -1.51671400169336     -1.38048423550263
  H   -1.62559580716345     -1.71009428990861      0.26649915030225
  C   1.70972252771388      0.60252851368153      0.15135004754566
  H   2.71922317538916      0.18951255314529      0.19639065606005
  H   1.69943325862060      1.39542165257917     -0.59729069261000
  H   1.49186228558840      1.04746281983710      1.12428571587071
