15
Coordinates from ORCA-job run
  C   -0.83888179000425      0.03237225036605     -0.41641093181856
  C   0.62217434106774      0.35193445491232     -0.73005438179773
  Cl  -1.85108522862695      0.66451540071941     -1.73612602305240
  H   0.69911847710953      1.41943901036008     -0.94804211741480
  H   0.86948151591730     -0.18837373812474     -1.64912225643115
  N   -1.16571174154918      0.82128522748436      0.86030837816939
  O   -1.27663197578547      0.17074754227353      1.89478443278514
  O   -1.18251566923786      2.04016336750156      0.76737156650547
  N   -1.20528663047155     -1.32267568333034     -0.18192332742054
  H   -0.94165317855610     -1.89841402918713     -0.97032896038014
  H   -0.80197221171276     -1.67059522230563      0.67684121401909
  C   1.57563523184372     -0.03322202684222      0.39543478228531
  H   1.39824317640415      0.55743199482062      1.29638146946596
  H   2.60568668184558      0.14772417614069      0.08277389636883
  H   1.49239900175610     -1.09033272478854      0.65611225871613
