13
Coordinates from ORCA-job run
  C   -0.45768041308643      0.03140456993945     -0.16196223226788
  C   0.74639938120039     -0.87816609766018     -0.11781952196432
  F   -1.08781456128045     -0.00722058073272     -1.33251454402408
  H   1.20206177467397     -0.82471162779919      0.87142072921997
  H   0.41257077172165     -1.90478128270607     -0.28602262124227
  N   -0.04662276362446      1.46730818193180      0.13721576334065
  O   -0.22320977992594      2.29659605919877     -0.73787568542525
  O   0.44085335199631      1.61645567489921      1.25089054315294
  N   -1.47462750261853     -0.30941912958304      0.91841750265465
  O   -1.21622354588050     -1.24760727325856      1.66176486372676
  O   -2.47202204626448      0.39893225622015      0.91544091653409
  C   1.70340215012369     -0.48063371566387     -1.14707468922621
  N   2.47391318296477     -0.15815703478575     -1.97088102447905
