13

C	-0.529644	-0.017017	-1.39832
C	0.0	0.0	0.0
Br	-2.421047	0.487041	-1.526623
H	1.090998	0.0	0.0
H	0.016967	0.731288	-1.972948
H	-0.285735	0.934578	0.480873
N	-0.288325	-1.315895	-2.151349
O	-1.221347	-2.055469	-2.421141
O	0.887612	-1.484222	-2.449164
N	-0.465473	-1.077479	0.843732
O	-0.501951	-2.217155	0.357997
O	-0.665602	-0.820674	2.039148
H	2.536002	0.0	0.0
