13

C	-0.554009	0.118789	-1.38155
C	0.0	0.0	0.0
Br	-2.497647	0.395122	-1.429404
H	1.091056	0.0	0.0
H	-0.118295	1.003498	-1.8458
H	-0.297107	0.870763	0.583426
N	-0.170454	-1.01506	-2.32116
O	-1.000576	-1.83793	-2.674619
O	1.003862	-0.966041	-2.667665
N	-0.441407	-1.173292	0.723447
O	-0.464061	-2.249154	0.109983
O	-0.641584	-1.054166	1.939882
H	2.540024	0.0	0.0
