13

C	-0.535969	0.055472	-1.394151
C	0.0	0.0	0.0
Br	-2.489508	0.198301	-1.489279
H	1.09105	0.0	0.0
H	-0.148594	0.956035	-1.869481
H	-0.309338	0.888421	0.548724
N	-0.052864	-1.069777	-2.300135
O	1.128731	-0.953839	-2.605189
O	-0.81599	-1.949431	-2.665874
N	-0.43683	-1.15312	0.756006
O	-0.45149	-2.245521	0.172204
O	-0.645772	-0.99938	1.967504
H	2.539744	0.0	0.0
