13

C	-0.580347	0.023692	-1.391873
C	0.0	0.0	0.0
Br	0.366002	-1.05588	-2.685531
H	1.088572	0.0	0.0
H	-1.615192	-0.312003	-1.412391
H	-0.281144	0.895985	0.551734
N	-0.632729	1.476948	-1.842826
O	0.138614	1.896669	-2.692858
O	-1.491194	2.142878	-1.263791
N	-0.488861	-1.128677	0.755467
O	-0.905328	-2.130018	0.148979
O	-0.364931	-1.063379	1.98647
H	2.523659	0.0	0.0
