13

C	-0.535856	-0.065767	-1.386212
C	0.0	0.0	0.0
Br	0.703909	-0.877318	-2.724605
H	1.08579	0.0	0.0
H	-1.440404	-0.654009	-1.498266
H	-0.248221	0.92127	0.519979
N	-0.833722	1.302765	-1.907449
O	-1.812646	1.411223	-2.647877
O	-0.080894	2.218629	-1.585578
N	-0.440784	-1.115046	0.782163
O	-0.695665	-2.187298	0.198479
O	-0.404052	-0.988558	2.018464
H	2.386107	0.0	0.0
