17

C	0.0	0.0	0.0
C	-0.530995	0.175515	-1.43167
Cl	1.750921	0.0	0.0
H	-1.621938	0.307825	-1.325215
C	-0.498714	1.089733	0.924131
H	-0.141116	0.855045	1.926715
H	-1.599085	1.051064	0.905136
H	-0.160622	2.075189	0.609255
N	-0.617252	-1.278634	0.501112
O	-1.780775	-1.444247	-0.083477
O	-0.362983	-1.5738	1.687675
C	-0.21188	-0.951958	-2.296178
N	0.031554	-1.831849	-3.035625
N	-0.002813	1.440504	-2.054511
O	0.963497	1.370796	-2.811296
O	-0.597565	2.475421	-1.753084
H	-2.892108	0.0	0.0
