16
Coordinates from ORCA-job run
  C   0.65618544082145      0.33389803481257     -0.45055314196680
  C   -0.75309841047014     -0.22458304866677     -0.33119566896041
  Cl  0.74197548588544      1.39114895031274     -1.82455584529128
  H   -0.97873073676437     -0.79167821859058     -1.23433041457326
  N   1.63720526485328     -0.84133016472473     -0.69900803772913
  O   2.59473491345963     -0.92509783341115      0.04949037439426
  O   1.34864530163649     -1.54209443733689     -1.65211085197046
  N   1.14255724129933      1.02576012872268      0.82637510978921
  O   1.86705051613619      1.99414458101029      0.70392772693224
  O   0.78007553382024      0.47229992939904      1.85402060871412
  N   -1.76665200188313      0.86742090832573     -0.20688618525962
  O   -1.44124916531315      1.85567291870224      0.44047762122823
  O   -2.84390307773748      0.64330756487118     -0.74597470595450
  N   -0.94822908074133     -1.18138633874787      0.83282555397512
  O   -0.17197993629950     -2.12383620197478      0.83705352606236
  O   -1.86558728870296     -0.95264677270371      1.60144433060992
