16
Coordinates from ORCA-job run
  C   0.70332597111926      0.45122338555183     -0.21714633418901
  C   -0.77411902252976      0.33554717255475      0.12344677638187
  Cl  0.95912302922567      1.85934851049985     -1.19937831073922
  H   -1.07097619333337      1.22210148893246      0.68385421887855
  N   1.27233122546734     -0.80876943205469     -0.87624140330994
  O   2.13302276642874     -0.66473132285920     -1.72247606019780
  O   0.82091446522339     -1.84889928088855     -0.42003930070432
  N   1.50302950265949      0.64297241209015      1.09776537974820
  O   2.42945940585194     -0.12343213406370      1.29391802517024
  O   1.12480338376733      1.57588567315118      1.78286264753217
  N   -1.12093004959398     -0.85750527280947      0.99800019968023
  O   -2.00292151968266     -1.60277103549187      0.60901628276185
  O   -0.49219012692568     -0.90687968025958      2.04348406771750
  N   -1.61691418910605      0.26550137103779     -1.10943633992635
  O   -2.70948687390052      0.81387133080420     -1.02645041374961
  O   -1.15647177467114     -0.35246318619514     -2.06217943505436
