16
Coordinates from ORCA-job run
  C   0.67271348565013      0.37989075341880     -0.45392593768041
  C   -0.74501902667778     -0.19212967155246     -0.41300843451719
  Cl  0.95229608041545      1.26739215603801     -1.92217683337910
  H   -1.07293327978089     -0.42406761520223     -1.42500079881595
  N   1.67083833943688     -0.80075706736282     -0.44211595126946
  O   2.62864672014383     -0.72425182428855      0.30390875195042
  O   1.39207160331683     -1.67752380194921     -1.24440603287279
  N   1.00090968280342      1.24364369419839      0.76971562554550
  O   1.92239190084556      2.03083633648801      0.65297882214354
  O   0.32252652438148      1.01117063716437      1.76175777664948
  N   -1.73330351893341      0.82377638570348      0.14017361047012
  O   -1.60410316774971      1.94697942868917     -0.32302769480705
  O   -2.56757220387291      0.42794988603037      0.93406668511640
  N   -0.89589493887879     -1.46594943867547      0.37035728042785
  O   -0.10801264792680     -1.68154317891288      1.28224568125457
  O   -1.83455555317329     -2.16441667978697      0.00845744978406
