16
Coordinates from ORCA-job run
  C   0.76460367257110      0.34032617263828     -0.32050314889726
  C   -0.69855291036501     -0.05667309487752     -0.52097682632347
  Cl  1.33360788548685      1.33365051322692     -1.62839824220082
  H   -0.91015180625715     -0.14136472908921     -1.58563856026116
  N   1.61935835930102     -0.94809031202628     -0.32559699909486
  O   1.36022920716230     -1.69663061968047     -1.25443868320902
  O   2.46806140330658     -1.06791006539396      0.53765692670936
  N   1.01569775752087      1.02696157579592      1.02732270489666
  O   2.02466737894698      1.70234065210142      1.11812754987402
  O   0.18813662554316      0.77873048401161      1.89443663707178
  N   -1.63839993514314      1.00959409041475      0.02311871217259
  O   -1.32758445340579      2.15064777876692     -0.28357914002448
  O   -2.61094446414010      0.63777292780810      0.65462192777324
  N   -1.08940801108972     -1.37643695037953      0.08247791162974
  O   -2.03926350659526     -1.91513784720454     -0.47210932874673
  O   -0.46105720284269     -1.77778057611241      1.05347855863040
