16
Coordinates from ORCA-job run
  C   0.71061806644583      0.51301297163148     -0.18726058226774
  C   -0.77550959092333      0.37414080246361      0.14550707347322
  Cl  1.08418185673538      2.11463891113543     -0.74959371329221
  H   -1.16017248691201      1.32977260485095      0.49803477147973
  N   1.19627794485860     -0.53853367938075     -1.19201397155755
  O   0.51584458875198     -1.55482341114880     -1.24360490909412
  O   2.22332541636977     -0.28650247642845     -1.79532822201687
  N   1.51906194683386      0.28903146232659      1.11152048484635
  O   2.49302396963644     -0.43756269066232      1.05374836723674
  O   1.09288924956478      0.92517373909613      2.06222361673962
  N   -1.09740171785955     -0.62196545921622      1.22394270993465
  O   -0.33017307377112     -1.56090440766646      1.39259563380490
  O   -2.13884929318772     -0.38621616466583      1.82379140945984
  N   -1.58536502069862      0.01161843124238     -1.09087318603025
  O   -1.29906847187722      0.66503107664173     -2.08274059937967
  O   -2.45068338396706     -0.83691171021947     -0.97194888333664
