15
Coordinates from ORCA-job run
  C   -1.02667872692911      0.13488386006645     -0.45465773844245
  C   0.46108948757087      0.26263657359662     -0.21113735569520
  F   -1.40107049227665      0.95957487343412     -1.46368261881316
  H   0.71014061781600      1.32236968963388     -0.13758516215411
  H   -1.34920419735081     -0.88345601336130     -0.66193251996421
  N   -1.72197787766793      0.57310103127440      0.80518892229768
  O   -1.76402635295506      1.77893112337432      1.01907817487642
  O   -2.13861136160268     -0.32630516777125      1.53047155575211
  N   1.15437600685061     -0.23263155501570     -1.44806705409675
  O   2.05602559212318      0.46662744593474     -1.89733170664884
  O   0.79171906559886     -1.32256816091727     -1.88422220516688
  C   0.95924555448532     -0.53776117433718      0.97860864396788
  H   2.04863562960183     -0.48970734004188      1.01758651632035
  H   0.65094676238059     -1.58114030383679      0.89922444137432
  H   0.56839029235496     -0.12355488203314      1.90845810639285
