15
Coordinates from ORCA-job run
  C   -0.92788479056941      0.27314590176555      0.49785162869136
  C   0.46334728703400      0.24934403608637     -0.10000121729940
  F   -1.18041152420295     -0.80076098474356      1.27458174936307
  H   0.63188861595260      1.19116003295627     -0.62263790813276
  H   -1.05087793333812      1.18209939133148      1.09455130291926
  N   -1.98722933424457      0.37586205158874     -0.58027646477123
  O   -2.98292323891416     -0.31751776679024     -0.47684464058209
  O   -1.74584103112360      1.21728493701157     -1.44021535743095
  N   0.58885478126705     -0.80840077416611     -1.16342385447956
  O   1.63503932171817     -0.79175989880325     -1.80216460359881
  O   -0.33245490989795     -1.60893677969382     -1.29768500723343
  C   1.52571075122420      0.00215595828004      0.95828823686022
  H   2.51402292116729      0.04547921584455      0.50316102866511
  H   1.38227031833731     -0.97560369811065      1.41910935311397
  H   1.46448876559014      0.76644837744306      1.73570575391523
