15
Coordinates from ORCA-job run
  C   -0.98597951471985      0.20406971997481     -0.51594024734761
  C   0.47308859266365      0.29344364636430     -0.12615022089757
  F   -1.28417464692158      1.17839790940748     -1.41073501784770
  H   0.69913610846794      1.32864618665720      0.13413513296720
  H   -1.27335218310050     -0.76873525047427     -0.90964433495289
  N   -1.79422913689964      0.43569532729419      0.73114568941247
  O   -2.25716209464287     -0.56829361667963      1.26625504605661
  O   -1.87337335509399      1.59210377680931      1.12861178248579
  N   1.27862052077739     -0.00017928941514     -1.35991140313395
  O   2.21027245328115      0.75764912911015     -1.60757917454749
  O   0.96724425655080     -1.00439646337698     -1.99565104255730
  C   0.87946265538281     -0.68391093946010      0.96190249433272
  H   0.59576849416832     -1.70225687472761      0.69255968660975
  H   0.40319455922156     -0.42305422863158      1.90748394713537
  H   1.96048329086482     -0.64017903285214      1.10351766228459
