15
Coordinates from ORCA-job run
  C   -0.75615741572563      0.92123900476189     -0.23552209496093
  C   0.64259812419370      0.33619755735517     -0.09454774170013
  F   -0.90973486264436      1.92142453592636      0.66410012204721
  H   1.32350780208324      1.19106757903549     -0.13731936167206
  H   -0.96257438689412      1.28259200471454     -1.24195920745030
  N   -1.76730907925603     -0.15835615418554      0.05739600052665
  O   -1.75817734959448     -1.07248047703607     -0.76157214375938
  O   -2.45942631116839     -0.06115936506486      1.05893264267580
  N   0.96497855630705     -0.45397919895999     -1.33990872040364
  O   0.84754761835315      0.15579375884791     -2.39892545637603
  O   1.34373061500068     -1.61126986277796     -1.20991162960046
  C   0.83533451217492     -0.46661374559945      1.17093391042247
  H   1.88205000285606     -0.74272293309576      1.29025542574990
  H   0.24503915891893     -1.38218908973908      1.15059067638587
  H   0.53059301539527      0.13945638581736      2.02645757811507
