13

C	-0.45274	0.059163	-1.440535
C	0.0	0.0	0.0
Br	0.16899	-1.482313	-2.438103
H	1.092756	0.0	0.0
H	-0.304277	0.927866	0.495334
N	-1.996987	0.115025	-1.482499
O	-2.623896	-0.921666	-1.643328
O	-2.468123	1.22624	-1.244454
C	0.030873	1.268954	-2.101303
N	0.382665	2.241842	-2.660153
C	-0.538144	-1.144888	0.704173
N	-0.927609	-2.067289	1.321555
H	2.568658	0.0	0.0
