13

C	-0.435452	0.022329	-1.420224
C	0.0	0.0	0.0
Br	-2.409118	0.36458	-1.72117
H	1.095336	0.0	0.0
H	-0.291473	0.932693	0.487725
N	0.28408	1.204448	-2.076044
O	0.077742	2.300147	-1.575853
O	1.039585	0.948043	-3.004315
C	-0.124391	-1.200417	-2.141703
N	0.099292	-2.222467	-2.678807
C	-0.499346	-1.145043	0.723209
N	-0.857304	-2.078247	1.343078
H	2.502454	0.0	0.0
