13

C	-0.458536	0.052386	-1.438012
C	0.0	0.0	0.0
Br	0.166099	-1.486416	-2.43763
H	1.092764	0.0	0.0
H	-0.304648	0.9286	0.493667
N	-2.003511	0.095141	-1.473743
O	-2.481885	1.200173	-1.22361
O	-2.623953	-0.944194	-1.644549
C	0.009771	1.264711	-2.104019
N	0.351571	2.240009	-2.665319
C	-0.535898	-1.143224	0.708204
N	-0.924168	-2.064541	1.328164
H	2.567253	0.0	0.0
