13

C	-0.488816	-0.005758	-1.401438
C	0.0	0.0	0.0
Br	0.525887	1.470584	-2.436718
H	1.091154	0.0	0.0
H	-0.295263	0.944343	0.470065
N	-0.160259	-1.300901	-2.093399
O	-0.734128	-1.523932	-3.159834
O	0.720154	-1.988707	-1.576707
C	-1.886364	0.304221	-1.610088
N	-3.028452	0.56873	-1.718467
C	-0.51962	-1.107228	0.769459
N	-0.917475	-1.991453	1.434807
H	2.480516	0.0	0.0
