16
Coordinates from ORCA-job run
  C   0.66915976570183     -0.27558988366201      0.19577270474286
  C   -0.67318160859125      0.00175387381292      0.13080112651277
  N   1.25594337191982     -1.15899751728311      1.04523274247917
  H   0.64155696018813     -1.78640806602554      1.54253974815075
  H   2.18044776882494     -1.47940806034427      0.81550381016289
  C   1.63342387528301      0.51618286006617     -0.65168385839387
  H   2.63590691517473      0.08785544991621     -0.59851954086184
  H   1.32794589982036      0.53324675405896     -1.69803634548898
  H   1.69750854124939      1.54863487855187     -0.30039774426947
  C   -1.29004549315772      1.04705821966176     -0.74679418949108
  H   -0.53281675377703      1.70812068555753     -1.16499133551834
  H   -1.99186474193864      1.65444028887670     -0.17227444510904
  H   -1.85843701216508      0.59952094574387     -1.56658876881399
  N   -1.62918279612568     -0.78467745542935      0.85905509657605
  O   -2.82545472347160     -0.57213998521346      0.63473971713728
  O   -1.24090996893520     -1.64059298828823      1.67564128218486
