16
Coordinates from ORCA-job run
  C   0.67730043805318     -0.25403307576166      0.19625959640889
  C   -0.67479379148421     -0.03296371055334      0.11897972719473
  N   1.28959962115756     -1.14565291699087      1.01864223789479
  H   2.23101936574996     -1.41538478168652      0.79260636024508
  H   0.69610980257172     -1.81974664402006      1.47882659225664
  C   1.61875277407930      0.61419319306632     -0.60084242756107
  H   2.63908900300391      0.23085808649194     -0.54372475359195
  H   1.62844475014694      1.63391870381298     -0.20908677670736
  H   1.33202923197500      0.65803851788880     -1.65170916134312
  C   -1.32308356460909      1.01980544534075     -0.72637727660766
  H   -2.05645111320123      1.57628356842423     -0.13975904551633
  H   -0.58836680842111      1.72612429429040     -1.10908757835600
  H   -1.86217975962051      0.58090365853342     -1.57026216201262
  N   -1.60661388769421     -0.88981792234708      0.79769730876539
  O   -1.19350129285331     -1.76254968699999      1.58358734941709
  O   -2.80735476885390     -0.71897672948934      0.56225000951349
