16
Coordinates from ORCA-job run
  C   0.64121211640971     -0.19342932391575      0.12583313231646
  C   -0.65838720148733      0.11841318408250     -0.13597184213622
  N   0.98908995602085     -0.58160886252972      1.40493508795956
  H   1.96481883678209     -0.50048595719537      1.63711737563224
  H   0.37400814315733     -0.31014131083895      2.15471869686129
  C   1.76911339431581     -0.24736897598137     -0.86524932068303
  H   1.69324864335708     -1.14385043726525     -1.48174986233924
  H   2.72769373818471     -0.26237387930016     -0.34077015318342
  H   1.74954792805591      0.60130293840060     -1.54611320882521
  C   -1.71909066770300      0.14738646219279      0.92083354061636
  H   -1.61949035986224      1.01339799919907      1.58518115590694
  H   -2.70421984058677      0.20606309504090      0.46362947076331
  H   -1.67617155414853     -0.76249501494712      1.52697314156867
  N   -1.06160091962330      0.52548855718365     -1.46301429573228
  O   -2.08255564339329      1.21502392626558     -1.55055873530068
  O   -0.38721656947904      0.17367759960860     -2.43679418342476
