16
Coordinates from ORCA-job run
  C   0.65962158047039     -0.26809195447907      0.23387277018123
  C   -0.67249345094667      0.04476867202656      0.12978669658999
  N   1.21908297008363     -1.04415720164428      1.19861661422911
  H   2.13129344703556     -1.42520319311840      1.01751848147760
  H   0.58550469497424     -1.57373614448829      1.77876389801812
  C   1.64743441243579      0.36286603408657     -0.71553686744517
  H   1.34242037703105      0.23661588278483     -1.75460455223480
  H   2.63653833822000     -0.08289923366391     -0.59623432892603
  H   1.74294640209852      1.43305590236750     -0.51822552827794
  C   -1.25564654381530      0.97548224044398     -0.88857284130816
  H   -1.93176248444816      1.68472305017054     -0.40742214608080
  H   -1.84420720754578      0.43626143696568     -1.63569388089409
  H   -0.47698726758846      1.54118658602788     -1.39745904993199
  N   -1.65220695826424     -0.59846773881431      0.95980828858811
  O   -1.29029706640548     -1.34494017955065      1.88822030397530
  O   -2.84124124333509     -0.37746415911464      0.70716214203954
