16
Coordinates from ORCA-job run
  C   0.67313653895827     -0.01502864586712     -0.04750616470788
  C   -0.68299223477954      0.01942924857961      0.07807904564509
  N   1.34085614664999      1.14852739001664     -0.37380894887733
  H   0.86622907721966      2.01990765736006     -0.20109585643008
  H   2.32174027683648      1.16899564135203     -0.14816249619648
  C   1.55912198790986     -1.22599177478345      0.03178729957751
  H   2.52686816833201     -1.00245730051049     -0.42312299654869
  H   1.70895536531062     -1.52912870434961      1.06930258368845
  H   1.11968489432070     -2.07969847100285     -0.47997606514541
  C   -1.47783009047938      1.27357501426436     -0.11813379527890
  H   -2.53388298456976      1.07990330744474      0.05139920821003
  H   -1.16058747685372      2.05382657494627      0.58297386657719
  H   -1.36704241375516      1.66357775037199     -1.13534059120186
  N   -1.42635620772256     -1.20053517599587      0.30752500207580
  O   -2.62102849089135     -1.20625368203977     -0.00338995638601
  O   -0.84687255648612     -2.16964882978654      0.80946986499857
