16
Coordinates from ORCA-job run
  C   0.63755725220295     -0.36476675190668      0.06327223757989
  C   -0.64492926761965      0.08133718811307      0.21669148160040
  N   1.17848886820815     -1.45967943124848      0.69890347370340
  H   0.55059694845639     -2.22979769821486      0.86524734855430
  H   2.09990248493318     -1.71973052802660      0.38753134598826
  C   1.65030674352634      0.50404432757947     -0.63672225723704
  H   2.41709142182985     -0.11074082557107     -1.11596288456853
  H   2.14902944693016      1.16041132217886      0.08132670686754
  H   1.19861151728398      1.11712689783456     -1.41354237480722
  C   -1.26700671684645      1.24754726836274     -0.49156275563147
  H   -1.67163410347941      0.96117468778643     -1.46729694385923
  H   -2.08530316688571      1.64061538292419      0.11040940047628
  H   -0.55989356242311      2.06427245699336     -0.63299039932742
  N   -1.60248723806319     -0.74382685331513      0.94949641090202
  O   -1.44822887591567     -1.97050723725744      0.98440202718619
  O   -2.60010175213779     -0.17648020623241      1.39879718257264
