16
Coordinates from ORCA-job run
  C   0.66408112226624      0.01803479083416     -0.14668314878300
  C   -0.67388687022242     -0.06564416860720      0.09265760772620
  N   1.11442309769753      0.90811323417937     -1.10217863463211
  H   0.50472109318126      1.67111724255556     -1.34813480157872
  H   2.08171293240400      1.17589236748690     -1.02798089946163
  C   1.74217305018093     -0.82876312265459      0.46753442550586
  H   1.75076869251735     -1.82161072996765      0.01593870271691
  H   1.58330558320351     -0.97231946614766      1.53433710664230
  H   2.71872307348096     -0.36418926627674      0.31015619235653
  C   -1.67423968644092      0.83068840907202     -0.56993188332533
  H   -2.68446947609467      0.48504199820167     -0.36442554824500
  H   -1.52403952621537      0.83491566455281     -1.65390190312301
  H   -1.60571913048540      1.86306216070865     -0.20756302012784
  N   -1.18773913420968     -0.99824923773902      1.07064354757686
  O   -0.52270723364102     -1.99853914730506      1.36041490975728
  O   -2.28710758762232     -0.73955072889321      1.57011734699470
