16
Coordinates from ORCA-job run
  C   0.67513763929714     -0.04477514829710     -0.07132469480535
  C   -0.68319720700086      0.01691960196685      0.00616899761196
  N   1.35415981866483      0.99119716150895     -0.68205568835176
  H   0.88115332749810      1.87744097119610     -0.75377606393171
  H   2.32919220591285      1.07404115213566     -0.44744689114465
  C   1.54998768442980     -1.18279877480154      0.37157603165814
  H   1.49501314199665     -2.00638163751081     -0.34145585690842
  H   1.23622586290104     -1.58218252885811      1.33386128582308
  H   2.58860456771320     -0.85056360349369      0.44337210302822
  C   -1.46953574863123      1.20193721897160     -0.46318470619066
  H   -1.17152742989724      1.47830600295174     -1.47923608158497
  H   -1.33158993045225      2.07312234473855      0.18767689047834
  H   -2.53210657990114      0.97090670767663     -0.46849818818014
  N   -1.43253326078098     -1.05520336838636      0.62147151194575
  O   -2.54941616297502     -0.77525803858307      1.06777863807951
  O   -0.93856792877488     -2.18670806121542      0.67307271247265
