16
Coordinates from ORCA-job run
  C   0.61529108257300     -0.42785024114295      0.01811114628338
  C   -0.62493326308233      0.10632262491623      0.26183398623747
  N   1.12610081186963     -1.54464955614855      0.59979946158661
  H   0.47917138553961     -2.12321764866960      1.11481114820972
  H   1.90583590265229     -1.98837887692682      0.14670656814771
  C   1.57640659790378      0.30599491499739     -0.88345354012555
  H   1.92057210508805      1.22862086537372     -0.41039976642544
  H   2.45654342656809     -0.30577942539573     -1.08922524178598
  H   1.11466389140254      0.56630826951139     -1.83608053705210
  C   -1.13379264506759      1.38940275555851     -0.31946798559011
  H   -1.57698766449136      2.00809311320969      0.46309399591655
  H   -1.91672016518752      1.21134708681358     -1.06155299262984
  H   -0.33052818188989      1.95681824147483     -0.78642041196637
  N   -1.59677971602421     -0.60299812040694      1.04655752516031
  O   -1.27661659238321     -1.64958132775363      1.63986757664531
  O   -2.73722697547088     -0.13045267541110      1.09681906738833
