16
Coordinates from ORCA-job run
  C   0.63954549940725     -0.24892086298752      0.30158207053151
  C   -0.67222094566234     -0.11271482287250     -0.07731709250125
  N   1.13386339187717     -1.21999420231033      1.11330037796316
  H   0.45941077919512     -1.77651525033184      1.61707437708115
  H   2.03074893433843     -1.05859586541385      1.53713778437025
  C   1.68245401588541      0.66589711380566     -0.29033873334167
  H   1.39760594643874      1.71394405877411     -0.19583691870179
  H   1.82915886507099      0.44862641095557     -1.35083798063384
  H   2.64334615412748      0.52995402416660      0.20917300055163
  C   -1.18210496899602      0.91103408194518     -1.04438191999087
  H   -1.77195192640957      1.68133098572485     -0.54036400652885
  H   -0.36399954953125      1.38937020707318     -1.58022630695440
  H   -1.83980805793409      0.44106659186179     -1.77800186313553
  N   -1.70500596292116     -0.90669117464459      0.52804668837486
  O   -1.40558448617714     -1.83725294910081      1.29902468484696
  O   -2.87445768870901     -0.62153834664550      0.24996583806868
