16
Coordinates from ORCA-job run
  C   0.66658724379523     -0.02844150834297      0.13475521095830
  C   -0.65401070896620      0.08706778744037     -0.17728651408682
  N   1.17354486013644      0.72857089428398      1.17292056357638
  H   0.51957908419512      1.07481332099077      1.85611730473106
  H   2.03572351904820      0.39908763880912      1.57392151587870
  C   1.69372280238716     -0.84789466220462     -0.59323382229084
  H   1.97649613866940     -0.36246760192975     -1.52812940904703
  H   1.31202623686056     -1.83236201442567     -0.85630138736135
  H   2.58706724776274     -0.96414954841915      0.02534968395179
  C   -1.60469764499092      0.93257568883656      0.61281422834436
  H   -1.82430471507025      0.49979183071999      1.59565842516141
  H   -2.55118922858917      1.02766432384235      0.08582269837847
  H   -1.19055439072595      1.93469553495621      0.75988185590400
  N   -1.22108773324598     -0.67908941696565     -1.26412703332932
  O   -0.48464145983107     -1.07651474558868     -2.17330596078625
  O   -2.43626125143531     -0.89534752200287     -1.22385735998283
