16

C	0.0	0.0	0.0
C	-0.516071	-0.153325	-1.431604
Br	1.920897	0.0	0.0
H	-1.544596	-0.49384	-1.238173
H	-0.388361	0.886205	0.485144
N	-0.428338	-1.140739	0.879834
O	-0.514186	-2.253593	0.367965
O	-0.570458	-0.898378	2.071139
N	0.32293	-1.038775	-2.258317
H	-0.182052	-1.152427	-3.13232
H	0.308001	-1.950898	-1.812312
C	-0.614704	1.22633	-2.057799
H	-0.920347	1.141446	-3.106488
H	-1.395816	1.76418	-1.518106
H	0.33657	1.768875	-2.027729
F	-2.618958	0.0	0.0
