16

C	0.0	0.0	0.0
C	-0.432437	-0.081043	-1.501827
Br	1.933019	0.0	0.0
H	0.488047	-0.06605	-2.094355
H	-0.340267	0.928057	0.439347
N	-0.414346	-1.066029	0.970656
O	-0.45422	-2.234128	0.606585
O	-0.582444	-0.681379	2.123309
N	-1.146248	1.182324	-1.727073
H	-1.968846	1.015987	-1.108935
H	-1.477472	1.178716	-2.687165
C	-1.23263	-1.310818	-1.945484
H	-1.385273	-1.214835	-3.027816
H	-0.727118	-2.256954	-1.753881
H	-2.179815	-1.26173	-1.409957
F	-2.611513	0.0	0.0
