16

C	0.0	0.0	0.0
C	-0.495333	0.143798	-1.439834
Br	1.929142	0.0	0.0
H	-1.534899	-0.196974	-1.329387
H	-0.388064	0.770523	0.653213
N	-0.434323	-1.295487	0.623084
O	-0.564979	-1.308215	1.83964
O	-0.535702	-2.275807	-0.109119
N	0.331165	-0.594289	-2.411769
H	0.260511	-1.576255	-2.164906
H	-0.143288	-0.49657	-3.30477
C	-0.529559	1.618917	-1.797789
H	-1.266787	2.098196	-1.151656
H	0.453775	2.091803	-1.698073
H	-0.859215	1.741923	-2.836217
F	-2.593364	0.0	0.0
