16

C	0.0	0.0	0.0
C	-0.458709	-0.149682	-1.486787
Br	1.921781	0.0	0.0
H	0.451231	-0.104753	-2.095164
H	-0.337078	0.954056	0.387352
N	-0.435295	-1.005115	1.025404
O	-0.457113	-2.192337	0.727399
O	-0.648338	-0.55824	2.147026
N	-1.235945	1.064942	-1.760739
H	-2.069555	0.889739	-1.150822
H	-1.528342	1.012728	-2.731559
C	-1.18562	-1.44739	-1.845655
H	-0.560566	-2.332132	-1.717016
H	-1.46403	-1.369867	-2.904234
H	-2.080704	-1.500352	-1.230544
F	-2.704539	0.0	0.0
