16

C	0.0	0.0	0.0
C	-0.491368	-0.159498	-1.460193
Br	1.924992	0.0	0.0
H	-1.534144	-0.456025	-1.278037
H	-0.377742	0.893418	0.480424
N	-0.43062	-1.135831	0.882757
O	-0.57207	-0.889223	2.074364
O	-0.518072	-2.251135	0.375838
N	0.195181	-1.123162	-2.305492
H	0.109346	-2.030931	-1.864921
H	1.18434	-0.907052	-2.365769
C	-0.520665	1.221535	-2.091747
H	-0.791793	1.124756	-3.145096
H	0.443882	1.741506	-2.032593
H	-1.287306	1.801719	-1.575209
F	-2.56452	0.0	0.0
