8
Coordinates from ORCA-job run
  C   -0.41559892354453      0.25648902958093      0.14883345188518
  C   0.41560861933137     -0.25649044774240     -0.78382981545797
  H   -0.02694476515479      0.70217012218872      1.05982547613456
  H   0.02689876330071     -0.70205576395792     -1.69490156224673
  C   -1.83209518903182      0.23473470030449     -0.02518567397028
  N   -3.00119454267324      0.22284862616041     -0.15747474521260
  C   1.83211999662885     -0.23483131510007     -0.60983483056124
  N   3.00120604114345     -0.22286495143416     -0.47743230057093
