8
Coordinates from ORCA-job run
  C   -0.73553548824078     -0.44106930319566     -0.02170624541540
  C   0.52218107026570     -0.73572010202600     -0.41741862721165
  H   -1.40285226584566     -1.23920895215139      0.28758889041711
  H   0.85522029246886     -1.76879488481415     -0.42228711991674
  C   -1.24826708261833      0.89026298932042      0.01343843703793
  N   -1.69048072456689      1.98022041115403      0.05180813516972
  C   1.45722168255786      0.25622757326688     -0.83924815016963
  N   2.24351251597924      1.05808226844588     -1.19117531991133
