8
Coordinates from ORCA-job run
  C   0.47346164192619     -0.21477029511331     -0.74813994263185
  C   -0.47352721833839      0.21481198034397      0.11362632404793
  H   0.20703026270115     -0.57679170268633     -1.73691502622822
  H   -0.20724666306351      0.57660194964228      1.10234268032978
  C   1.85668430342441     -0.21011008550263     -0.39614157415719
  N   3.00008423299914     -0.21172968887483     -0.11840646268500
  C   -1.85668154183305      0.21016677878496     -0.23873901704629
  N   -2.99980501781593      0.21182106340589     -0.51762698162917
