8
Coordinates from ORCA-job run
  C   0.58734145588432     -0.69011773739881     -0.27255434875727
  C   -0.66593708173109     -0.40910965743435      0.14652610886102
  H   1.02762350673705     -1.65542538880844     -0.04365758253812
  H   -1.22409427428142     -1.15053148211841      0.70951489666027
  C   1.38364243027097      0.23218665578496     -1.01539735362818
  N   2.05651441656347      0.97782058073841     -1.62882690573723
  C   -1.31036649389195      0.83704145915179     -0.11485215679435
  N   -1.85572395955134      1.85913557008484     -0.32175265806614
