8
Coordinates from ORCA-job run
  C   -0.69064849224585     -0.42869842221698      0.08563705737864
  C   0.58227804423663     -0.69534224746108     -0.28004569666020
  H   -1.28215790040259     -1.19716700748538      0.57319606458131
  H   1.00405054789666     -1.67590556316510     -0.08322155649663
  C   -1.31596240982968      0.83428698993085     -0.13839415825877
  N   -1.85129171691467      1.86757711908133     -0.31391993590467
  C   1.42236457407604      0.26092093289470     -0.92508763133148
  N   2.13136735318346      1.03432819842168     -1.45816414330821
