8
Coordinates from ORCA-job run
  C   -0.68851953883460     -0.42503723222220      0.09237893579453
  C   0.59325104004762     -0.68311480032927     -0.24731855423312
  H   -1.27340742192770     -1.18505978812066      0.60083497112413
  H   1.02852325067192     -1.64855906672013     -0.00943913984967
  C   -1.33190990925944      0.81814443057355     -0.18472531560555
  N   -1.88358936300199      1.83412492414740     -0.40498973913238
  C   1.42634254007919      0.26263003520091     -0.91657231246498
  N   2.13030940222501      1.02687149747040     -1.46916884563295
