8
Coordinates from ORCA-job run
  C   0.60064393121167     -0.67597471743753     -0.24239187268546
  C   -0.68663173983035     -0.43347299830958      0.08781215028638
  H   1.04684375340767     -1.63497894955385      0.00083315123426
  H   -1.26513532843091     -1.19927805174346      0.59483889088275
  C   1.42599985211350      0.27890948360776     -0.90831331553636
  N   2.12418677217074      1.05125576629077     -1.45694246332733
  C   -1.34286676298045      0.80152004342139     -0.19604331063620
  N   -1.90304047766187      1.81201942372450     -0.41979323021804
