8
Coordinates from ORCA-job run
  C   -0.48874337432365      0.18838275020367      0.10815577308500
  C   0.48845039980614     -0.18891156763025     -0.74428032517669
  H   -0.25466248428989      0.51432589876324      1.11746695171894
  H   0.25558310412662     -0.51507436982980     -1.75363678799143
  C   -1.86196877378390      0.17361776760339     -0.28054781866666
  N   -2.99763179035482      0.16500799035546     -0.58852529580050
  C   1.86137095431039     -0.17327831435617     -0.35442406012676
  N   2.99660196450912     -0.16407015510954     -0.04520843704191
