8
Coordinates from ORCA-job run
  C   0.56022476063058     -0.71456305560191     -0.33427019713173
  C   -0.66731788512207     -0.40955588226993      0.14023768897819
  H   0.96382989238321     -1.71042614265441     -0.18134250980029
  H   -1.24119131976193     -1.16259258745272      0.67098492660407
  C   1.37429321698104      0.22006928765702     -1.04148587143654
  N   2.06016913999171      0.97519532416650     -1.62840789583964
  C   -1.26667075866106      0.87535772439214     -0.02169026423558
  N   -1.78133704644149      1.92651533176332     -0.14502587713847
