8
Coordinates from ORCA-job run
  C   0.51490890668387     -0.73244995745979     -0.46398019008122
  C   -0.71822391317539     -0.44821840880373      0.00895573359525
  H   0.84721388991441     -1.76471187893715     -0.51188507585453
  H   -1.36681756821733     -1.25440011939754      0.33678444571944
  C   1.42604861853620      0.26951663920189     -0.91369701937315
  N   2.19211809321832      1.07997898230165     -1.28969489411729
  C   -1.22815961559265      0.88111079546692      0.10318012514131
  N   -1.66808841136744      1.96917394762774      0.19033687497020
