19

C	0.0	0.0	0.0
C	-0.344379	-0.017749	-1.49963
F	1.407877	0.0	0.0
H	-1.407898	-0.118018	-1.700844
N	-0.289206	1.26417	0.639505
H	-1.248826	1.542528	0.471781
H	-0.217969	1.107644	1.638209
C	-0.2923	-1.267973	0.78372
H	0.17897	-2.095345	0.25241
H	-1.329271	-1.510801	0.973403
H	0.24084	-1.175407	1.738996
N	0.280532	-1.22288	-2.089238
H	-0.075281	-1.328223	-3.032057
H	1.285749	-1.089288	-2.152642
C	0.123019	1.277533	-2.186595
H	1.204872	1.408206	-2.093556
H	-0.365049	2.15265	-1.757102
H	-0.134277	1.227913	-3.251775
Cl	-3.267227	0.0	0.0
