19

C	0.0	0.0	0.0
C	-0.397471	0.161837	-1.473141
F	1.440566	0.0	0.0
H	0.294826	-0.483752	-2.027784
N	-0.48398	1.090063	0.749459
H	-0.157352	1.946102	0.318925
H	-0.198494	1.03431	1.717437
C	-0.404908	-1.321284	0.614566
H	-0.041818	-2.150413	0.002954
H	-1.488639	-1.381295	0.715632
H	0.052686	-1.4071	1.604336
N	-0.150945	1.563847	-1.862383
H	0.463388	1.602713	-2.663348
H	-1.030008	1.99331	-2.123431
C	-1.834781	-0.262047	-1.748402
H	-1.973901	-1.337469	-1.622985
H	-2.556633	0.221332	-1.084471
H	-2.094174	-0.017977	-2.783672
Cl	-5.108838	0.0	0.0
