19

C	0.0	0.0	0.0
C	-0.407935	-0.072989	-1.480241
F	1.410324	0.0	0.0
H	-1.48889	-0.241202	-1.469218
N	-0.450833	1.16807	0.703805
H	-0.289095	1.993566	0.140307
H	-1.461693	1.06337	0.807388
C	-0.437456	-1.232678	0.761328
H	-1.526897	-1.286858	0.766834
H	-0.066996	-1.150434	1.785367
H	-0.02839	-2.120355	0.28189
N	0.239718	-1.241585	-2.088083
H	1.232997	-1.049272	-2.163634
H	-0.123494	-1.363802	-3.026761
C	-0.111551	1.228091	-2.232182
H	-0.279742	1.077664	-3.302829
H	0.933078	1.526283	-2.089256
H	-0.765937	2.044915	-1.918795
Cl	-3.766287	0.0	0.0
