19

C	0.0	0.0	0.0
C	-0.523464	0.058577	-1.444574
F	1.392728	0.0	0.0
H	-1.494649	0.558378	-1.378675
N	-0.408203	1.232983	0.640846
H	-0.119537	1.194283	1.61408
H	-1.42845	1.240099	0.632595
C	-0.409045	-1.253205	0.751022
H	-1.497873	-1.296461	0.810532
H	-0.021117	-2.13729	0.243986
H	0.008255	-1.205813	1.762092
N	-0.682771	-1.291491	-2.007835
H	-1.551094	-1.658421	-1.624222
H	-0.855139	-1.180747	-3.002756
C	0.413742	0.87735	-2.316939
H	-0.056553	1.084376	-3.284526
H	1.34246	0.328286	-2.487435
H	0.644944	1.825637	-1.831041
Cl	-3.722814	0.0	0.0
