19

C	0.0	0.0	0.0
C	-0.276156	-0.095356	-1.526084
F	1.414028	0.0	0.0
H	0.454942	-0.844494	-1.854616
N	-0.471541	1.239993	0.54596
H	-0.418499	1.200103	1.55891
H	-1.462232	1.313331	0.315818
C	-0.436027	-1.230385	0.766868
H	-0.026189	-1.189528	1.781685
H	-1.526835	-1.253921	0.819013
H	-0.070489	-2.141224	0.284546
N	0.056814	1.148802	-2.226439
H	-0.69802	1.804385	-2.054749
H	0.871277	1.549348	-1.771914
C	-1.65218	-0.560966	-1.956774
H	-2.4582	0.07839	-1.598265
H	-1.879692	-1.560457	-1.584056
H	-1.670535	-0.582594	-3.050015
Cl	-4.337778	0.0	0.0
