14

C	0.0	0.0	0.0
C	-0.579104	0.091216	-1.40697
Cl	1.773721	0.0	0.0
H	-1.654168	0.303537	-1.200578
H	-0.289402	-0.985651	0.38417
N	-0.511262	1.113811	0.751997
H	-1.538516	0.974842	0.702716
H	-0.238084	1.00464	1.7233
N	-0.430065	-1.197085	-2.103193
H	-1.228621	-1.748802	-1.791849
H	-0.565904	-1.042862	-3.0971
C	0.003181	1.178426	-2.181904
N	0.416842	2.036094	-2.870226
H	-3.021665	0.0	0.0
