14

C	0.0	0.0	0.0
C	-0.534687	0.005675	-1.430921
Cl	1.785817	0.0	0.0
H	-1.635679	0.069453	-1.25045
H	-0.282939	-0.971498	0.426877
N	-0.528823	1.138217	0.686876
H	-1.557889	0.985634	0.605599
H	-0.294575	1.066842	1.672521
N	-0.266979	-1.200485	-2.203585
H	0.687669	-1.502078	-2.042114
H	-0.890125	-1.920214	-1.854447
C	-0.089197	1.189512	-2.165453
N	0.241584	2.128725	-2.788201
H	-2.981094	0.0	0.0
