14

C	0.0	0.0	0.0
C	-0.367693	0.115929	-1.524545
Cl	1.787616	0.0	0.0
H	0.43995	0.672289	-2.013714
H	-0.311711	-0.971102	0.382148
N	-0.556473	1.014439	0.830268
H	-1.550089	0.756187	0.928356
H	-0.563308	1.885233	0.309393
N	-1.601948	0.850012	-1.703663
H	-1.910899	0.761053	-2.667233
H	-2.360833	0.458105	-1.071989
C	-0.319844	-1.239435	-2.122013
N	-0.293984	-2.297335	-2.635869
H	-3.313517	0.0	0.0
