14

C	0.0	0.0	0.0
C	-0.336982	-0.139144	-1.52774
Cl	1.821227	0.0	0.0
H	0.428579	0.449521	-2.043374
H	-0.274671	-0.907168	0.546054
N	-0.561963	1.215812	0.498435
H	-0.328784	1.299728	1.482921
H	-1.582118	1.037957	0.452745
N	-1.629809	0.302248	-1.999514
H	-1.61308	1.317208	-1.983013
H	-2.365884	0.041222	-1.300633
C	-0.10499	-1.541682	-1.91877
N	0.095195	-2.658655	-2.222139
H	-3.233986	0.0	0.0
