15

C	0.0	0.0	0.0
C	-0.559552	0.135565	-1.409953
Cl	1.783294	0.0	0.0
H	-1.65039	0.251113	-1.254972
H	-0.335527	0.845903	0.597911
C	-0.419512	-1.253463	0.626928
N	-0.629621	-2.266833	1.181687
C	-0.256866	-1.016951	-2.33613
H	-0.721884	-0.845467	-3.305489
H	-0.686032	-1.92344	-1.905251
H	0.816507	-1.153047	-2.481815
N	-0.087564	1.444063	-1.966569
O	0.207914	1.497519	-3.16044
O	-0.071698	2.405735	-1.200029
Br	-3.586628	0.0	0.0
