15

C	0.0	0.0	0.0
C	-0.521363	0.142929	-1.426725
Cl	1.783273	0.0	0.0
H	-1.61102	0.279914	-1.304548
H	-0.343513	0.848102	0.590231
C	-0.430338	-1.25319	0.617255
N	-0.622761	-2.284236	1.145944
C	-0.200873	-1.014121	-2.340407
H	-0.606578	-0.828889	-3.333567
H	0.87451	-1.176624	-2.429716
H	-0.674052	-1.910639	-1.935646
N	0.003124	1.442062	-1.960764
O	0.435671	1.472085	-3.112654
O	-0.064563	2.417349	-1.215335
Br	-3.530753	0.0	0.0
