15

C	0.0	0.0	0.0
C	-0.513401	0.157364	-1.428332
Cl	1.783133	0.0	0.0
H	-1.603761	0.290901	-1.313286
H	-0.347032	0.843163	0.594892
C	-0.433851	-1.257162	0.606883
N	-0.625869	-2.295575	1.121458
C	-0.181615	-0.986932	-2.354365
H	-0.648306	-1.892105	-1.961834
H	0.895424	-1.139506	-2.441892
H	-0.584765	-0.793347	-3.346897
N	0.011376	1.464826	-1.945204
O	0.433162	1.512964	-3.100415
O	-0.046752	2.428257	-1.183635
Br	-3.536031	0.0	0.0
