15

C	0.0	0.0	0.0
C	-0.509775	0.661184	-1.307237
Br	2.023391	0.0	0.0
H	-0.784055	1.68851	-1.049418
H	0.322551	0.705096	-2.009427
N	-0.250654	0.925401	1.232042
O	-0.483773	0.362449	2.295351
O	-0.149448	2.133893	1.071355
N	-0.495996	-1.259225	0.203102
H	-0.660858	-1.475625	1.174839
H	-1.276405	-1.439735	-0.423281
N	-1.577294	-0.128669	-1.885808
H	-2.477008	0.061347	-1.433933
H	-1.644406	0.042499	-2.878106
Cl	-4.131169	0.0	0.0
