15

C	0.0	0.0	0.0
C	-0.469447	0.305974	-1.425601
Br	2.011301	0.0	0.0
H	0.289486	0.927172	-1.900389
H	-0.484319	-0.667583	-1.945343
N	-0.230142	1.307128	0.84782
O	0.192651	2.356709	0.395536
O	-0.796549	1.156008	1.924533
N	-0.595264	-1.118551	0.562621
H	-0.542884	-1.087515	1.572878
H	-1.580837	-1.1455	0.298002
N	-1.701089	1.053499	-1.38416
H	-2.527688	0.54441	-1.067332
H	-1.893032	1.471977	-2.281858
Cl	-4.341411	0.0	0.0
