15

C	0.0	0.0	0.0
C	-0.47994	-0.062084	-1.432283
Br	2.07049	0.0	0.0
H	0.03797	0.690167	-2.030588
H	-1.544605	0.183219	-1.350272
N	-0.253508	1.39419	0.585544
O	-0.207708	2.339899	-0.191204
O	-0.446854	1.462945	1.793512
N	-0.487168	-0.995616	0.810615
H	-0.879819	-0.637156	1.668215
H	-1.132696	-1.584852	0.300932
N	-0.358055	-1.432891	-1.910861
H	0.583308	-1.601782	-2.244121
H	-1.007625	-1.580382	-2.670823
Cl	-3.620458	0.0	0.0
