15

C	0.0	0.0	0.0
C	-0.500814	0.140458	-1.423359
Br	2.042966	0.0	0.0
H	0.014712	0.968477	-1.912649
H	-1.567574	0.371074	-1.31323
N	-0.246904	1.270369	0.810416
O	-0.292013	1.142351	2.027077
O	-0.340958	2.321638	0.189489
N	-0.53566	-1.063254	0.630883
H	-0.784665	-1.842262	0.045838
H	-0.426275	-1.169862	1.62128
N	-0.357257	-1.15149	-2.088915
H	0.517888	-1.19557	-2.593487
H	-1.121986	-1.281978	-2.734927
Cl	-3.824457	0.0	0.0
