15

C	0.0	0.0	0.0
C	-0.470205	0.20109	-1.43089
Br	1.934854	0.0	0.0
H	0.011965	1.090792	-1.83535
H	-1.550624	0.365487	-1.370275
N	-0.336284	1.275079	0.832017
O	-0.391044	2.347789	0.244767
O	-0.477257	1.106896	2.037418
N	-0.537721	-1.163551	0.566489
H	-1.562791	-1.053103	0.534129
H	-0.237041	-1.26713	1.527395
N	-0.079639	-0.973884	-2.219328
H	-0.33388	-1.791471	-1.67478
H	-0.657358	-0.987285	-3.051687
Cl	-3.567087	0.0	0.0
