15
Coordinates from ORCA-job run
  C   0.30491487821615      0.25596955452489     -0.35430872826711
  C   -0.58329313713477     -0.88920572678755      0.11982508001037
  H   0.35847145903088      0.20263602769672     -1.45182445958206
  H   -0.44394451638379     -1.01356230714549      1.20189965374914
  H   -0.21974539637185     -1.81163289150308     -0.35814041974327
  C   1.71862717717267      0.08473593830280      0.19696944932285
  H   2.14908029886926     -0.88080237217894     -0.08710714393952
  H   1.70785362648470      0.15254769747657      1.28882262065898
  H   2.37981585885366      0.86807772557477     -0.18488985357761
  N   -0.31822387858351      1.53443228527253     -0.01338912962082
  H   -0.80077615340414      1.46408057461421      0.87378870692131
  H   0.38123316147230      2.26348646241704      0.05230094156835
  N   -1.99608507892639     -0.60403601128789     -0.12743094916475
  H   -2.53328751569643     -1.46145592123627     -0.12227718903158
  H   -2.10364078359875     -0.16727103574032     -1.03423857930428
