15
Coordinates from ORCA-job run
  C   0.24581678388287      0.43485860153833     -0.23719853997899
  C   -1.01117957261956     -0.37498577235657      0.05901184575088
  H   0.47585721082319      0.31318100304343     -1.31162106564810
  H   -1.87567243130464      0.13061382098767     -0.40235366823625
  H   -1.17234047998573     -0.35674857896516      1.14070337963731
  C   1.42988974548256     -0.07452709534729      0.56498374140053
  H   1.24454978544381      0.09451189811369      1.62919425583062
  H   1.57161513366865     -1.14083965743785      0.39147536888960
  H   2.34893435289281      0.45255446933382      0.29015511628429
  N   -0.02019845520899      1.82882719537746      0.12409768703110
  H   -0.71108771386149      2.22339252811213     -0.50478845237483
  H   0.82657438651430      2.37517254123597      0.01508608533821
  N   -0.84654385235019     -1.76306246408939     -0.37278369141758
  H   -1.59802678941349     -2.33081546659101     -0.00212630711722
  H   -0.90718810396410     -1.81313302295521     -1.38283575538957
