15
Coordinates from ORCA-job run
  C   0.29954760406585      0.24681753106927     -0.31722605609055
  C   -0.58375980116954     -0.94662332906868      0.01854009740285
  H   0.34422811038383      0.30660383555249     -1.41012191906331
  H   -0.69057250212889     -0.99010525240512      1.11800963460727
  H   -0.08032008098315     -1.86746678146254     -0.29356100405405
  C   1.70899443172131      0.08272827457148      0.24436191994599
  H   2.20178761952689     -0.80539365104742     -0.16177593569167
  H   1.67691745112102     -0.01672397741999      1.33456234678933
  H   2.32674378253019      0.95228994547573      0.00420264270031
  N   -0.38946920932021      1.45905465828019      0.14336080639958
  H   -0.27864528126506      1.54208713897357      1.14928961566422
  H   0.03558149674398      2.27997325030984     -0.27113422534632
  N   -1.84666237016737     -0.82370882964408     -0.69966081557248
  H   -2.21758258738473      0.09601786612954     -0.48980014419101
  H   -2.50878866367413     -1.51455067931429     -0.36904696350015
