15
Coordinates from ORCA-job run
  C   0.36661482517048      0.37083577448221     -0.34989525066880
  C   -0.99206413002668     -0.25718512168291     -0.02752225583670
  H   0.64839155809711      0.05918043112031     -1.36544745265700
  H   -1.75083451936384      0.20792816690821     -0.67942561101726
  H   -1.25312007217351      0.00632966656066      1.00443306823383
  C   1.43919323597285     -0.10189081936501      0.61649711509919
  H   1.49441737663333     -1.18976427117081      0.62902909087861
  H   2.40751683362085      0.31771346452766      0.33873445618730
  H   1.20086785417732      0.23448476876142      1.63214390038761
  N   0.33672500664611      1.83426687788174     -0.35629631570011
  H   0.09123171250721      2.16526609447535      0.57125012571449
  H   -0.38221573865966      2.16530264129738     -0.99064951315054
  N   -0.94288286334643     -1.71523640704516     -0.13016836212674
  H   -0.85915565711950     -1.97957938674971     -1.10491702498691
  H   -1.80568542213563     -2.11865188000135      0.21323402964304
