18

C	0.0	0.0	0.0
C	-0.279257	0.11234	-1.534411
F	1.361682	0.0	0.0
H	0.621634	-0.381742	-1.911115
C	-0.468333	1.085011	0.860828
N	-0.608868	2.048954	1.518775
N	-0.340505	-1.345022	0.624853
O	-0.502032	-1.369441	1.837917
O	-0.254698	-2.315687	-0.118167
C	-0.190737	1.593263	-1.905577
H	0.701805	2.072996	-1.494703
H	-1.076494	2.117863	-1.541188
H	-0.158104	1.687139	-2.995269
C	-1.439463	-0.547105	-2.275064
H	-1.718124	-1.504537	-1.848681
H	-2.326551	0.074565	-2.281679
H	-1.089891	-0.705735	-3.305045
Cl	-3.279134	0.0	0.0
