18

C	0.0	0.0	0.0
C	-0.329458	0.084343	-1.526312
F	1.361782	0.0	0.0
H	0.642438	-0.210867	-1.935427
C	-0.464185	1.099943	0.848119
N	-0.560074	2.06826	1.507882
N	-0.32366	-1.33112	0.671399
O	-0.685214	-1.313898	1.839561
O	-0.041744	-2.325892	0.01084
C	-0.573933	1.54593	-1.902194
H	0.214591	2.208224	-1.533018
H	-1.534779	1.864028	-1.49362
H	-0.608659	1.632419	-2.992101
C	-1.35345	-0.819709	-2.219458
H	-1.454474	-1.789526	-1.741043
H	-2.335835	-0.362792	-2.241611
H	-0.987725	-0.97664	-3.242644
Cl	-3.252303	0.0	0.0
