18

C	0.0	0.0	0.0
C	-0.62867	0.378185	-1.325034
F	1.356177	0.0	0.0
H	-1.710904	0.299833	-1.131957
C	-0.422338	0.891094	1.096111
N	-0.608637	1.676719	1.949466
N	-0.351947	-1.441328	0.422292
O	-1.079299	-1.605117	1.389989
O	0.189509	-2.314315	-0.249379
C	-0.229533	-0.543634	-2.475545
H	-0.64285	-1.543893	-2.359162
H	0.856455	-0.626039	-2.571886
H	-0.627489	-0.122433	-3.402644
C	-0.282702	1.834249	-1.640156
H	0.796358	1.974759	-1.755526
H	-0.766677	2.116799	-2.577704
H	-0.649443	2.511358	-0.866186
Cl	-3.749521	0.0	0.0
