18

C	0.0	0.0	0.0
C	-0.459894	0.019028	-1.452144
F	1.36995	0.0	0.0
H	0.129718	0.865196	-1.833936
C	-0.432259	1.191416	0.745042
N	-0.689731	2.196098	1.295991
N	-0.400071	-1.22088	0.829829
O	-0.016367	-1.191922	1.994696
O	-1.007561	-2.127866	0.277888
C	-1.935463	0.345543	-1.633385
H	-2.157807	0.366724	-2.70413
H	-2.610307	-0.367137	-1.159664
H	-2.195556	1.321822	-1.221988
C	-0.025797	-1.227733	-2.230401
H	-0.771549	-2.015859	-2.145626
H	0.074901	-0.960344	-3.285668
H	0.938082	-1.615129	-1.891273
Cl	-4.920623	0.0	0.0
