18

C	0.0	0.0	0.0
C	-0.492081	-0.050945	-1.439326
F	1.382387	0.0	0.0
H	-1.584638	-0.033496	-1.364121
C	-0.432656	1.216438	0.705343
N	-0.606373	2.261097	1.213389
N	-0.348368	-1.198422	0.889026
O	-0.576574	-0.961122	2.068094
O	-0.242475	-2.308128	0.383209
C	-0.02569	-1.280082	-2.221899
H	-0.576352	-2.173562	-1.940432
H	-0.198171	-1.091722	-3.285351
H	1.042056	-1.468878	-2.081151
C	0.000914	1.222661	-2.137393
H	-0.34747	2.128769	-1.639079
H	1.093699	1.246023	-2.187481
H	-0.38668	1.237007	-3.158394
Cl	-3.459069	0.0	0.0
