18

C	0.0	0.0	0.0
C	-0.63901	0.38301	-1.31731
F	1.356126	0.0	0.0
H	-1.720508	0.31654	-1.112876
C	-0.40993	0.891037	1.103111
N	-0.603305	1.67342	1.956814
N	-0.349588	-1.440102	0.425614
O	-1.069928	-1.600855	1.399302
O	0.187682	-2.317645	-0.244529
C	-0.268265	-0.543544	-2.47123
H	0.815227	-0.648819	-2.577129
H	-0.666728	-0.113731	-3.393889
H	-0.701972	-1.534585	-2.351476
C	-0.282229	1.835532	-1.637403
H	-0.792086	2.127201	-2.558468
H	-0.613706	2.51503	-0.850206
H	0.795145	1.960624	-1.785962
Cl	-3.750446	0.0	0.0
