18

C	0.0	0.0	0.0
C	-0.593078	-0.072695	-1.402183
F	1.362437	0.0	0.0
H	-0.558534	0.962675	-1.764724
C	-0.451576	1.185941	0.739977
N	-0.708632	2.201126	1.271788
N	-0.365245	-1.245852	0.818098
O	0.065152	-2.30081	0.365094
O	-1.013028	-1.095649	1.846339
C	-2.053637	-0.518229	-1.341946
H	-2.513005	-0.36717	-2.319901
H	-2.691267	0.015099	-0.62978
H	-2.122661	-1.582994	-1.105651
C	0.239531	-0.931541	-2.352688
H	1.281291	-0.609447	-2.390777
H	-0.185887	-0.836098	-3.354659
H	0.207884	-1.981919	-2.065723
Cl	-5.222997	0.0	0.0
