18

C	0.0	0.0	0.0
C	-0.504005	-0.143366	-1.430646
F	1.3648	0.0	0.0
H	-1.53279	-0.498575	-1.340733
C	-0.42865	1.227305	0.686741
N	-0.560449	2.27971	1.191896
N	-0.363167	-1.187319	0.902504
O	-0.550034	-2.270628	0.36598
O	-0.316586	-0.972919	2.109043
C	0.351661	-1.112076	-2.247075
H	1.366454	-0.731603	-2.390855
H	-0.109374	-1.223604	-3.232302
H	0.403511	-2.097462	-1.787598
C	-0.534929	1.234484	-2.092943
H	0.436172	1.737596	-2.021838
H	-0.777865	1.118704	-3.152284
H	-1.302734	1.860099	-1.637176
Cl	-3.392788	0.0	0.0
