19

C	0.0	0.0	0.0
C	-0.495491	0.025292	-1.445359
Br	1.985702	0.0	0.0
H	-1.588341	0.11557	-1.290754
C	-0.404198	1.278165	0.720929
H	-0.061901	1.247549	1.760246
H	-1.502543	1.285849	0.696677
H	-0.0075	2.163144	0.22537
N	-0.522683	-1.18646	0.621221
H	-0.356176	-1.114443	1.621995
H	-1.552883	-1.069931	0.500992
C	-0.20709	-1.263377	-2.208325
H	0.871289	-1.384672	-2.365216
H	-0.577868	-2.133979	-1.665787
H	-0.696338	-1.22042	-3.187829
N	-0.034513	1.232874	-2.136184
H	0.917755	1.082487	-2.460702
H	-0.616922	1.365403	-2.95599
H	-3.18345	0.0	0.0
