19

C	0.0	0.0	0.0
C	-0.546395	-0.0294	-1.430438
Br	1.96806	0.0	0.0
H	-1.624484	-0.193453	-1.240326
C	-0.427754	1.274905	0.711969
H	-0.100769	1.246305	1.755905
H	-1.526128	1.27957	0.675377
H	-0.010423	2.163089	0.234992
N	-0.491013	-1.196856	0.647545
H	-1.521012	-1.094026	0.591882
H	-0.244899	-1.153746	1.632451
C	0.012781	-1.164961	-2.266539
H	0.045632	-2.080921	-1.676782
H	1.023034	-0.924631	-2.610886
H	-0.62655	-1.332014	-3.14128
N	-0.338808	1.257174	-2.111685
H	-0.445365	1.095305	-3.108021
H	-1.110598	1.862225	-1.846449
H	-3.239161	0.0	0.0
