19

C	0.0	0.0	0.0
C	-0.532066	-0.024421	-1.442693
Br	1.970156	0.0	0.0
H	-1.609908	-0.188567	-1.252971
C	-0.451857	1.272925	0.689299
H	-1.548488	1.278021	0.624381
H	-0.02646	2.155125	0.21106
H	-0.150964	1.239741	1.737483
N	-0.489131	-1.107902	0.789037
H	-0.316907	-1.975918	0.293221
H	-1.516214	-0.970263	0.792928
C	0.026822	-1.137958	-2.309334
H	0.019274	-2.101718	-1.798045
H	1.053751	-0.911519	-2.606877
H	-0.587985	-1.244316	-3.210447
N	-0.30947	1.261946	-2.116215
H	-1.054408	1.886047	-1.821429
H	-0.45045	1.119466	-3.109659
H	-3.218643	0.0	0.0
