19

C	0.0	0.0	0.0
C	-0.477908	0.002997	-1.471023
Br	1.985078	0.0	0.0
H	-1.574	0.017095	-1.321508
C	-0.43631	1.270451	0.706078
H	-1.534367	1.284625	0.634467
H	-0.002478	2.164815	0.256996
H	-0.140426	1.215194	1.75509
N	-0.512139	-1.101072	0.76741
H	-0.342162	-1.967828	0.269276
H	-1.540975	-0.938253	0.74595
C	-0.102584	-1.240279	-2.264119
H	-0.573733	-1.166566	-3.24629
H	-0.455334	-2.158689	-1.78964
H	0.980302	-1.311112	-2.405856
N	-0.112885	1.182494	-2.256076
H	0.878741	1.368681	-2.131526
H	-0.619972	1.980987	-1.894347
H	-3.161263	0.0	0.0
