19

C	0.0	0.0	0.0
C	-0.33548	-0.058182	-1.542148
Br	1.991279	0.0	0.0
H	0.393831	-0.757337	-1.971939
C	-0.505876	1.244464	0.696808
H	-0.087848	2.154912	0.268615
H	-1.600514	1.240554	0.595083
H	-0.24732	1.190531	1.756501
N	-0.46254	-1.140763	0.742223
H	-1.480476	-1.020036	0.810458
H	-0.294505	-1.984925	0.202738
C	-0.163903	1.295836	-2.224521
H	-0.236725	1.149442	-3.304356
H	0.793002	1.769115	-1.99038
H	-0.978787	1.961145	-1.928162
N	-1.655444	-0.566744	-1.868789
H	-1.683928	-1.563652	-1.681407
H	-2.389874	-0.180628	-1.236509
H	-3.476278	0.0	0.0
