12
Coordinates from ORCA-job run
  C   1.09480402937047      0.31404070225892     -0.23682828945312
  C   -0.36803021472750      0.29031539172664     -0.67826557527045
  Cl  1.39285977501513      1.61611510005362      0.95876833137610
  H   -0.43862783943986     -0.42551155766178     -1.50487550581159
  H   1.74014609311171      0.54065307749387     -1.08809000841606
  H   -0.60152547959273      1.27874698517570     -1.08398031238203
  C   1.50843820035814     -0.96827590339321      0.32913119186751
  N   1.80916698797139     -2.01961320017811      0.75680726652483
  C   -1.34349461541958     -0.08459969165326      0.42911294258103
  H   -1.13285863340419     -1.08216157702105      0.82020802167591
  H   -1.29630388888620      0.62543154557250      1.25565507749235
  H   -2.36457441435679     -0.08414087237383      0.04335685981551
