15

C	-0.419603	-0.071354	-1.453252
C	0.0	0.0	0.0
Cl	0.312738	-1.44889	-2.287974
H	1.092778	0.0	0.0
H	-0.384686	0.95054	0.384021
C	-1.869821	-0.140785	-1.654542
N	-3.037326	-0.236028	-1.753675
N	0.041747	1.239315	-2.130121
O	-0.616145	2.222197	-1.798173
O	0.995076	1.222302	-2.885138
C	-0.516579	-1.172609	0.817266
H	-1.609686	-1.26367	0.827647
H	-0.170636	-1.047543	1.846199
H	-0.087872	-2.107455	0.450695
F	2.606712	0.0	0.0
