15

C	-0.477217	-0.006412	-1.436006
C	0.0	0.0	0.0
Cl	0.22772	-1.370944	-2.323822
H	1.092523	0.0	0.0
H	-0.349515	-0.945081	0.431279
C	-1.93419	-0.081881	-1.57786
N	-3.103741	-0.197957	-1.616953
N	-0.03342	1.303969	-2.109505
O	-0.841224	2.227742	-2.017953
O	1.076672	1.354924	-2.607086
C	-0.512007	1.188836	0.801936
H	-0.217642	1.03777	1.843466
H	-0.029447	2.110145	0.470809
H	-1.598147	1.329893	0.764501
F	2.602945	0.0	0.0
