15

C	-0.424645	-0.027648	-1.445685
C	0.0	0.0	0.0
Cl	0.313282	1.27876	-2.38768
H	1.093068	0.0	0.0
H	-0.353466	-0.935907	0.447927
C	-0.104727	-1.300023	-2.090664
N	0.144362	-2.323725	-2.610419
N	-1.963403	0.121618	-1.519362
O	-2.444163	1.229429	-1.710817
O	-2.591046	-0.899317	-1.249779
C	-0.517051	1.208146	0.763035
H	-0.028884	1.218447	1.740171
H	-1.602763	1.21085	0.916946
H	-0.239161	2.133832	0.255498
F	2.589364	0.0	0.0
