15

C	-0.424509	0.003677	-1.440836
C	0.0	0.0	0.0
Cl	0.089708	1.49615	-2.254858
H	1.093244	0.0	0.0
H	-0.372806	0.927742	0.44564
C	0.095174	-1.138356	-2.192429
N	0.508644	-2.056	-2.797832
N	-1.96635	-0.051987	-1.525017
O	-2.47118	-1.125632	-1.839061
O	-2.574063	0.946307	-1.162578
C	-0.49515	-1.228691	0.749213
H	-0.134955	-2.143865	0.271447
H	-0.062253	-1.204674	1.752117
H	-1.5858	-1.292969	0.846495
F	2.584658	0.0	0.0
