14

C	0.0	0.0	0.0
C	-0.539045	0.016497	-1.416564
F	1.366376	0.0	0.0
H	-1.642962	0.02247	-1.261639
H	-0.21247	0.92465	-1.922318
N	-0.270982	1.434325	0.61911
O	-0.266029	2.412644	-0.121604
O	-0.375989	1.479504	1.840958
N	-0.561765	-1.004806	0.759401
H	-0.312771	-0.872133	1.732572
H	-1.600569	-0.827729	0.617965
C	-0.082575	-1.150639	-2.154988
N	0.254867	-2.079611	-2.789123
F	-2.804794	0.0	0.0
