14

C	0.0	0.0	0.0
C	-0.332697	0.236116	-1.477734
F	1.367777	0.0	0.0
H	-0.09062	-0.718173	-1.955499
H	0.399667	0.966311	-1.827202
N	-0.303996	1.296136	0.812193
O	-0.40252	1.168063	2.029081
O	-0.326038	2.364504	0.209446
N	-0.543005	-1.139078	0.553989
H	-0.328149	-1.143235	1.545842
H	-1.595453	-0.911408	0.411943
C	-1.636058	0.685828	-1.967397
N	-2.447175	1.124925	-2.697926
F	-2.659431	0.0	0.0
