14

C	0.0	0.0	0.0
C	-0.553974	-0.109583	-1.40696
F	1.348564	0.0	0.0
H	-0.237159	0.753934	-1.991642
H	-1.657577	-0.0944	-1.237559
N	-0.269027	1.496427	0.480726
O	-0.177866	2.40389	-0.342666
O	-0.443639	1.658291	1.684299
N	-0.568163	-0.922513	0.855543
H	-0.318804	-0.694689	1.809854
H	-1.604428	-0.75848	0.698162
C	-0.097367	-1.332021	-2.047629
N	0.258346	-2.295416	-2.617492
F	-2.814838	0.0	0.0
