14

C	0.0	0.0	0.0
C	-0.532725	-0.021229	-1.419338
F	1.366244	0.0	0.0
H	-1.635647	0.014275	-1.270922
H	-0.176232	0.85409	-1.962025
N	-0.281804	1.439213	0.587019
O	-0.32893	2.397206	-0.17832
O	-0.347805	1.514284	1.810104
N	-0.557416	-0.996026	0.776678
H	-0.292384	-0.861713	1.745328
H	-1.596326	-0.818022	0.639364
C	-0.107812	-1.235812	-2.100898
N	0.207934	-2.204477	-2.685329
F	-2.79682	0.0	0.0
