14

C	0.0	0.0	0.0
C	-0.472791	-0.097905	-1.458306
F	1.39419	0.0	0.0
H	-0.946039	-1.073002	-1.561166
H	0.431174	-0.0731	-2.075992
N	-0.216802	1.456563	0.549482
O	-0.532975	1.572605	1.72774
O	0.064145	2.383324	-0.204703
N	-0.539878	-0.974636	0.802671
H	-1.598155	-0.765475	0.620895
H	-0.309017	-0.769313	1.768491
C	-1.390661	0.908601	-1.985794
N	-2.010884	1.680146	-2.615878
F	-2.65659	0.0	0.0
