14

C	0.0	0.0	0.0
C	-0.513284	0.017513	-1.440887
F	1.349655	0.0	0.0
H	-0.420885	-1.008835	-1.8098
H	-1.594274	0.225166	-1.312678
N	-0.358958	1.353164	0.656603
O	-0.551287	2.304649	-0.095612
O	-0.317989	1.411636	1.879187
N	-0.54649	-1.011163	0.806146
H	-0.316346	-1.902383	0.379308
H	-1.583266	-0.821013	0.67821
C	0.190593	0.895816	-2.363905
N	0.762542	1.544425	-3.158562
F	-2.764395	0.0	0.0
