14

C	0.0	0.0	0.0
C	-0.516718	-0.11478	-1.435702
F	1.350082	0.0	0.0
H	-1.620887	-0.065155	-1.279034
H	-0.149215	0.707896	-2.04883
N	-0.365569	1.427426	0.482678
O	-0.695859	1.592705	1.645495
O	-0.186949	2.326458	-0.339304
N	-0.526375	-0.912329	0.925761
H	-0.299074	-1.846331	0.599784
H	-1.560759	-0.745984	0.806515
C	-0.103853	-1.388028	-2.001996
N	0.225989	-2.421238	-2.454311
F	-2.762195	0.0	0.0
