13

C	0.0	0.0	0.0
C	-0.411818	0.064159	-1.477539
Cl	1.791964	0.0	0.0
H	-1.473224	0.319166	-1.457896
H	-0.363257	-0.90919	0.472489
H	0.174542	0.856254	-1.956104
C	-0.456793	1.167803	0.760414
N	-0.527499	2.182403	1.354674
C	-0.218286	-1.272182	-2.177196
H	-0.410845	-1.175186	-3.249985
H	-0.934223	-1.992441	-1.771114
H	0.793623	-1.668498	-2.054398
H	-2.686213	0.0	0.0
