16

C	0.0	0.0	0.0
C	-0.547934	0.655064	-1.316809
Br	1.935196	0.0	0.0
H	0.291515	0.658813	-2.018511
H	-0.35615	0.470835	0.91459
N	-0.388234	-1.449384	0.112255
O	-0.971621	-1.78512	1.136821
O	-0.089821	-2.187684	-0.82287
C	-0.939465	2.085833	-0.965813
H	-0.124565	2.622388	-0.469856
H	-1.816427	2.0595	-0.314252
H	-1.214038	2.611947	-1.881336
N	-1.659501	0.009495	-1.957338
H	-2.501621	0.012915	-1.371171
H	-1.432706	-0.944716	-2.20396
Cl	-4.205058	0.0	0.0
