16

C	0.0	0.0	0.0
C	-0.596788	-0.299978	-1.372274
Br	1.932273	0.0	0.0
H	-0.382224	0.618655	-1.941709
H	-0.303517	0.985755	0.348058
N	-0.439288	-0.931588	1.0999
O	-0.552243	-2.123739	0.845924
O	-0.633233	-0.400289	2.191847
C	-2.113128	-0.456733	-1.268573
H	-2.613252	0.267509	-0.623255
H	-2.547634	-0.337404	-2.263872
H	-2.378855	-1.443785	-0.890434
N	0.021069	-1.459223	-1.998558
H	-0.682256	-2.030865	-2.442612
H	0.712861	-1.192763	-2.683848
Cl	-5.33372	0.0	0.0
