15

C	0.0	0.0	0.0
C	-0.401874	-0.309633	-1.463977
Br	1.951096	0.0	0.0
H	-0.04868	0.546442	-2.041585
N	-0.455918	1.328177	0.308543
H	-1.48804	1.164966	0.318578
H	-0.14174	1.559156	1.246028
C	-0.399939	-1.035421	0.967376
N	-0.556165	-1.790849	1.855113
C	-1.811308	-0.586846	-1.808463
N	-2.569026	-0.974622	-2.630174
N	0.368161	-1.491469	-2.00589
O	1.006771	-1.311992	-3.039398
O	0.276318	-2.546361	-1.388471
F	-2.570582	0.0	0.0
