15

C	0.0	0.0	0.0
C	-0.302967	0.235945	-1.515675
Br	1.96328	0.0	0.0
H	0.411088	-0.36094	-2.086925
N	-0.52128	1.047929	0.794421
H	-1.573681	0.840436	0.632481
H	-0.286307	0.863564	1.765147
C	-0.371299	-1.369332	0.408246
N	-0.52235	-2.439237	0.874174
C	-0.105664	1.64325	-1.853931
N	0.116565	2.74027	-2.208966
N	-1.628865	-0.259888	-2.087883
O	-1.725707	-1.477115	-2.129758
O	-2.36829	0.554411	-2.613976
F	-2.595244	0.0	0.0
