15

C	0.0	0.0	0.0
C	-0.598079	-0.012	-1.418862
Br	1.957461	0.0	0.0
H	-1.713675	-0.035626	-1.140517
N	-0.512192	1.142512	0.685207
H	-1.545858	0.979327	0.611073
H	-0.227743	1.095384	1.657998
C	-0.346071	-1.298152	0.623912
N	-0.553633	-2.304289	1.19669
C	-0.156078	-1.136638	-2.217695
N	0.146905	-2.067081	-2.86896
N	-0.285652	1.269269	-2.130303
O	-1.099613	2.178935	-2.010573
O	0.756134	1.32253	-2.786189
F	-2.755478	0.0	0.0
