15

C	0.0	0.0	0.0
C	-0.59726	-0.084928	-1.417221
Br	1.955099	0.0	0.0
H	-1.71243	-0.098244	-1.139275
N	-0.51355	1.178297	0.621727
H	-1.547344	1.009873	0.556654
H	-0.229685	1.183878	1.595827
C	-0.347801	-1.262889	0.691407
N	-0.553912	-2.237153	1.317208
C	-0.149743	-1.244516	-2.160719
N	0.156029	-2.200513	-2.772206
N	-0.289204	1.162138	-2.18863
O	-1.120582	2.063086	-2.136318
O	0.767747	1.199398	-2.819934
F	-2.755684	0.0	0.0
