15

C	0.0	0.0	0.0
C	-0.594996	0.038808	-1.423826
Br	1.950529	0.0	0.0
H	-1.707687	-0.014197	-1.158837
N	-0.523037	1.118183	0.716163
H	-0.242841	1.046108	1.688774
H	-1.557092	0.945681	0.632342
C	-0.353421	-1.321238	0.568335
N	-0.574375	-2.352168	1.089667
C	-0.121403	-1.035463	-2.2738
N	0.211225	-1.920884	-2.971445
N	-0.307456	1.360104	-2.072333
O	-1.179402	2.218638	-1.98554
O	0.774229	1.49229	-2.646763
F	-2.758665	0.0	0.0
