16
Coordinates from ORCA-job run
  C   -0.67079511692102     -0.00927557714910     -0.20654460693223
  C   0.67102559425928      0.00762924480127     -0.21512055778511
  C   -1.64307131608587      1.11879060017753     -0.27701294392953
  H   -2.22911618115613      1.15559132486581      0.64580459543340
  H   -2.32847554963701      0.94849839240280     -1.10797982788238
  H   -1.14441578855557      2.07649827394802     -0.39958618294844
  N   -1.31729946030038     -1.33334564848936     -0.16728318394571
  O   -2.20046862402837     -1.53398601255478     -0.99913971844006
  O   -0.95130541291663     -2.12712724125670      0.69863696387763
  C   1.64740015010177     -1.11932122630402     -0.22611520060761
  H   1.16203799194420     -2.07677595067278     -0.39565093165066
  H   2.16324840715950     -1.16706663821789      0.73737273881464
  H   2.38838413502853     -0.93866203472996     -1.00552561205730
  N   1.31359082765365      1.33449229502603     -0.24857500244546
  O   2.13357506067184      1.51992710998380     -1.14573420983828
  O   1.00468528278220      2.14413308816931      0.62445368033709
