16
Coordinates from ORCA-job run
  C   0.67149685389242      0.00576636175970     -0.30008337002342
  C   -0.66709953958670     -0.03434707417670     -0.34045050892785
  C   1.55716866743319      0.18596469146706      0.88529416554008
  H   2.23465187473428      1.02750440540373      0.71660805170668
  H   2.16730643138224     -0.70866894079444      1.02311037132618
  H   0.98852837852364      0.37469601949686      1.79328337466762
  N   1.42971330175015     -0.14564600834257     -1.55581721240080
  O   2.31275198209532     -0.99944060873740     -1.54739746591974
  O   1.15786733248038      0.61372018854386     -2.48151256780507
  C   -1.63126998096034      0.13736493382623      0.78336184648923
  H   -2.23839355701489      1.02788687211371      0.61035012847559
  H   -2.30666753414934     -0.72137813727202      0.82710969584391
  H   -1.12515317351893      0.23002466126097      1.74185383035396
  N   -1.33575048375104     -0.26897190014617     -1.63340748229087
  O   -2.22151625125735      0.52873081810722     -1.93026152288232
  O   -0.99463430205305     -1.25420628251004     -2.28204133415317
