16
Coordinates from ORCA-job run
  C   -0.67144553041123      0.00815291947538     -0.21039567977846
  C   0.67146049117870     -0.00811481218823     -0.25059701118285
  C   -1.61065668663371      1.15900851032262     -0.06407727224044
  H   -2.49600648802291      0.98572000830059     -0.67897812036093
  H   -1.14419792134865      2.09575643335849     -0.35976961399075
  H   -1.93384215272454      1.24828792234642      0.97467930639919
  N   -1.35402089072354     -1.29408255815472     -0.26383550211445
  O   -2.23415340917829     -1.46569584130396      0.57803955466115
  O   -1.02339779741909     -2.09645452318776     -1.13583228938945
  C   1.61061661774075     -1.15900836914946     -0.39700096684118
  H   2.49605713494711     -0.98572856050586      0.21776761283704
  H   1.14416057591919     -2.09572346369983     -0.10118435668284
  H   1.93365254604509     -1.24836784829029     -1.43579641808856
  N   1.35407540867849      1.29409216323380     -0.19706765524694
  O   2.23426456776565      1.46570949621621     -1.03888709689147
  O   1.02343353418697      2.09644852322661      0.67493550891095
