16
Coordinates from ORCA-job run
  C   -0.67163778150628      0.01204427219595     -0.21490628448516
  C   0.67132638549705     -0.01222516532888     -0.24616663888958
  C   -1.61134362139744      1.16417994156114     -0.34753156547139
  H   -1.99522460324362      1.21757928144687     -1.36790731452791
  H   -2.45942549391232      1.02030824946194      0.32483358812094
  H   -1.12246137351679      2.10726665304362     -0.11491502238795
  N   -1.35734179465322     -1.28286444344697     -0.08245876752667
  O   -2.28523737081571     -1.47301902983609     -0.86718426813935
  O   -0.98304991723226     -2.06045092015597      0.79425080653874
  C   1.61177776878372     -1.16378559683754     -0.11368988564192
  H   2.46392423608140     -1.01520550835191     -0.77979374216651
  H   1.12559883010410     -2.10635707400960     -0.35406806656703
  H   1.98934153776437     -1.22257327610570      0.90879443186950
  N   1.35659323438160      1.28300077217012     -0.37882566604993
  O   2.27957963483244      1.47671629652125      0.41071663261186
  O   0.98658032883296      2.05738554767176     -1.26014823728765
