16
Coordinates from ORCA-job run
  C   -0.67106158151001      0.01111946699606     -0.22213348692255
  C   0.66935945520298     -0.01090797690651     -0.28008269619458
  C   -1.60974529459146      1.16676584675050     -0.14185972837153
  H   -2.28134684218192      1.02210975911001      0.70515259028236
  H   -2.21319465681256      1.21271413873023     -1.05307454692127
  H   -1.08249164500890      2.11121552431855     -0.03768186241782
  N   -1.35469165195937     -1.29482744727688     -0.19293125691327
  O   -1.08534224982539     -2.10521162707965     -1.07837209269011
  O   -2.16910348974007     -1.46250001879448      0.71293932074753
  C   1.61141657549198     -1.16650988795907     -0.27855409878164
  H   1.09464494372822     -2.11112629305764     -0.13194849618295
  H   2.35063381319986     -1.02234640508584      0.51026681896885
  H   2.13757397993787     -1.21162103236243     -1.23651461014322
  N   1.35286971696674      1.29502954741833     -0.31212857642361
  O   2.24293802598872      1.46417989497460      0.51917714333714
  O   1.00754090111332      2.10391651022422     -1.17225442137332
