16
Coordinates from ORCA-job run
  C   -0.67487952466399      0.00766233040920     -0.19184862645495
  C   0.64020453817515      0.00808488344103     -0.44769045899592
  C   -1.35984787375704     -0.06280075695048      1.13024641001141
  H   -2.08170100856526     -0.88398786563561      1.13019779849951
  H   -0.65561639274316     -0.22046432824403      1.94431344393993
  H   -1.91150686737607      0.86271105239729      1.30590649737444
  N   -1.62203360169806      0.09222957272288     -1.31862331741021
  O   -1.51097010564509     -0.73241713800866     -2.22145112033751
  O   -2.48202302655175      0.96478498146619     -1.22879034759753
  C   1.77017222760900     -0.10919857899354      0.51755988210983
  H   2.31601437562660     -1.03595689259462      0.33062906098851
  H   2.46714684075542      0.72087005319017      0.37407674484668
  H   1.42543916687062     -0.09798259502834      1.54932235547476
  N   1.09643691846416      0.12842605834932     -1.84453690573899
  O   0.68180380848694      1.07977708520718     -2.50074256365165
  O   1.90136052501253     -0.72073786172797     -2.21856885305831
