16
Coordinates from ORCA-job run
  C   -0.66977058198512      0.00488815691632     -0.18291261667864
  C   0.67108070560894     -0.00457418026204     -0.23431777369094
  C   -1.62293541441686      1.15112372660577     -0.20705699092115
  H   -1.11384032214015      2.09858127572921     -0.36193339679452
  H   -2.15750114172152      1.20372883573934      0.74583052760465
  H   -2.35417821701779      0.98971009109076     -0.99993886124277
  N   -1.34101973663346     -1.30702606123407     -0.13609292644531
  O   -2.22496643247942     -1.49570872771055     -0.96980714802242
  O   -0.99298926222291     -2.10099286320354      0.73668311702554
  C   1.62180562279440     -1.15145324130663     -0.29528451944141
  H   1.10419639860217     -2.10323666897394     -0.37868458088628
  H   2.22902040767345     -1.17297156743047      0.61433219468195
  H   2.28897793923007     -1.01647968853337     -1.14742552239845
  N   1.34180687344754      1.30756696799109     -0.28003676944819
  O   2.15748533768580      1.47036758300232     -1.18563258075661
  O   1.06182782357488      2.12747636157982      0.59327784741455
