16
Coordinates from ORCA-job run
  C   -0.67125957078185      0.00540936474169     -0.19721074305590
  C   0.67062662985010     -0.00621683141383     -0.26180194514061
  C   -1.62314398236608      1.15201043011651     -0.28356781878212
  H   -2.01959259432979      1.23348469908645     -1.29729119473679
  H   -1.14010167226321      2.09225071638541     -0.02788802232996
  H   -2.46147311984296      0.98032486472361      0.39434319849035
  N   -1.34246783604616     -1.29811280534078     -0.07719464393907
  O   -2.28116954052606     -1.48337356768683     -0.85001747787066
  O   -0.94574928782746     -2.08744849086746      0.77893580325650
  C   1.62362927226118     -1.15174155785730     -0.17736217075238
  H   1.13684697191708     -2.09517507370967     -0.41281471167433
  H   2.03795418397500     -1.21997968786908      0.83017126447485
  H   2.45041488864780     -0.98791157028423     -0.87142777373614
  N   1.34136779517493      1.29738121653989     -0.38397260921901
  O   2.28451456231458      1.48199818639311      0.38364532117955
  O   0.93960329984291      2.08810010704252     -1.23654647616428
