18

C	-0.482536	0.014059	-1.437674
C	0.0	0.0	0.0
Br	0.367726	1.426062	-2.485614
H	1.104325	0.0	0.0
N	-0.122351	-1.327851	-2.091091
O	-1.03662	-2.150432	-2.151145
O	1.037106	-1.507461	-2.416452
C	-1.928199	0.192811	-1.567708
N	-3.088449	0.389377	-1.584556
C	-0.44964	-1.277178	0.706268
H	-1.535767	-1.435843	0.693708
H	-0.120994	-1.205343	1.746089
H	0.043212	-2.155369	0.283901
C	-0.483405	1.235645	0.745907
H	-0.179237	2.152708	0.237303
H	-0.000281	1.239605	1.726243
H	-1.571727	1.256153	0.891382
F	2.583264	0.0	0.0
