18

C	-0.365882	-0.039421	-1.465163
C	0.0	0.0	0.0
Br	0.310541	-1.631777	-2.371979
H	1.099199	0.0	0.0
N	-1.898326	-0.023849	-1.621084
O	-2.414329	1.089647	-1.725239
O	-2.502667	-1.080879	-1.492268
C	0.153756	1.108839	-2.203197
N	0.569624	2.024143	-2.811364
C	-0.512028	-1.183594	0.801121
H	-0.025864	-1.14745	1.77927
H	-1.598606	-1.17011	0.952689
H	-0.240931	-2.133269	0.339023
C	-0.411572	1.324705	0.634923
H	-1.498076	1.462842	0.71447
H	0.012457	2.173242	0.092475
H	0.015957	1.344541	1.641584
F	2.563252	0.0	0.0
