18

C	-0.378714	-0.270074	-1.435573
C	0.0	0.0	0.0
Br	0.225944	-2.016675	-2.070369
H	1.109509	0.0	0.0
N	-1.908629	-0.221253	-1.593775
O	-2.554571	-1.193104	-1.221177
O	-2.378584	0.85808	-1.949413
C	0.188172	0.714682	-2.354979
N	0.650693	1.487338	-3.110231
C	-0.504159	-1.032244	0.992985
H	0.020864	-0.854806	1.936596
H	-1.584811	-0.969614	1.176413
H	-0.26539	-2.04887	0.676804
C	-0.412069	1.41183	0.409925
H	-1.498935	1.549408	0.491355
H	-0.015552	2.161314	-0.279082
H	0.036007	1.608825	1.387214
F	2.560414	0.0	0.0
