18

C	-0.355992	0.087361	-1.435936
C	0.0	0.0	0.0
Br	-2.35838	0.260206	-1.820172
H	1.105946	0.0	0.0
N	0.259613	1.320599	-2.111984
O	1.103665	1.112256	-2.97404
O	-0.125553	2.415591	-1.728773
C	0.044997	-1.087273	-2.20257
N	0.308132	-2.071002	-2.790611
C	-0.440479	-1.32746	0.601566
H	-1.532913	-1.412837	0.679498
H	-0.011823	-1.398136	1.60474
H	-0.058449	-2.17699	0.031542
C	-0.43878	1.172754	0.862229
H	0.05654	2.095816	0.566946
H	-1.523904	1.331221	0.843088
H	-0.134339	0.95503	1.889223
F	2.51861	0.0	0.0
