18

C	-0.360556	0.069236	-1.465881
C	0.0	0.0	0.0
Br	0.306877	-1.460809	-2.48071
H	1.108051	0.0	0.0
N	-1.888113	0.113247	-1.629954
O	-2.506256	-0.941805	-1.57257
O	-2.390552	1.235212	-1.663312
C	0.179053	1.259754	-2.118832
N	0.614222	2.20732	-2.659731
C	-0.510563	-1.238879	0.712372
H	-1.600195	-1.25048	0.840872
H	-0.214072	-2.152888	0.196095
H	-0.046065	-1.259853	1.701695
C	-0.423271	1.274083	0.725897
H	-1.510556	1.373076	0.847591
H	-0.045889	2.167678	0.223252
H	0.036649	1.247253	1.717662
F	2.561452	0.0	0.0
