11

C	-0.176031	-0.000341	-1.502285
C	0.0	0.0	0.0
Cl	-1.883532	-0.000333	-2.082749
H	1.098246	0.0	0.0
H	0.308075	-0.887921	-1.905481
H	0.308234	0.886973	-1.905881
C	-0.508565	-1.202204	0.628818
N	-0.89602	-2.197888	1.119847
C	-0.50832	1.202532	0.62839
N	-0.894197	2.198537	1.120008
F	2.458282	0.0	0.0
