11

C	-0.370421	0.066773	-1.483735
C	0.0	0.0	0.0
Cl	0.104054	-1.424672	-2.336073
H	1.096038	0.0	0.0
H	-1.438524	0.206294	-1.655038
H	0.200596	0.883663	-1.921778
C	-0.551395	-1.158209	0.676336
N	-0.976636	-2.105341	1.228629
C	-0.446515	1.227908	0.636838
N	-0.808373	2.241857	1.110485
F	2.465926	0.0	0.0
