19

C	-0.425645	0.004558	-1.461261
C	0.0	0.0	0.0
Br	0.345773	-1.57675	-2.321457
H	1.091401	0.0	0.0
N	-1.93803	-0.15951	-1.641972
O	-2.447565	-1.181698	-1.194813
O	-2.553061	0.80586	-2.092421
C	0.045748	1.234194	-2.212456
H	1.127303	1.31902	-2.097648
H	-0.434087	2.127468	-1.812738
H	-0.201681	1.15951	-3.27199
C	-0.543176	-1.074127	0.914998
H	-0.31688	-2.061861	0.512071
H	-1.620911	-0.990556	1.056314
H	-0.044499	-0.978386	1.885108
N	-0.3871	1.339485	0.55924
O	0.514926	2.107465	0.885997
O	-1.593006	1.581276	0.667404
Br	2.757483	0.0	0.0
