16

C	-0.308601	-0.023017	-1.48578
C	0.0	0.0	0.0
F	-1.696683	0.037023	-1.684694
H	1.096796	0.0	0.0
H	-0.341942	0.960658	0.400152
N	0.217829	1.127297	-2.203415
H	1.220782	1.143603	-2.028578
H	-0.164547	1.970626	-1.786433
N	0.17012	-1.243368	-2.064902
H	1.09816	-1.432295	-1.696374
H	0.250909	-1.099191	-3.064986
C	-0.583737	-1.160852	0.789651
H	-0.20024	-2.112949	0.421279
H	-0.315564	-1.074595	1.84605
H	-1.673706	-1.180498	0.704941
Cl	3.512012	0.0	0.0
