16

C	-0.36613	0.252969	-1.450362
C	0.0	0.0	0.0
F	-0.088681	-0.98068	-2.149544
H	1.091896	0.0	0.0
H	-0.353443	-0.995954	0.281546
N	-1.757052	0.547941	-1.650369
H	-1.910307	0.770039	-2.628267
H	-2.28177	-0.294408	-1.444679
N	0.44722	1.287154	-1.987403
H	0.400788	1.266432	-2.999946
H	1.411752	1.113353	-1.711565
C	-0.518368	1.077873	0.941859
H	-1.609595	1.086169	0.991755
H	-0.190492	2.05986	0.597443
H	-0.116695	0.919491	1.946048
Cl	3.57787	0.0	0.0
