16

C	-0.396402	-0.09221	-1.463175
C	0.0	0.0	0.0
F	-0.213744	1.23511	-2.009878
H	1.091896	0.0	0.0
H	-0.353178	0.957336	0.394344
N	0.440701	-1.013523	-2.144693
H	1.415684	-0.743731	-2.023772
H	0.216383	-1.044607	-3.134488
N	-1.777578	-0.436529	-1.651542
H	-1.993117	-0.379503	-2.64193
H	-2.338647	0.270001	-1.190046
C	-0.49491	-1.176182	0.830467
H	-0.189157	-2.111482	0.360028
H	-1.582388	-1.18908	0.930244
H	-0.050755	-1.13789	1.827523
Cl	3.59644	0.0	0.0
