16

C	-0.440909	-0.061442	-1.445048
C	0.0	0.0	0.0
F	-1.818916	-0.443885	-1.483994
H	1.093796	0.0	0.0
H	-0.327053	-0.940734	0.449813
N	-0.322374	1.209343	-2.102594
H	-0.907534	1.891502	-1.636793
H	-0.651828	1.115606	-3.05774
N	0.266451	-1.11332	-2.110557
H	1.26341	-0.946734	-2.001193
H	0.032699	-1.11303	-3.09762
C	-0.543889	1.189159	0.777509
H	-0.300722	1.08365	1.836794
H	-0.08676	2.121238	0.438062
H	-1.632841	1.265988	0.687147
Cl	3.649806	0.0	0.0
