16

C	-0.392136	-0.041316	-1.467793
C	0.0	0.0	0.0
F	-1.728809	0.467305	-1.565463
H	1.092081	0.0	0.0
H	-0.323159	0.977057	0.376976
N	0.398778	0.825254	-2.309559
H	1.3739	0.576121	-2.1464
H	0.288657	1.771375	-1.957878
N	-0.324519	-1.346825	-2.018305
H	-0.55808	-1.285243	-3.001237
H	-0.971396	-1.964994	-1.54725
C	-0.571044	-1.11756	0.859832
H	-0.325538	-0.947726	1.91048
H	-1.661419	-1.177484	0.772497
H	-0.134226	-2.078485	0.579996
Cl	3.577366	0.0	0.0
