16

C	-0.394683	-0.074663	-1.466255
C	0.0	0.0	0.0
F	-1.714678	-0.63171	-1.523156
H	1.093826	0.0	0.0
H	-0.31916	-0.946334	0.450848
N	-0.371828	1.19111	-2.107214
H	-0.601093	1.051496	-3.083155
H	-1.0418	1.817113	-1.681637
N	0.423667	-0.96799	-2.250041
H	0.35757	-1.889964	-1.832127
H	1.387805	-0.666944	-2.119593
C	-0.572714	1.178034	0.773019
H	-0.148732	2.117037	0.411049
H	-1.664708	1.221218	0.693034
H	-0.31547	1.09613	1.831533
Cl	3.579098	0.0	0.0
