16

C	-0.37422	0.119116	-1.472457
C	0.0	0.0	0.0
F	-1.704251	0.642871	-1.555519
H	1.093696	0.0	0.0
H	-0.35576	-0.953242	0.406185
N	0.433511	1.042391	-2.234006
H	0.316106	1.966791	-1.836414
H	1.405089	0.776967	-2.078896
N	-0.298059	-1.137967	-2.1222
H	-0.538142	-1.012904	-3.097557
H	-0.920536	-1.804112	-1.685393
C	-0.498006	1.160052	0.853206
H	-1.587997	1.192266	0.906691
H	-0.148985	2.116251	0.454195
H	-0.094267	1.073325	1.864511
Cl	3.576111	0.0	0.0
