16

C	-0.400094	0.280372	-1.443148
C	0.0	0.0	0.0
F	-0.248843	-0.940839	-2.154457
H	1.093935	0.0	0.0
H	-0.313763	0.865106	0.594874
N	-1.77898	0.652638	-1.705663
H	-2.387389	-0.065867	-1.329621
H	-1.957462	1.517588	-1.209793
N	0.432117	1.301413	-1.962684
H	1.405708	1.10987	-1.73861
H	0.301535	1.35731	-2.964865
C	-0.562035	-1.290523	0.574349
H	-1.656468	-1.317919	0.537899
H	-0.260547	-1.396783	1.619164
H	-0.179159	-2.149457	0.02357
Cl	3.567314	0.0	0.0
