15

C	0.0	0.0	0.0
C	-0.345859	0.080729	-1.506016
Br	1.946095	0.0	0.0
H	0.260568	-0.660332	-2.026219
H	-0.287157	0.921601	0.513601
N	-0.546754	-1.221166	0.522942
H	-1.563326	-1.136626	0.44804
H	-0.324919	-1.296563	1.509173
N	0.161046	1.412859	-2.028876
O	0.869245	1.402373	-3.032424
O	-0.228765	2.420623	-1.445467
N	-1.698337	-0.030167	-1.9112
H	-2.396675	0.320483	-1.251507
H	-1.932796	-0.991548	-2.108534
Cl	-4.136057	0.0	0.0
