15

C	0.0	0.0	0.0
C	-0.360139	-0.116507	-1.508198
Br	2.054782	0.0	0.0
H	0.534732	-0.224541	-2.122395
H	-0.243207	0.989424	0.372945
N	-0.503181	-1.0	0.849758
H	-1.437307	-0.713145	1.139871
H	-0.597685	-1.86499	0.330667
N	-0.87977	1.258532	-2.018251
O	-1.52713	1.223911	-3.059849
O	-0.519483	2.28104	-1.443434
N	-1.244389	-1.187785	-1.766874
H	-2.136799	-0.998613	-1.295045
H	-1.4108	-1.259076	-2.761865
Cl	-3.590571	0.0	0.0
