15

C	0.0	0.0	0.0
C	-0.354346	-0.139321	-1.504827
Br	2.056279	0.0	0.0
H	0.533378	-0.340077	-2.105115
H	-0.23365	0.997826	0.356402
N	-0.522896	-0.982877	0.855895
H	-1.421158	-0.654727	1.205616
H	-0.688058	-1.837032	0.335467
N	-0.751695	1.260431	-2.061462
O	-0.348946	2.270047	-1.492128
O	-1.358506	1.245686	-3.128546
N	-1.318943	-1.14084	-1.742802
H	-2.196524	-0.901765	-1.263697
H	-1.496937	-1.216905	-2.734934
Cl	-3.691826	0.0	0.0
