15

C	0.0	0.0	0.0
C	-0.306348	-0.105993	-1.523012
Br	1.957557	0.0	0.0
H	0.186526	-1.000108	-1.912521
H	-0.306741	0.981732	0.359748
N	-0.587992	-1.011106	0.805577
H	-1.575506	-0.778507	0.928911
H	-0.528151	-1.915812	0.352952
N	0.36406	1.044914	-2.241561
O	1.086177	0.794206	-3.201553
O	0.083164	2.17052	-1.834971
N	-1.662046	-0.069371	-1.945548
H	-2.118843	-0.956975	-1.791647
H	-2.22031	0.592707	-1.414869
Cl	-4.036897	0.0	0.0
