15

C	0.0	0.0	0.0
C	-0.379569	-0.329323	-1.477385
Br	1.961755	0.0	0.0
H	0.488208	-0.662101	-2.05019
H	-0.28014	1.025281	0.222116
N	-0.529948	-0.871676	0.988492
H	-1.48594	-0.568649	1.176891
H	-0.596223	-1.806717	0.602401
N	-0.721069	0.988866	-2.237183
O	-0.534028	2.082128	-1.712431
O	-1.107379	0.819043	-3.393053
N	-1.392368	-1.307818	-1.570243
H	-1.592949	-1.510116	-2.541328
H	-2.251775	-0.981824	-1.109923
Cl	-3.793923	0.0	0.0
