12

C	-0.504271	0.082669	-1.401055
C	0.011902	-0.012352	0.01688
Br	0.584111	1.235734	-2.527402
H	1.102108	0.033312	0.025294
H	-1.520412	0.456392	-1.50659
H	-0.287738	-0.975377	0.443238
N	-0.543119	-1.274272	-2.054202
O	-1.492856	-1.480728	-2.812655
O	0.350225	-2.070752	-1.798193
C	-0.562319	1.060119	0.805462
N	-1.020717	1.938013	1.439807
F	2.519955	0.151765	-0.127697
