12

C	-0.502764	0.104723	-1.398559
C	0.021122	-0.01778	0.014201
Br	0.55519	1.312474	-2.496444
H	1.110226	0.050354	0.019671
H	-1.527282	0.458839	-1.490574
H	-0.257775	-0.997534	0.415755
N	-0.514298	-1.234047	-2.089254
O	0.394081	-2.019854	-1.853685
O	-1.458419	-1.437626	-2.855377
C	-0.56955	1.021954	0.833496
N	-1.041322	1.872468	1.494707
F	2.524177	0.215269	-0.12738
