14

C	0.0	0.0	0.0
C	-0.580563	-0.162325	-1.410845
Cl	1.780573	0.0	0.0
H	-1.685278	-0.130878	-1.249596
H	-0.324063	0.976256	0.363714
C	-0.48321	-1.102856	0.923517
H	-0.116247	-0.920616	1.935319
H	-0.104978	-2.071287	0.586858
H	-1.574508	-1.103692	0.926731
C	-0.219494	-1.446722	-2.011608
N	0.051826	-2.480259	-2.49832
C	-0.197273	0.935905	-2.29785
N	0.085372	1.824312	-3.012159
Br	-3.752565	0.0	0.0
