14

C	0.0	0.0	0.0
C	-0.479671	-0.113791	-1.486403
Cl	1.784381	0.0	0.0
H	0.420765	-0.167987	-2.111255
H	-0.32501	0.959844	0.397011
C	-0.45734	-1.135887	0.895027
H	-0.081647	-0.967488	1.906335
H	-1.548117	-1.156353	0.905062
H	-0.064255	-2.087801	0.530829
C	-1.169829	1.096737	-1.942924
N	-1.511014	2.121802	-2.403477
C	-1.204257	-1.352286	-1.790458
N	-1.571916	-2.414199	-2.130908
Br	-3.591919	0.0	0.0
