14

C	0.0	0.0	0.0
C	-0.479576	-0.062451	-1.492562
Cl	1.784366	0.0	0.0
H	0.420427	-0.062651	-2.118425
H	-0.330976	0.942152	0.432562
C	-0.451981	-1.175683	0.844967
H	-0.093459	-1.041939	1.867836
H	-0.035628	-2.105688	0.451688
H	-1.541985	-1.215118	0.83885
C	-1.214469	1.135084	-1.909954
N	-1.547297	2.162831	-2.37263
C	-1.163603	-1.312162	-1.845099
N	-1.521746	-2.362925	-2.22687
Br	-3.575327	0.0	0.0
