14

C	0.0	0.0	0.0
C	-0.480703	-0.402457	-1.434454
Cl	1.78434	0.0	0.0
H	0.418647	-0.577287	-2.037891
H	-0.325627	1.018627	0.203074
C	-0.457179	-0.939843	1.099471
H	-1.547795	-0.955371	1.113472
H	-0.079613	-0.579314	2.058799
H	-0.066569	-1.945236	0.92634
C	-1.170815	0.697641	-2.114885
N	-1.512974	1.614284	-2.76404
C	-1.204853	-1.677359	-1.49216
N	-1.568874	-2.786285	-1.624469
Br	-3.595541	0.0	0.0
