16

C	-0.372657	0.057586	-1.463796
C	0.0	0.0	0.0
F	0.001547	-1.078331	-2.112073
H	1.097561	0.0	0.0
N	-1.901872	0.134424	-1.715905
O	-2.651437	-0.069855	-0.769117
O	-2.232316	0.335603	-2.879564
C	0.199505	1.230228	-2.139096
N	0.607018	2.191881	-2.676424
C	-0.471006	-1.23849	0.607927
N	-0.843307	-2.212671	1.148086
C	-0.410984	1.242395	0.794751
H	-1.491389	1.330165	0.906823
H	0.052213	1.176982	1.780306
H	-0.008595	2.135164	0.31085
Br	3.357552	0.0	0.0
