16

C	-0.451	0.056017	-1.456305
C	0.0	0.0	0.0
F	-0.059412	1.2247	-2.014243
H	1.09666	0.0	0.0
N	0.192695	-1.077426	-2.271965
O	-0.180788	-2.199867	-1.958445
O	0.983873	-0.761354	-3.141384
C	-1.907635	-0.081709	-1.619168
N	-3.075082	-0.133081	-1.740471
C	-0.50509	-1.191344	0.671642
N	-0.929442	-2.093974	1.292813
C	-0.458101	1.259025	0.744811
H	-1.547969	1.347105	0.772497
H	-0.024397	2.138647	0.270198
H	-0.080142	1.206144	1.766549
Br	3.374415	0.0	0.0
