16

C	-0.378223	-0.504242	-1.385161
C	0.0	0.0	0.0
F	0.071731	-1.763356	-1.566094
H	1.108445	0.0	0.0
N	-1.910341	-0.562902	-1.521243
O	-2.441747	-1.641902	-1.308785
O	-2.469035	0.500477	-1.772103
C	0.101919	0.360863	-2.468483
N	0.458577	1.017608	-3.374698
C	-0.508399	-0.933714	0.998113
N	-0.974356	-1.63741	1.814077
C	-0.439178	1.432926	0.297412
H	-0.006858	1.71891	1.256774
H	-0.037217	2.105991	-0.461391
H	-1.523391	1.537997	0.344019
Br	3.349638	0.0	0.0
