16

C	-0.51434	0.342756	-1.384957
C	0.0	0.0	0.0
F	0.129425	1.440088	-1.871784
H	1.10737	0.0	0.0
N	-0.233077	-0.785386	-2.388504
O	-1.098188	-0.995124	-3.235072
O	0.854564	-1.330482	-2.285931
C	-1.965661	0.602271	-1.399185
N	-3.109332	0.860629	-1.328376
C	-0.521907	-1.304708	0.391835
N	-0.989973	-2.329235	0.724524
C	-0.403044	1.08264	1.009344
H	-0.03608	2.04783	0.658388
H	0.092861	0.865206	1.955884
H	-1.482478	1.130971	1.167931
Br	3.401798	0.0	0.0
