16

C	-0.376098	-0.003302	-1.477139
C	0.0	0.0	0.0
F	0.149508	-1.081517	-2.095339
H	1.108222	0.0	0.0
N	-1.906016	-0.110819	-1.637383
O	-2.358918	-1.188519	-1.991918
O	-2.536867	0.901442	-1.350766
C	0.021558	1.222505	-2.179813
N	0.315854	2.191262	-2.775382
C	-0.504972	-1.225731	0.606596
N	-0.962547	-2.188162	1.101182
C	-0.433403	1.242965	0.778415
H	0.016863	1.18408	1.77055
H	-0.039263	2.13626	0.290161
H	-1.51631	1.327397	0.872959
Br	3.34864	0.0	0.0
