16

C	-0.381185	-0.120027	-1.469578
C	0.0	0.0	0.0
F	0.13194	-1.248677	-2.001397
H	1.103496	0.0	0.0
N	-1.912831	-0.228795	-1.609681
O	-2.533348	0.819134	-1.463043
O	-2.377107	-1.34189	-1.803145
C	0.023214	1.042835	-2.268723
N	0.317878	1.954949	-2.947922
C	-0.490764	-1.175148	0.711253
N	-0.925578	-2.090584	1.305437
C	-0.44383	1.297127	0.677084
H	0.006291	1.322109	1.670579
H	-1.527637	1.377824	0.766186
H	-0.060371	2.15321	0.1191
Br	3.354601	0.0	0.0
