16

C	-0.382804	0.216029	-1.458218
C	0.0	0.0	0.0
F	0.101546	-0.78096	-2.22872
H	1.101826	0.0	0.0
N	-1.916288	0.180455	-1.611237
O	-2.508689	1.197444	-1.263927
O	-2.410497	-0.862834	-2.010859
C	0.054947	1.515719	-1.980634
N	0.380707	2.550028	-2.432606
C	-0.490618	-1.303096	0.43431
N	-0.914514	-2.326974	0.824904
C	-0.441044	1.114332	0.950832
H	-1.524771	1.178185	1.053473
H	-0.051782	2.072358	0.600662
H	0.005331	0.912834	1.926139
Br	3.352934	0.0	0.0
