15

C	-0.59232	0.178027	-1.38153
C	0.0	0.0	0.0
Cl	0.171343	-1.115048	-2.465088
H	1.096073	0.0	0.0
H	-0.268811	1.110878	-1.830231
N	-2.003292	0.070901	-1.325388
H	-2.410052	0.05822	-2.252014
H	-2.220088	-0.795131	-0.840875
N	-0.476959	-1.225252	0.612412
H	-0.739178	-0.991297	1.563276
H	0.337448	-1.831065	0.678857
N	-0.358799	1.172604	0.801604
O	-0.225965	2.279957	0.266722
O	-0.654116	1.019344	1.9973
H	2.58148	0.0	0.0
