15

C	-0.590019	0.04905	-1.393852
C	0.0	0.0	0.0
Cl	0.193482	-1.305582	-2.375041
H	1.09692	0.0	0.0
H	-0.289834	0.955021	-1.911483
N	-2.001808	-0.083463	-1.325998
H	-2.405043	-0.178769	-2.249081
H	-2.196141	-0.920152	-0.784278
N	-0.467144	-1.162457	0.724112
H	0.370454	-1.687214	0.964036
H	-0.872976	-0.835493	1.595061
N	-0.359914	1.250774	0.682239
O	-0.195601	2.302415	0.051705
O	-0.692958	1.211748	1.878489
H	2.578985	0.0	0.0
