15

C	-0.346537	0.07675	-1.476081
C	0.0	0.0	0.0
Cl	-2.138837	0.321472	-1.695966
H	1.103843	0.0	0.0
H	-0.156826	-0.929761	-1.849042
N	0.380105	1.024019	-2.277045
H	0.256971	1.93094	-1.842
H	1.361086	0.784571	-2.123019
N	-0.44879	-1.20769	0.609096
H	0.175231	-1.420284	1.378686
H	-1.3836	-1.09715	0.981684
N	-0.405248	1.219675	0.743645
O	-0.886686	1.087473	1.875437
O	-0.175247	2.319518	0.226953
H	2.637088	0.0	0.0
