15

C	-0.426519	-0.028289	-1.439365
C	0.0	0.0	0.0
Cl	-2.377705	-0.397769	-1.48498
H	1.096927	0.0	0.0
H	-0.077969	-0.971595	-1.854916
N	-0.079866	1.032237	-2.250799
H	-0.335673	0.902715	-3.216866
H	-0.36918	1.917796	-1.864662
N	-0.325585	-1.172332	0.740242
H	-1.111912	-1.673268	0.353525
H	0.502974	-1.751051	0.810948
N	-0.417158	1.218155	0.732067
O	-0.709615	2.238285	0.080805
O	-0.334468	1.205689	1.957393
H	2.540795	0.0	0.0
