15

C	-0.426315	-0.127027	-1.462637
C	0.0	0.0	0.0
Cl	-0.266708	1.459026	-2.299358
H	1.091096	0.0	0.0
H	-1.487377	-0.3897	-1.534689
N	0.385529	-1.097826	-2.153952
H	0.133231	-2.018665	-1.813014
H	1.357365	-0.928318	-1.878914
N	-0.39327	-1.136965	0.784774
H	0.407485	-1.744363	0.901712
H	-1.192627	-1.636314	0.420736
N	-0.634562	1.205778	0.614865
O	0.070284	2.116541	1.035323
O	-1.86951	1.190395	0.656805
H	2.81573	0.0	0.0
