15

C	-0.539784	-0.051258	-1.417027
C	0.0	0.0	0.0
Cl	0.09781	-1.523057	-2.226587
H	1.092414	0.0	0.0
H	-0.136231	0.782358	-1.994631
N	-1.991825	-0.151044	-1.422486
H	-2.314315	-0.249039	-2.378888
H	-2.331088	0.738145	-1.070037
N	-0.417805	-1.074587	0.842935
H	-1.180638	-1.582129	0.414857
H	0.379165	-1.681799	0.995669
N	-0.379438	1.302165	0.608599
O	-0.109046	1.471697	1.79429
O	-0.843502	2.197897	-0.129182
H	2.62034	0.0	0.0
