15

C	-0.480265	0.043338	-1.458167
C	0.0	0.0	0.0
Cl	-0.492656	1.69925	-2.145837
H	1.091996	0.0	0.0
H	-1.516509	-0.304354	-1.508339
N	0.356548	-0.805441	-2.270404
H	0.230128	-1.741663	-1.895927
H	1.324032	-0.555143	-2.052591
N	-0.409472	-1.271876	0.532782
H	-1.307755	-1.183542	0.99186
H	0.290386	-1.567865	1.20468
N	-0.534251	1.140466	0.810549
O	-1.614814	0.96959	1.396111
O	0.108908	2.184538	0.836868
H	2.786454	0.0	0.0
