15

C	-0.543123	0.273392	-1.393635
C	0.0	0.0	0.0
Cl	0.051992	-1.048325	-2.467604
H	1.100915	0.0	0.0
H	-0.108909	1.190142	-1.784284
N	-1.982801	0.329782	-1.483199
H	-2.259573	1.213897	-1.067497
H	-2.330679	-0.422243	-0.892055
N	-0.478273	-1.269197	0.522391
H	-0.555393	-1.139016	1.525736
H	0.284073	-1.928318	0.377551
N	-0.361951	1.079158	0.868634
O	-0.452097	2.226185	0.372097
O	-0.410229	0.869667	2.100609
H	2.461386	0.0	0.0
