15

C	-0.602866	-0.007783	-1.389473
C	0.0	0.0	0.0
Cl	0.267628	-1.296422	-2.374803
H	1.090417	0.0	0.0
H	-0.381503	0.917569	-1.911491
N	-2.003048	-0.246925	-1.310674
H	-2.12718	-1.102438	-0.777867
H	-2.400225	-0.369137	-2.233796
N	-0.433186	-1.142805	0.767778
H	-0.978523	-0.805648	1.550183
H	0.408517	-1.557827	1.154529
N	-0.361871	1.273927	0.645839
O	-0.202064	2.306457	-0.014821
O	-0.696937	1.269091	1.840558
H	2.582269	0.0	0.0
