15

C	-0.43658	-0.076309	-1.438072
C	0.0	0.0	0.0
Cl	-2.43569	-0.240846	-1.414579
H	1.094695	0.0	0.0
H	-0.21546	-1.076966	-1.802997
N	-0.002813	0.892405	-2.307579
H	-0.315099	0.775427	-3.257832
H	-0.091065	1.827092	-1.939284
N	-0.360878	-1.12208	0.788176
H	-1.193993	-1.592846	0.467498
H	0.438011	-1.740727	0.863595
N	-0.425581	1.273898	0.643914
O	-0.789304	1.274619	1.815981
O	-0.287547	2.311641	-0.025672
H	2.572547	0.0	0.0
