15

C	-0.544611	0.283673	-1.392727
C	0.0	0.0	0.0
Cl	0.056476	-1.023017	-2.477714
H	1.092418	0.0	0.0
H	-0.115215	1.206477	-1.774012
N	-1.985154	0.333423	-1.481461
H	-2.272529	1.20483	-1.04616
H	-2.328846	-0.434174	-0.909279
N	-0.48069	-1.272453	0.511543
H	-0.612206	-1.142355	1.50725
H	0.295293	-1.921534	0.409317
N	-0.363928	1.076465	0.880989
O	-0.438407	2.227228	0.397319
O	-0.435695	0.85079	2.106885
H	2.489444	0.0	0.0
