15

C	-0.521846	-0.059862	-1.405178
C	0.0	0.0	0.0
Cl	-2.498803	-0.007556	-1.261308
H	1.093759	0.0	0.0
H	-0.414299	-1.081965	-1.755467
N	-0.033075	0.865151	-2.30527
H	-0.039365	1.805092	-1.938194
H	-0.430574	0.785861	-3.228544
N	-0.37965	-1.153533	0.745036
H	-1.280878	-1.021951	1.185558
H	0.321127	-1.294555	1.464029
N	-0.352693	1.275686	0.666406
O	-0.202544	2.326925	0.02584
O	-0.660495	1.248012	1.86266
H	2.556748	0.0	0.0
