13

C	0.0	0.0	0.0
C	-0.470834	0.197809	-1.426388
Br	1.965448	0.0	0.0
H	-1.562	0.230775	-1.293292
H	-0.228506	0.915135	0.554672
H	-0.189579	-0.699462	-1.99856
N	-0.580089	-1.192544	0.528584
H	-1.606494	-0.949126	0.390873
H	-0.415537	-1.209439	1.530665
N	0.01147	1.457463	-1.997201
H	-0.581004	1.699831	-2.781044
H	0.953793	1.334701	-2.348544
F	-2.871389	0.0	0.0
