13

C	0.0	0.0	0.0
C	-0.256499	-0.04712	-1.552001
Br	1.967112	0.0	0.0
H	0.477232	-0.748207	-1.958856
H	-0.259363	0.980858	0.411579
H	0.022542	0.946165	-1.928821
N	-0.615487	-1.107034	0.654297
H	-1.631648	-0.893744	0.48161
H	-0.47367	-1.012743	1.655744
N	-1.557759	-0.423584	-2.056785
H	-2.281319	-0.082004	-1.392533
H	-1.626315	-1.432437	-1.983101
F	-3.013913	0.0	0.0
