13

C	0.0	0.0	0.0
C	-0.481422	0.183594	-1.443074
Br	1.932422	0.0	0.0
H	0.363398	0.166772	-2.141783
H	-0.340494	0.833506	0.600719
H	-0.345515	-0.935	0.417431
N	-1.252386	1.358538	-1.60059
H	-1.566572	1.409836	-2.561633
H	-2.064171	1.117712	-0.974644
N	-1.227718	-1.099046	-1.894022
O	-2.01332	-0.966391	-2.827787
O	-0.884023	-2.180079	-1.425662
F	-2.604628	0.0	0.0
