17

C	0.0	0.0	0.0
C	-0.272327	0.117787	-1.548536
F	1.412354	0.0	0.0
H	0.629738	0.557435	-1.980997
N	-0.457212	1.129011	0.749011
H	-1.479754	1.014035	0.719693
H	-0.24031	1.97738	0.235181
N	-0.51034	-1.225788	0.508943
H	-1.531102	-1.118031	0.376545
H	-0.341505	-1.205307	1.510465
N	-1.429324	0.84305	-1.889807
H	-1.624395	0.757018	-2.87782
H	-2.225146	0.51345	-1.299198
N	-0.21437	-1.308607	-2.134822
O	-1.271666	-1.866559	-2.415099
O	0.903621	-1.788651	-2.316218
F	-2.926	0.0	0.0
