17

C	0.0	0.0	0.0
C	-0.142902	0.23553	-1.5396
F	1.456221	0.0	0.0
H	0.296133	-0.645264	-2.017014
N	-0.456838	1.05277	0.826299
H	-0.24504	1.928491	0.354906
H	-1.485882	0.90296	0.76673
N	-0.488122	-1.279841	0.355948
H	-1.513961	-1.128366	0.215553
H	-0.348298	-1.357674	1.35865
N	0.505035	1.496795	-1.859635
H	1.497568	1.368062	-1.718706
H	0.327861	1.743084	-2.82457
N	-1.527921	0.283394	-2.127027
O	-1.973326	-0.78632	-2.530768
O	-2.051882	1.379361	-2.292445
F	-2.746812	0.0	0.0
