17

C	0.0	0.0	0.0
C	-0.274714	0.083401	-1.548211
F	1.414611	0.0	0.0
H	0.629885	0.509461	-1.989134
N	-0.457285	1.149137	0.717398
H	-0.284678	1.97006	0.144652
H	-1.478378	1.017292	0.713436
N	-0.501255	-1.212321	0.542942
H	-0.303967	-1.181996	1.539635
H	-1.524395	-1.111217	0.432426
N	-1.425178	0.812079	-1.901636
H	-2.227463	0.491836	-1.312906
H	-1.615044	0.720606	-2.890494
N	-0.22813	-1.353046	-2.101983
O	-1.288498	-1.910502	-2.372558
O	0.885767	-1.844284	-2.269606
F	-2.920813	0.0	0.0
