17

C	0.0	0.0	0.0
C	-0.260181	-0.108216	-1.527946
F	1.419048	0.0	0.0
H	-0.164387	-1.169602	-1.771643
N	-0.344932	1.317746	0.464935
H	0.098923	1.994642	-0.145832
H	0.02516	1.423402	1.403459
N	-0.604528	-1.062405	0.675616
H	-1.671913	-0.756924	0.458055
H	-0.469668	-0.907574	1.673093
N	0.658377	0.774086	-2.239287
H	1.598419	0.457691	-2.049104
H	0.483225	0.703267	-3.234729
N	-1.621103	0.255535	-2.072389
O	-1.913726	1.439147	-2.14193
O	-2.234318	-0.665728	-2.609021
F	-2.780806	0.0	0.0
