17

C	0.0	0.0	0.0
C	-0.278197	-0.00565	-1.544607
F	1.399513	0.0	0.0
H	0.592497	0.480709	-1.988048
N	-0.452091	1.25364	0.541809
H	-0.223068	1.240588	1.533594
H	-1.475462	1.166763	0.467234
N	-0.488356	-1.202012	0.605311
H	-0.275949	-1.154658	1.598289
H	-1.511945	-1.094034	0.501832
N	-1.482239	0.556786	-1.986365
H	-2.270249	0.27188	-1.368745
H	-1.640311	0.353212	-2.963168
N	-0.062317	-1.474639	-2.012354
O	-1.051781	-2.172102	-2.217523
O	1.100424	-1.835915	-2.19816
F	-2.936591	0.0	0.0
