17

C	0.0	0.0	0.0
C	-0.533647	-0.100275	-1.424985
F	1.406816	0.0	0.0
H	-1.632561	-0.15384	-1.266928
N	-0.548935	1.148323	0.613541
H	-1.582867	0.919574	0.50737
H	-0.331341	1.104966	1.605034
N	-0.344883	-1.247856	0.655755
H	0.176388	-1.269776	1.526866
H	-0.010514	-2.001102	0.064615
N	0.049749	-1.213407	-2.112364
H	-0.448864	-1.386544	-2.975444
H	1.014621	-0.989454	-2.328176
N	-0.219972	1.202732	-2.140745
O	-1.095604	2.057953	-2.21365
O	0.907111	1.31367	-2.638301
F	-2.869554	0.0	0.0
