17

C	0.0	0.0	0.0
C	-0.427296	0.044254	-1.481061
F	1.424029	0.0	0.0
H	-1.519797	0.055057	-1.467611
N	-0.456788	1.183784	0.661093
H	-0.305758	1.04764	1.658177
H	-1.480391	1.104653	0.513058
N	-0.476406	-1.262599	0.506885
H	-1.503051	-1.093479	0.442786
H	-0.245875	-1.292188	1.496077
N	0.115073	-1.02292	-2.287427
H	1.115954	-1.038411	-2.11857
H	-0.255145	-1.875178	-1.880912
N	0.025601	1.339271	-2.079522
O	1.181119	1.394143	-2.501908
O	-0.777235	2.268542	-2.114145
F	-2.800158	0.0	0.0
