17

C	0.0	0.0	0.0
C	-0.445342	-0.077403	-1.475773
F	1.403534	0.0	0.0
H	-1.538013	-0.074363	-1.45055
N	-0.453363	1.241989	0.553591
H	-1.481092	1.12779	0.48067
H	-0.209639	1.249615	1.54067
N	-0.472031	-1.217605	0.612466
H	-0.192645	-1.193845	1.589582
H	-1.49889	-1.052264	0.568206
N	0.100896	-1.199342	-2.202701
H	-0.284493	-2.0209	-1.750783
H	1.098924	-1.212386	-2.01656
N	-0.009914	1.164876	-2.187227
O	1.170307	1.230508	-2.534972
O	-0.848431	2.038324	-2.395169
F	-2.799758	0.0	0.0
