15

C	-0.541416	0.026938	-1.427633
C	0.0	0.0	0.0
Cl	-0.296077	-1.563924	-2.235995
H	1.09112	0.0	0.0
H	-1.620715	0.194497	-1.423126
C	0.066005	1.052687	-2.280621
N	0.482378	1.842991	-3.043548
C	-0.36615	-1.227982	0.80832
H	-1.44153	-1.442669	0.801991
H	0.182685	-2.086055	0.419194
H	-0.033453	-1.055938	1.830721
N	-0.443453	1.204438	0.672528
O	-0.953396	2.117563	-0.013196
O	-0.207305	1.316653	1.884552
H	2.507001	0.0	0.0
