15

C	-0.3419	-0.025786	-1.46668
C	0.0	0.0	0.0
Cl	-2.124229	0.075166	-1.788978
H	1.095273	0.0	0.0
H	0.096412	0.85356	-1.938085
C	0.157451	-1.234613	-2.116042
N	0.516177	-2.205708	-2.671099
C	-0.489856	-1.159854	0.825075
H	-0.159997	-2.090517	0.356493
H	-1.577261	-1.169341	0.930095
H	-0.038799	-1.104047	1.815225
N	-0.364936	1.289603	0.554206
O	-0.656017	1.350637	1.75982
O	-0.231898	2.288522	-0.17251
H	2.50212	0.0	0.0
