15

C	-0.353713	-0.029766	-1.463824
C	0.0	0.0	0.0
Cl	-2.138787	0.06484	-1.770539
H	1.095259	0.0	0.0
H	0.077978	0.848644	-1.942885
C	0.143573	-1.241284	-2.109752
N	0.506583	-2.214591	-2.658105
C	-0.484108	-1.159767	0.830183
H	-0.023579	-1.10513	1.816254
H	-0.161945	-2.091359	0.358367
H	-1.57094	-1.165762	0.945163
N	-0.35823	1.288525	0.559205
O	-0.610541	1.351346	1.773063
O	-0.253564	2.286579	-0.173617
H	2.501947	0.0	0.0
