15

C	-0.451508	-0.143626	-1.437155
C	0.0	0.0	0.0
Cl	0.207887	1.091213	-2.555954
H	1.090837	0.0	0.0
H	-0.010455	-1.083468	-1.781306
C	-1.902441	-0.237215	-1.593376
N	-3.061705	-0.393743	-1.705174
C	-0.358183	-1.223721	0.8248
H	0.075315	-1.101922	1.816709
H	-1.438183	-1.381677	0.911394
H	0.108299	-2.100851	0.367447
N	-0.505665	1.20746	0.639394
O	-0.244673	1.349083	1.840742
O	-1.105022	2.05319	-0.043174
H	2.560644	0.0	0.0
