15

C	-0.346363	-0.027259	-1.466114
C	0.0	0.0	0.0
Cl	-2.127357	0.085545	-1.781737
H	1.095281	0.0	0.0
H	0.097137	0.846929	-1.942394
C	0.142119	-1.243299	-2.110986
N	0.486432	-2.219188	-2.667589
C	-0.489297	-1.15934	0.827156
H	-0.160654	-2.090569	0.359311
H	-1.576952	-1.167826	0.931325
H	-0.038925	-1.10252	1.817539
N	-0.360572	1.289666	0.555962
O	-0.242687	2.286608	-0.175262
O	-0.62926	1.352964	1.766407
H	2.50472	0.0	0.0
