15

C	-0.347239	-0.02646	-1.465936
C	0.0	0.0	0.0
Cl	-2.128264	0.092847	-1.783883
H	1.095271	0.0	0.0
H	0.100504	0.844999	-1.942724
C	0.136499	-1.245399	-2.108462
N	0.488325	-2.224574	-2.653328
C	-0.491653	-1.159168	0.826186
H	-0.043018	-1.102589	1.817573
H	-0.162684	-2.09101	0.359588
H	-1.57989	-1.166411	0.928782
N	-0.36156	1.289853	0.554016
O	-0.636625	1.353524	1.762991
O	-0.239062	2.287396	-0.176896
H	2.503401	0.0	0.0
