15

C	-0.360517	-0.034673	-1.461368
C	0.0	0.0	0.0
Cl	-2.149112	0.04568	-1.759222
H	1.095224	0.0	0.0
H	0.060614	0.84673	-1.944295
C	0.141852	-1.242788	-2.109903
N	0.505642	-2.213401	-2.662269
C	-0.477354	-1.159115	0.835314
H	-0.006659	-1.104044	1.816531
H	-1.562969	-1.164903	0.960697
H	-0.159775	-2.091103	0.360985
N	-0.361115	1.288624	0.558123
O	-0.598709	1.35291	1.774354
O	-0.271549	2.285555	-0.178439
H	2.500055	0.0	0.0
