14
Coordinates from ORCA-job run
  C   -0.44104555615027     -0.03751763844405     -0.49720727044489
  C   0.62703264093872      0.80573094132240      0.21746457935246
  F   -0.88457755346386      0.64947490351172     -1.58415152983657
  H   0.15956966526613      1.75985640188681      0.47935399221160
  N   0.00923923448642     -1.29376456253506     -0.87468707280147
  H   -0.73132841809717     -1.84806581805963     -1.28565890278248
  H   0.45487660481453     -1.80164022805434     -0.12205333515356
  N   -1.70553070475983     -0.06258691866880      0.42713386227667
  O   -2.39526662663049     -1.07247894826138      0.36060702286515
  O   -1.93228755946826      0.94375138591015      1.09009260748150
  C   1.76059454682451      1.03949981469987     -0.67907942668244
  N   2.67059236130379      1.24877106153503     -1.38993212506870
  C   1.04786795066187      0.12896741109352      1.44606788615688
  N   1.36026341427389     -0.46099780593624      2.41204971242584
