14
Coordinates from ORCA-job run
  C   -0.51188642124884     -0.06065248308370     -0.35845710293162
  C   0.61862625237050      0.80864670551625      0.21748159737625
  F   -1.08653472731850      0.68020057910038     -1.38166233939222
  H   0.19538788834510      1.79098335792327      0.44650753950860
  N   -0.09792669144997     -1.33627674090912     -0.70208252061247
  H   0.61389086423231     -1.33928459528510     -1.42066849838374
  H   -0.87245494733885     -1.94451869720007     -0.93074298855698
  N   -1.63665887631331     -0.17038981556767      0.67186810713972
  O   -2.36800011286202     -1.14711890787686      0.57698128394657
  O   -1.75454190412157      0.76793577047098      1.45137601175600
  C   1.66217738288206      0.94823940893831     -0.80212418560821
  N   2.48105578120241      1.02685081819514     -1.63968140176817
  C   1.15985159967004      0.21744142924837      1.44260191327323
  N   1.59701391195063     -0.24305682947016      2.42960258425304
