14
Coordinates from ORCA-job run
  C   -0.46963657278702      0.00708467836263     -0.47383420210063
  C   0.67098184763368      0.76747669976048      0.22173273065395
  F   -0.94589079293541      0.77002979444876     -1.49373442147421
  H   0.25835812018363      1.72293143762533      0.56002586846217
  N   -0.09361431172497     -1.24190969584126     -0.94415678849126
  H   -0.87585663990661     -1.74147499909088     -1.34776034098732
  H   0.36683205137785     -1.81068247694358     -0.24589070917453
  N   -1.67788933570789     -0.02086089463245      0.52428263345345
  O   -1.83619994225117      0.96673313256181      1.23345348991350
  O   -2.39489455525487     -1.01215224378721      0.46938944421222
  C   1.76265325155195      1.00736732878005     -0.72359097909117
  N   2.64182291365127      1.22348375288796     -1.47038121912891
  C   1.12845608353973      0.00806662850584      1.38720072107470
  N   1.46487788262983     -0.64509314263747      2.30326377267802
