14
Coordinates from ORCA-job run
  C   -0.52354981963434     -0.01332890985135     -0.37344651498281
  C   0.80391699523573      0.22400218747225      0.40570804054427
  F   -0.89919333099434      1.15734608108064     -0.91493062131535
  H   1.04823484121007     -0.70979072039956      0.92430238048700
  N   -0.52928368853093     -1.01626883836225     -1.36037349397542
  H   0.08585721902433     -0.78886458271013     -2.13124738704033
  H   -0.33256570267490     -1.93227152273191     -0.98148843589858
  N   -1.55141002771991     -0.42558314802346      0.67962738610161
  O   -2.50522486309427      0.30787255234307      0.87020331964712
  O   -1.29176747939810     -1.48930095068130      1.23630904731803
  C   0.65573217864901      1.29244351060797      1.39581485924475
  N   0.51588608245220      2.13477445767123      2.20169843112815
  C   1.85623888213501      0.52738846033006     -0.56488778912445
  N   2.66812871334043      0.73058142325474     -1.38828922213401
