14
Coordinates from ORCA-job run
  C   -0.49670567038620     -0.07656014230488     -0.37437376291378
  C   0.61291090355735      0.81675249293017      0.20529199258978
  F   -1.02735150945661      0.61627791620604     -1.45329777848631
  H   0.18349358527004      1.80891552609434      0.37217261933868
  N   -0.07372766580690     -1.36785887354924     -0.64166379228323
  H   -0.84189456230598     -1.98232155381798     -0.87687563980419
  H   0.66444711627386     -1.40323330809327     -1.33229934366994
  N   -1.66239925757196     -0.13669418055763      0.61331575142443
  O   -1.80447145114084      0.83320098588368      1.34886437063535
  O   -2.39676845324034     -1.11192535306545      0.52826846844425
  C   1.69576845689271      0.90908259203276     -0.77796053243599
  N   2.54553424591719      0.94866973419927     -1.58702750581594
  C   1.10319254964474      0.28189882672754      1.47675630191480
  N   1.49897171235295     -0.13520466268534      2.49982885106210
