14
Coordinates from ORCA-job run
  C   -0.54381535041932     -0.00830759078056     -0.47797866254502
  C   0.60743548988145      0.79810135717585      0.18011189453201
  F   -1.02578937549905      0.80575533965786     -1.46684084063700
  H   0.21086092477013      1.78660820480089      0.43524978850433
  N   -0.25707075161297     -1.28307460988232     -0.93535192724241
  H   -0.61180332843788     -2.02405070174203     -0.35067603150015
  H   0.68353075437484     -1.42643073627241     -1.26833081487407
  N   -1.66405403180713     -0.07803016328524      0.57569855309351
  O   -2.03084343036985     -1.18083544101337      0.96158371733560
  O   -2.08499509623755      1.01055501657291      0.94379702125024
  C   1.70115458465977      0.93543649661172     -0.78255866798929
  N   2.56745455543047      1.00211077601903     -1.57239672404852
  C   1.05871270602528      0.11531837029723      1.39372682861540
  N   1.39022234924180     -0.45515631815956      2.36496586550535
