14
Coordinates from ORCA-job run
  C   -0.53168240343900     -0.03835073996860     -0.35919999608262
  C   0.80162544486838      0.26593224640047      0.38671041597440
  F   -0.99181466388547      1.11621702084387     -0.86946335201990
  H   1.11517253589449     -0.66008881849413      0.88151501257024
  N   -0.50659499639783     -1.02421342104902     -1.36271067531867
  H   0.07101359697058     -0.74886260678722     -2.14685979084569
  H   -0.24565113727073     -1.93263844121603     -1.00498669888302
  N   -1.50217626773575     -0.52775506873233      0.71499315263485
  O   -1.16318659854155     -1.58203677097437      1.24654979974679
  O   -2.49296256420317      0.14323166888870      0.94359344159329
  C   0.61666578617111      1.30640486656143      1.39992684973201
  N   0.44391099546314      2.12322398772776      2.22555718933597
  C   1.80593333555096      0.64660960900204     -0.60694973874324
  N   2.58074693655483      0.91032646779742     -1.44867560969442
