14
Coordinates from ORCA-job run
  C   -0.33170772460552     -0.15724312228939     -0.40504997365596
  C   0.66552221923336      0.30053819858673      0.67341331323138
  F   -0.02914689734162      0.49452191454078     -1.57748163556966
  H   0.28948187465615     -0.03706930525464      1.64349049959788
  N   -0.40341083303481     -1.54770511895857     -0.50577394771936
  H   0.48585295101896     -1.95869419425521     -0.76281773464729
  H   -1.12275443819498     -1.81946203715184     -1.16620890085621
  N   -1.73640862591420      0.31985358938355     -0.03981184542728
  O   -2.58940444748899      0.08179713814084     -0.88451180046549
  O   -1.89649463700268      0.87009028232637      1.04323460890609
  C   0.80414524175370      1.75893042984309      0.68852016494215
  N   0.93662249067103      2.92474644312193      0.70310478815677
  C   1.95942123021573     -0.33700816925643      0.41008641355904
  N   2.96728159603391     -0.89329604877720      0.17980604994790
