14
Coordinates from ORCA-job run
  C   -0.43286497459714     -0.00864669647473     -0.40393350366053
  C   0.87855375911591      0.22709700844763      0.37013007922815
  F   -0.88240302477650      1.14579556437827     -0.92076506935761
  H   1.19274809629014     -0.73358304641773      0.79305623534884
  N   -0.26640262836377     -0.95580791194721     -1.42737468900226
  H   -1.06260746658809     -0.95990466306238     -2.05336069788613
  H   -0.09178330751855     -1.88267379958091     -1.06167421493908
  N   -1.47180616648137     -0.45748637424867      0.65727374101570
  O   -1.14863090510145     -1.48396977351778      1.25130255358942
  O   -2.49831393950000      0.18865345788135      0.78871358525123
  C   0.66150348445740      1.17073507270967      1.47058489116415
  N   0.47293219246470      1.91573744019812      2.35796461584578
  C   1.90640731275586      0.71841245343710     -0.54961140562062
  N   2.74266756784288      1.11464126819728     -1.27130612097704
