14
Coordinates from ORCA-job run
  C   -0.42610756118332     -0.12879855243994     -0.47839306306032
  C   0.99415125594898      0.27037814387966     -0.04954414472118
  F   -0.72949159404391      0.62454647700224     -1.59693625387662
  H   1.64955053051695     -0.09181787131844     -0.85383904505617
  N   -0.55473767815425     -1.50515777416722     -0.64260844094744
  H   0.06615562171294     -1.87301567225103     -1.35084825600055
  H   -1.51611255267935     -1.76443919217293     -0.82806050000682
  N   -1.46202622094525      0.29602625934223      0.55681388558773
  O   -2.60339355294186     -0.08364558628596      0.32566195890608
  O   -1.08366424915352      0.98549799339757      1.49556620647997
  C   1.39188675977987     -0.39434309641146      1.19277993190338
  N   1.75211605426538     -0.94222408651845      2.16593789488112
  C   1.16803317937120      1.72374805752914      0.02395033379679
  N   1.35364000750612      2.88224490041459      0.03951949211403
