14
Coordinates from ORCA-job run
  C   -0.31284871001634     -0.23748225976615     -0.57999254278462
  C   0.98527579922821      0.40763150087060     -0.06686085961454
  F   -0.56258444546922      0.23636023652009     -1.82528583536692
  H   1.74514727395659      0.07932564250398     -0.78709063005137
  N   -0.21917984791471     -1.63366484379915     -0.62506542984047
  H   0.01173785752833     -2.04440390223958      0.27110290968220
  H   -1.07504917787898     -2.03413207874836     -0.99191299476462
  N   -1.52221410003005      0.24905839993553      0.25617713675441
  O   -1.30058210831168      0.91961817781679      1.25940809418432
  O   -2.60938948951305     -0.13634130949609     -0.15486448606536
  C   1.35067171855906     -0.11264388101908      1.25113233182348
  N   1.65374752473589     -0.60395889567788      2.27332601982654
  C   0.92893859590060      1.86986970443278     -0.10128964215449
  N   0.92632910922534      3.04076350866653     -0.17878407162858
