14
Coordinates from ORCA-job run
  C   -0.25851963240936     -0.21748328670675     -0.48717204753083
  C   0.74376441982042      0.28463941402579      0.56968857086418
  F   0.01853887422753      0.32193417744460     -1.68470508939464
  H   0.46210115002133     -0.15509968390361      1.53295222802772
  N   -0.25286425177652     -1.61847213526220     -0.58289379039820
  H   -0.76001488245910     -1.92995983815412     -1.40253117206228
  H   -0.61665494959928     -2.05698784237453      0.25304915069289
  N   -1.63952454325282      0.34265968521612     -0.05393011939925
  O   -1.98768367595108     -0.03162668451222      1.06389132731208
  O   -2.26075879886240      1.04806833279822     -0.83165012690501
  C   0.67446392647167      1.74413185948854      0.68618154920212
  N   0.59708113662032      2.91149878662676      0.78210198480581
  C   2.09478211690017     -0.15118195066506      0.21058614341514
  N   3.18628911024834     -0.49112083402153     -0.05456860862972
