14
Coordinates from ORCA-job run
  C   -0.41032297877780     -0.22752581541758     -0.45524396467851
  C   0.96641094800138      0.34937702025306     -0.09108591762360
  F   -0.77458461467245      0.34549355767903     -1.65939310275222
  H   1.65561914350241     -0.05393032216494     -0.84601314414579
  N   -0.41440597964303     -1.61903821794671     -0.43985080316227
  H   0.24118543940898     -2.01998001943892     -1.09670421532905
  H   -1.34774241225174     -1.98611473241993     -0.58123415739933
  N   -1.48515102178157      0.23315132098705      0.52362191157532
  O   -2.58632774259973     -0.27542728850249      0.35279271810235
  O   -1.17553969823051      1.07176111252007      1.36062115004200
  C   1.41521945289808     -0.10996385157999      1.22458746864617
  N   1.81642084730665     -0.48980159371562      2.25982729358211
  C   1.00926244151378      1.80975663179150     -0.20786673917631
  N   1.09195617532554      2.97224219795548     -0.34405849768087
