14
Coordinates from ORCA-job run
  C   -0.44102815875287      0.03291986840780     -0.39187141196015
  C   0.89654877029208      0.16792241662274      0.36139534329784
  F   -0.85469459510663      1.23436879966161     -0.82415701145305
  H   1.18173349528746     -0.82857566302381      0.71664920518876
  N   -0.33770510063787     -0.85375904780012     -1.47603979697133
  H   -0.19529000447226     -1.80838436054649     -1.17292800550598
  H   -1.14724503387267     -0.78486412733329     -2.08089471739055
  N   -1.47292581511585     -0.44054708160650      0.66594185592519
  O   -2.46903594647861      0.23586819357670      0.86253233882880
  O   -1.17749977150617     -1.51307974228899      1.18864817269580
  C   0.74220573941196      1.04958906624867      1.52235702082206
  N   0.59834515443002      1.74656758669753      2.45589516038250
  C   1.92090390351974      0.67627326924280     -0.55301618597618
  N   2.75268736300167      1.08570082214134     -1.27251196788370
