14
Coordinates from ORCA-job run
  C   -0.42814383882223     -0.14012877653145     -0.47308523822467
  C   0.97240037084319      0.34199414447131     -0.06372239372085
  F   -0.81329773950505      0.63109479851220     -1.55333964699114
  H   1.62933231042451      0.05757667071789     -0.89751518686756
  N   -0.46491893852294     -1.51506945560084     -0.68757158912217
  H   0.15994669546226     -1.81204229701239     -1.42491302211967
  H   -1.41064218236785     -1.83505453203377     -0.85793883177035
  N   -1.46238640940101      0.17117929938029      0.60323681611768
  O   -2.57999006397692     -0.28069011885312      0.38663518975987
  O   -1.10802036196932      0.85144986524556      1.55802240127163
  C   1.44776028723659     -0.33976120599186      1.14144723276597
  N   1.86492291059100     -0.89954348219058      2.08461833048236
  C   1.04561643739631      1.80026453607586      0.06283667874117
  N   1.14742052261144      2.96773055381091      0.12228925967774
