14
Coordinates from ORCA-job run
  C   -0.39075163728833     -0.24507075302853     -0.46290728635880
  C   0.96392295394159      0.36054647042164     -0.06483359813143
  F   -0.71691675866726      0.28805999965628     -1.69566383065642
  H   1.68578599434290     -0.05522682407686     -0.78161142992340
  N   -0.37765575549400     -1.63593669648169     -0.40723747281251
  H   0.30551989013374     -2.04461076367072     -1.03077510937755
  H   -1.30035914997597     -2.01899286809672     -0.57348049089884
  N   -1.50697192343280      0.22845684423258      0.46210486043092
  O   -2.59452851953383     -0.29955321082291      0.26562834992581
  O   -1.23866918092949      1.09380698638255      1.28603231551013
  C   1.37050520109901     -0.05687757596805      1.27819282977294
  N   1.74028897169395     -0.40813936875658      2.33507189613321
  C   0.99345056653342      1.81710372181110     -0.22250190074071
  N   1.06637934757707      2.97643403839791     -0.38801913287334
