14
Coordinates from ORCA-job run
  C   -0.50780063961516     -0.04896908658192     -0.36419318184236
  C   0.64296832763649      0.79064683882498      0.21549415070680
  F   -1.03913011046351      0.69210933672578     -1.41054166834571
  H   0.24924011735105      1.78925066540739      0.42570226148172
  N   -0.13344254015813     -1.34471470352585     -0.67743505610977
  H   0.59277342329181     -1.38519718496284     -1.38039435314711
  H   -0.92546920553703     -1.92685921938065     -0.91546448513988
  N   -1.65339066418492     -0.10039352085341      0.64765120251934
  O   -2.42126096459829     -1.04844095521386      0.55097746900796
  O   -1.74695425369563      0.85092715789322      1.41462149577611
  C   1.70329391181819      0.88227522333008     -0.79210786915664
  N   2.53452113683416      0.92200037733961     -1.62023789010118
  C   1.14813795924256      0.19749143650122      1.45475161418466
  N   1.55651350207841     -0.26912636550374      2.45117631016604
