14
Coordinates from ORCA-job run
  C   -0.45248323835380     -0.01074996368608     -0.48744675691868
  C   0.64657078605589      0.78544586484550      0.23439856145483
  F   -0.90662838346911      0.72436439633587     -1.53784657975479
  H   0.20203079449669      1.73519244208684      0.54682358875959
  N   -0.03398641808342     -1.25975857539021     -0.92152449814703
  H   0.41670430431706     -1.80406080009044     -0.19791997216539
  H   -0.79325905222977     -1.78432211477479     -1.33724337451291
  N   -1.69777515379001     -0.04904129429501      0.46280544874006
  O   -1.88307502072625      0.92618176830342      1.18247692899982
  O   -2.41507002863245     -1.03633171911028      0.36017655585294
  C   1.76133431677916      1.03874920389400     -0.68003350920422
  N   2.65789381428775      1.26579945820229     -1.40254172920371
  C   1.08571933770434      0.05146484986873      1.42272258045181
  N   1.41102394164392     -0.58393351618983      2.35515275564770
