14
Coordinates from ORCA-job run
  C   -0.55163324328330      0.03512729664701     -0.32803785133204
  C   0.83751420613415      0.16949861022093      0.36377986550497
  F   -0.95520117776087      1.26547691021993     -0.68614043692085
  H   1.10941360979153     -0.82233066911103      0.74185852479346
  N   -0.65004772290611     -0.83587700686919     -1.42876887319536
  H   -0.43527915912643     -1.79267772898394     -1.18456566395452
  H   -0.09675221026296     -0.51510198456823     -2.21313023221222
  N   -1.49615366690715     -0.50401182517135      0.74558818685023
  O   -1.20518162703655     -1.62956005628188      1.14246125226151
  O   -2.42370888271817      0.20069507347337      1.10215800921105
  C   0.78181875954133      1.10704288922762      1.48703156910280
  N   0.71294375536608      1.84471738547135      2.39788692151854
  C   1.81274844497621      0.58741488448832     -0.64375676736527
  N   2.56051891419224      0.88858622123710     -1.49736450426230
