14
Coordinates from ORCA-job run
  C   -0.31588596556167     -0.22803528723741     -0.58193985471111
  C   0.99727809026114      0.38256793309057     -0.06416412145937
  F   -0.54798305357817      0.25062160182911     -1.82826826984369
  H   1.75022336978510      0.03945195516440     -0.78467343891173
  N   -0.25831307537893     -1.62657420925249     -0.62506560497940
  H   -1.12143608369788     -2.00565928770130     -0.99766523673327
  H   -0.04338181900515     -2.04225849248350      0.27279268880059
  N   -1.51435372706917      0.28924653342561      0.25076912325582
  O   -2.61121344605182     -0.04866135272401     -0.17567791267922
  O   -1.27644620880148      0.93057834421949      1.26927727213082
  C   1.34894365058511     -0.15134460938898      1.25221115237445
  N   1.64932129311270     -0.65173777606963      2.27073790066007
  C   0.97347535261208      1.84596162285918     -0.09121541825240
  N   0.97177162278813      3.01684302426895     -0.16811827965157
