14
Coordinates from ORCA-job run
  C   -0.50069732230509      0.00847916022083     -0.37679647048525
  C   0.66776810110152      0.73661643143591      0.30850300628399
  F   -0.97690431980832      0.87327432787064     -1.35207776055452
  H   0.30870551524139      1.72433490671049      0.61195729312469
  N   -0.16992896807532     -1.26317979967567     -0.81373614811603
  H   0.57366862137973     -1.26199518879215     -1.49957814161959
  H   -0.97754560111661     -1.78296746025768     -1.13060836248796
  N   -1.67196330869723     -0.09948531987686      0.60003880359917
  O   -1.73657364398359      0.75631081787420      1.47489003825815
  O   -2.48541000850840     -0.98539259577087      0.37279572997143
  C   1.75432891694332      0.88663558226082     -0.66379346972818
  N   2.60531987881074      0.97740291770794     -1.46742848465040
  C   1.12128983393660      0.00224447735206      1.49101905559769
  N   1.48894230508125     -0.57427825705965      2.44481491080679
