14
Coordinates from ORCA-job run
  C   -0.34395440820366     -0.21654773951923     -0.57088527547236
  C   1.00044033574869      0.36588158688907     -0.10277309019180
  F   -0.62229161682986      0.28354485761810     -1.79944151261677
  H   1.71693596496181      0.01613064233450     -0.85644048916822
  N   -0.31267774495543     -1.61476481735799     -0.63512644901081
  H   -1.19819305621705     -1.97370917904760     -0.97361902410411
  H   -0.06593818732186     -2.04650194234512      0.24687282249794
  N   -1.49690266463286      0.31005341168317      0.31969996190089
  O   -1.20638146737124      0.95440195561246      1.32241006261616
  O   -2.61534718529964     -0.02106733188724     -0.05280734819526
  C   1.39296617354910     -0.18668071126549      1.19413479287413
  N   1.70928032238979     -0.70137785225902      2.20068981195462
  C   1.00273825572059      1.82970509196461     -0.11617233979216
  N   1.03932527846162      3.00093202757977     -0.17654192329225
