14
Coordinates from ORCA-job run
  C   -0.43673823331634     -0.12134186787558     -0.47111702583810
  C   0.99108169091422      0.27786798115522     -0.06791096233810
  F   -0.77121607375103      0.65358095829704     -1.56574837908848
  H   1.62916214466673     -0.06280698489812     -0.89521594203926
  N   -0.56109682361054     -1.49459371458425     -0.66133842323427
  H   0.04504148229949     -1.84411690110355     -1.39119473395783
  H   -1.52501980542892     -1.75660091244591     -0.82854750735192
  N   -1.44988119054870      0.27493786922081      0.59746539111764
  O   -2.59411204163496     -0.10762389335469      0.38616652977402
  O   -1.05333577179018      0.94817525554617      1.54044998883864
  C   1.42246876198678     -0.41060077509100      1.15001084499156
  N   1.80880350864645     -0.97672606469601      2.10253400875470
  C   1.15811890007249      1.73042823559044      0.03255605125210
  N   1.33772345149450      2.88942081423944      0.06889015911929
