14
Coordinates from ORCA-job run
  C   -0.41926326074762     -0.04279892523603     -0.41513157716232
  C   0.86512413061872      0.26330329914034      0.37959155194381
  F   -0.86134615366700      1.06564005243669     -1.02966326117694
  H   1.17027103610998     -0.65790630139142      0.88820950518731
  N   -0.21401033311990     -1.06134885504217     -1.35987154735337
  H   -0.99324879245298     -1.12272080110585     -2.00417577025996
  H   -0.03975475377629     -1.95592671334487     -0.92076983971043
  N   -1.48730703572183     -0.42192993447900      0.64474832876582
  O   -2.52134778609732      0.22335111509464      0.69806171233699
  O   -1.17527133442404     -1.39844053272474      1.32295077376497
  C   0.60327639398471      1.28974575957352      1.39294253976405
  N   0.37130208159656      2.10208583818793      2.20787109890164
  C   1.92087113746837      0.68837528259329     -0.54143885429983
  N   2.78170467022865      1.02957071629768     -1.26232466070175
