14
Coordinates from ORCA-job run
  C   -0.40548554530902     -0.23579057226550     -0.45389262134662
  C   0.96629092982758      0.35237329901150     -0.08878467755847
  F   -0.76316157141488      0.31688833086363     -1.66931536361227
  H   1.66231116003813     -0.05799731914096     -0.83368460942913
  N   -0.40379907622271     -1.62745093874261     -0.41775187255909
  H   0.25554868056913     -2.03301284010270     -1.06823605764194
  H   -1.33500062519641     -1.99897806626946     -0.56209537208764
  N   -1.48909946052799      0.23483271029599      0.50995518687479
  O   -1.18885072988805      1.08644783427570      1.33724685638249
  O   -2.58734724287214     -0.27939248627692      0.33769534369496
  C   1.40880450779389     -0.08745883722654      1.23564445128778
  N   1.80526125860649     -0.45504273553299      2.27718283843182
  C   1.00177273001163      1.81112823725759     -0.22583539641861
  N   1.07275498458435      2.97245338385328     -0.37712870601808
