14
Coordinates from ORCA-job run
  C   -0.56147131421680     -0.02425557954803     -0.46749428838299
  C   0.57182326868202      0.81012106538647      0.20431341053639
  F   -1.04478232150026      0.77073069234528     -1.45736905968204
  H   0.14678676434314      1.78090464845325      0.48333902911230
  N   -0.26926417262286     -1.29504462962335     -0.95377599749640
  H   0.55492755861421     -1.32246405634948     -1.53756087935024
  H   -0.28156982410977     -2.01212164942211     -0.24396152861756
  N   -1.66020990826588     -0.13699897254653      0.59908677392229
  O   -1.87504044578078     -1.24063613519890      1.08397142621523
  O   -2.19996854473862      0.92173325075172      0.89190955834549
  C   1.64738300934303      0.99814639204316     -0.76939990993539
  N   2.49106875389952      1.10310848057305     -1.57926701773222
  C   1.05908302437568      0.11588534279803      1.39661049707889
  N   1.42123415197737     -0.47010884966258      2.34759798598626
