14
Coordinates from ORCA-job run
  C   -0.44575168209442      0.04488692883694     -0.49467792350123
  C   0.64366603155647      0.75446877610700      0.32599567077535
  F   -0.88565694432117      0.89232433464305     -1.46294147198954
  H   0.19647409694271      1.66827968353661      0.72899831289510
  N   -0.02099937842387     -1.14896504111263     -1.05816515909374
  H   -0.77378441708639     -1.62415362719632     -1.54002835444470
  H   0.41882423629242     -1.77051949160789     -0.39241523927595
  N   -1.70157821012430     -0.09528828265920      0.43196308960740
  O   -1.91054453947966      0.81371223974506      1.22793423956501
  O   -2.40000898104068     -1.08285078047598      0.24040075675818
  C   1.77634366010216      1.09641637023192     -0.53604524544735
  N   2.68736469136708      1.39225103624867     -1.21414984985075
  C   1.05720838931224     -0.10413806500428      1.43786808988418
  N   1.36044304699740     -0.83642408129295      2.30426308411804
