14
Coordinates from ORCA-job run
  C   -0.42917128915462     -0.02790161718717     -0.40574248308849
  C   0.87540094269532      0.24715549481328      0.36675638875550
  F   -0.87615832987224      1.09987780703766     -0.98008455680240
  H   1.18500165989903     -0.68943274108184      0.84365332011252
  N   -0.25392696063281     -1.02246874212932     -1.38164386142493
  H   -0.07796285355874     -1.93000460609016     -0.97063216897002
  H   -1.04754121015643     -1.06004845777553     -2.01009113629890
  N   -1.47631358381277     -0.42788582346715      0.66761304875701
  O   -1.15627360487809     -1.42393088101374      1.31278820022939
  O   -2.50513192052502      0.22136236503772      0.75917495317265
  C   0.64677345849136      1.24859385258165      1.41246083598003
  N   0.44284262233534      2.04036636376255      2.25467082861949
  C   1.91319954995996      0.68690495458628     -0.56784069424819
  N   2.75926151920972      1.03641203092575     -1.30208267479366
