14
Coordinates from ORCA-job run
  C   -0.49845733729117     -0.14286828088956     -0.57141279583469
  C   0.93831896522159      0.31799498000943     -0.17242137617214
  F   -0.76158344796760      0.46342772573050     -1.74730729304313
  H   1.56319600165812      0.07490411138763     -1.04205691529367
  N   -0.73382731158858     -1.52397865467042     -0.67416959604870
  H   -0.70479351068387     -1.98298987675320      0.22646324563543
  H   -0.11790112563246     -1.97064601467769     -1.34034665549258
  N   -1.46560068744378      0.40017351830027      0.47744158753110
  O   -2.13295520211559      1.37655876669111      0.17880987644313
  O   -1.44984037795384     -0.20617791295963      1.54434976320794
  C   1.44216161016192     -0.43021771926975      0.97962873994019
  N   1.86422635521800     -1.06466827860372      1.87289514854242
  C   1.00546111009851      1.76422461002159      0.04877977094505
  N   1.05259495831876      2.92526302568346      0.21834649963966
