14
Coordinates from ORCA-job run
  C   -0.49442704747431     -0.03378432351588     -0.23049253845994
  C   0.90957102407677      0.13956168244444      0.37461487729944
  F   -1.02037830918125      1.21507715734127     -0.46455330819779
  H   1.23012844510696     -0.83106048681505      0.76386481291110
  N   -0.49498397827934     -0.88940801070009     -1.33332817558460
  H   0.08852995237269     -0.54438679637920     -2.08571838440048
  H   -1.44083949348145     -1.04593787321034     -1.66228550530997
  N   -1.42428128579850     -0.66609856797435      0.80363124477852
  O   -0.94076154261502     -1.03355732803330      1.86788498051191
  O   -2.59089942420749     -0.76179022705260      0.44637316377567
  C   0.90506566303273      1.11985973131603      1.46335016563703
  N   0.92030043571637      1.91148216241789      2.32932987475449
  C   1.82518463869452      0.55780053654612     -0.69155492572546
  N   2.52779092203733      0.86024234361506     -1.58211628198992
