14
Coordinates from ORCA-job run
  C   -0.36387196524513     -0.10448064929729     -0.59004816750839
  C   1.01926155456834      0.31603506388362     -0.06546900823615
  F   -0.62338454348659      0.59568040181152     -1.72129262296254
  H   1.70442633831286      0.04419880754805     -0.87810740666794
  N   -0.42141335344916     -1.47512007406281     -0.86914412678668
  H   -0.19102522838136     -2.05223638650366     -0.06981423704084
  H   -1.33206801233155     -1.72348549271794     -1.23863046623686
  N   -1.47169699852133      0.34731630954769      0.39397638319220
  O   -1.13030605646484      0.81195671155553      1.47680248393429
  O   -2.61274487897832      0.14602840161178     -0.00201979520381
  C   1.39056790998122     -0.45282750594936      1.12311095083836
  N   1.68814045700621     -1.13667121967665      2.02963683516638
  C   1.11511493887147      1.76153106539050      0.14585684417906
  N   1.23099983811817      2.92307456685900      0.26514233333293
