14
Coordinates from ORCA-job run
  C   -0.49961160018893     -0.03090295631767     -0.37735620557203
  C   0.63031758140883      0.77884695324708      0.27980991591616
  F   -1.01474531352264      0.77179784721424     -1.38563211130421
  H   0.22311402146573      1.75942214790464      0.54293263214366
  N   -0.10744500088901     -1.30104820173699     -0.76504745570498
  H   0.63661093216794     -1.29156934812407     -1.45021944793790
  H   -0.88916448363257     -1.87020214959495     -1.06156461128592
  N   -1.66695103045700     -0.15744252307214      0.60187677358035
  O   -2.43674176869026     -1.08905081647789      0.40795339277433
  O   -1.77495434375130      0.72754977813614      1.44271944301391
  C   1.71169956707760      0.94192070257688     -0.69608338487652
  N   2.55991374421075      1.04302877031290     -1.50141279681809
  C   1.11568203808475      0.11642848161190      1.49176818523570
  N   1.51127565671611     -0.39877868568007      2.46925567083554
