15

C	0.0	0.0	0.0
C	-0.547622	0.075835	-1.43394
Cl	1.801072	0.0	0.0
H	-1.638747	0.256194	-1.299465
N	-0.337816	1.344393	0.731754
O	-0.295951	1.288029	1.953059
O	-0.585809	2.331315	0.054087
N	-0.510067	-1.113699	0.661235
H	-1.538395	-1.052458	0.611379
H	-0.213139	-1.101036	1.630187
C	-0.361229	-1.221521	-2.088628
N	-0.178471	-2.23565	-2.652021
C	0.056737	1.111213	-2.270733
N	0.515495	1.909199	-3.000003
Cl	-3.41821	0.0	0.0
