15

C	0.0	0.0	0.0
C	-0.397523	-0.036577	-1.517938
Cl	1.766062	0.0	0.0
H	0.450879	0.411249	-2.042083
N	-0.316961	1.439288	0.53612
O	-0.544019	1.522542	1.733835
O	-0.219017	2.364485	-0.26015
N	-0.533875	-1.024792	0.759866
H	-0.290857	-0.89412	1.734537
H	-1.563711	-0.959847	0.654879
C	-1.538732	0.731411	-2.042379
N	-2.147625	1.403768	-2.792354
C	-0.463766	-1.4317	-1.960459
N	-0.491773	-2.523723	-2.38934
Cl	-3.323685	0.0	0.0
