15

C	0.0	0.0	0.0
C	-0.274309	-0.025472	-1.565568
Cl	1.768338	0.0	0.0
H	0.126118	-1.012575	-1.835761
N	-0.439181	1.360401	0.570027
O	-0.638755	2.2494	-0.247583
O	-0.48261	1.45335	1.785353
N	-0.539508	-1.015033	0.788956
H	-0.260217	-1.924668	0.442645
H	-1.569196	-0.907425	0.752153
C	0.539776	0.946345	-2.314949
N	1.181119	1.661686	-2.99082
C	-1.610693	0.031345	-2.185579
N	-2.364217	0.034542	-3.092561
Cl	-3.346496	0.0	0.0
