15

C	0.0	0.0	0.0
C	-0.304842	0.239084	-1.52201
Cl	1.76444	0.0	0.0
H	0.067858	-0.698019	-1.955872
N	-0.389046	1.249843	0.832921
O	-0.407371	1.078643	2.044921
O	-0.600883	2.294138	0.233489
N	-0.544382	-1.191302	0.471063
H	-1.572991	-1.083002	0.39483
H	-0.29982	-1.304225	1.449149
C	0.519501	1.31652	-2.0962
N	1.158635	2.129668	-2.652504
C	-1.644654	0.438363	-2.105631
N	-2.38173	0.635277	-3.005241
Cl	-3.365828	0.0	0.0
