17

C	-0.149917	-0.163151	-1.523068
C	0.0	0.0	0.0
F	-1.271436	-0.86894	-1.872858
H	1.094733	0.0	0.0
N	-0.320878	1.22929	-2.147819
O	0.680056	1.934106	-2.134866
O	-1.425388	1.542878	-2.580173
N	1.000239	-0.753371	-2.120579
H	1.813414	-0.517044	-1.511224
H	0.870434	-1.756947	-2.126732
C	-0.433356	-1.273821	0.723534
H	-1.5087	-1.455373	0.653702
H	0.104657	-2.123579	0.296863
H	-0.148415	-1.200694	1.774722
C	-0.623036	1.17592	0.565219
N	-1.138906	2.105052	1.069226
F	2.617372	0.0	0.0
