17

C	-0.49233	-0.009321	-1.440312
C	0.0	0.0	0.0
F	-0.064202	1.123753	-2.05084
H	1.094171	0.0	0.0
N	0.158228	-1.179605	-2.175406
O	1.110184	-0.951173	-2.901525
O	-0.35461	-2.281056	-1.971539
N	-1.898466	-0.130697	-1.712624
H	-2.21039	-1.03731	-1.386479
H	-2.371846	0.590447	-1.178338
C	-0.375782	-1.236524	0.818182
H	-0.034816	-1.075461	1.8422
H	-1.450359	-1.451964	0.836968
H	0.160125	-2.101621	0.429964
C	-0.543965	1.194208	0.615099
N	-1.028762	2.141929	1.117769
F	2.51637	0.0	0.0
