17

C	-0.068258	0.024501	-1.538861
C	0.0	0.0	0.0
F	-0.005042	-1.273573	-1.972515
H	1.097639	0.0	0.0
N	-1.42538	0.53506	-2.031323
O	-1.517324	1.727314	-2.315202
O	-2.351018	-0.272787	-2.043966
N	0.970215	0.768681	-2.139001
H	0.729507	1.750865	-2.129855
H	1.802073	0.605122	-1.536484
C	-0.636887	-1.19677	0.68565
H	-0.154193	-2.106231	0.330403
H	-0.478176	-1.124919	1.764125
H	-1.7109	-1.264259	0.489418
C	-0.445526	1.270973	0.538251
N	-0.795052	2.297308	0.995338
F	2.612066	0.0	0.0
