13

C	0.0	0.0	0.0
C	-0.506891	0.201025	-1.413466
F	1.387746	0.0	0.0
H	-1.591696	0.064765	-1.381279
H	-0.34459	-0.953665	0.405579
H	-0.069847	-0.605033	-2.014835
C	-0.393082	1.088222	0.917477
N	-0.545724	1.996234	1.644958
C	-0.141245	1.56544	-1.983294
H	0.933938	1.75888	-1.910259
H	-0.430248	1.624252	-3.037405
H	-0.67517	2.354814	-1.447933
Br	-3.757828	0.0	0.0
