16
Coordinates from ORCA-job run
  C   -0.73137786637884     -0.28930105130317      0.31436048907478
  C   0.65388315228188      0.33741707366910      0.41063980326484
  F   -1.03610004819965     -0.89555644202970      1.47221972845945
  H   0.59390160756860      0.95121459349563      1.31976461834066
  N   -1.77600765131254      0.78332124594246      0.07309484299005
  O   -1.87965568426447      1.58043721891433      0.99520847458354
  O   -2.40060264211911      0.76406710476440     -0.97710342746105
  N   -0.84951764579704     -1.31182275077186     -0.79639945867417
  O   -0.33212966506512     -1.00838587105701     -1.86148603429957
  O   -1.46187595529395     -2.33560808233680     -0.53212027691002
  N   0.87080277748500      1.22869727010754     -0.68906553233634
  H   1.60974903908463      1.88697943292960     -0.48815895187742
  H   1.06334559256468      0.71942827284754     -1.54065794445677
  N   1.59197404720951     -0.77618313474091      0.51000027409671
  H   2.53226563258098     -0.43442367560683      0.35877294801950
  H   1.55234530965543     -1.20028120482432      1.42993044718583
