16
Coordinates from ORCA-job run
  C   -0.69175771653096     -0.16086688007165      0.46191805078764
  C   0.80681547873852      0.00446270700035      0.24285120700825
  F   -0.99109562129078      0.07939119563476      1.74787548056468
  H   1.25023663016577     -0.64424330395340      1.01059300752698
  N   -1.52773760743255      0.76577937722317     -0.39584536173093
  O   -1.17378540033115      0.88367283698293     -1.55987603565100
  O   -2.48468924409144      1.29650241497422      0.14776647316519
  N   -1.11196787295483     -1.58532191394009      0.15480006904331
  O   -0.61443926024932     -2.41389655289471      0.90467389810079
  O   -1.87905197105409     -1.77962370780397     -0.77644946529544
  N   1.08614737209055      1.42396425591984      0.43503927436524
  H   2.01555691089580      1.63021329157533      0.09229319398435
  H   1.04837621137810      1.66928140457838      1.41793074032140
  N   1.18198032667322     -0.52965811194539     -1.03180221045360
  H   2.17034388930767     -0.73350696603464     -1.06824675642491
  H   0.91406787468549      0.09184995275485     -1.78252156531195
