16
Coordinates from ORCA-job run
  C   -0.67087568095862     -0.16385483969844      0.37691747975447
  C   0.85759012521382      0.03406220285715      0.30637868091163
  F   -1.15239544821810      0.25597781625955      1.55452405799654
  H   1.27675416539949     -0.74575780483954      0.96056359606290
  N   -1.35444940978708      0.61556368000300     -0.72536009629307
  O   -1.71550932918551     -0.00549512228881     -1.71376660042664
  O   -1.43098665207708      1.82040871478522     -0.52356590053024
  N   -1.10935211657158     -1.60558050780902      0.20461093442308
  O   -2.22639217410081     -1.87816942527213      0.61982827582445
  O   -0.31049593008676     -2.36464311603504     -0.33480239586910
  N   1.28090167935131      1.31101292803730      0.81551316634754
  H   0.82204178108518      2.05777444330074      0.30638605083479
  H   1.06671257831615      1.40527284948222      1.79919523847626
  N   1.25856781080080     -0.03458959485166     -1.07821207338792
  H   2.21856963050520      0.28055645666369     -1.13631902246135
  H   1.19131897031361     -0.98053868059421     -1.42989139166333
