16
Coordinates from ORCA-job run
  C   -0.73359773715899     -0.21337366102030      0.45308682505392
  C   0.77511720392861      0.00118465349850      0.38095599887689
  F   -1.17811998364118     -0.13800989282986      1.70691983816819
  H   1.14763122857822     -0.64051986757204      1.18554505003551
  N   -1.51489982257118      0.78199893725703     -0.37786889086589
  O   -0.92737476819677      1.26531755494542     -1.34139477994598
  O   -2.66365799807905      1.00149869226457     -0.02797101587074
  N   -1.08389652634699     -1.59186068145269     -0.08129190970782
  O   -1.61843447165685     -1.66141107822147     -1.17807665345075
  O   -0.75791297724902     -2.50720235777755      0.65949674032913
  N   1.02279417592529      1.37875211581463      0.76155204608723
  H   1.91583849110464      1.47094816521038      1.22499535466663
  H   1.00737086349118      1.98160118339235     -0.05096671252069
  N   1.27607732064653     -0.53239980453364     -0.86345901373759
  H   2.27511142707132     -0.67726127826314     -0.81541956117094
  H   1.05795357415423      0.08273731928783     -1.63610331594710
