16
Coordinates from ORCA-job run
  C   -0.67405487388760     -0.31512545710476     -0.40649284299847
  C   0.73613896713623      0.25494814470508     -0.32080698250736
  F   -0.78758587878219     -1.08004779261692     -1.50285877483465
  H   0.88069462738483      0.72674009523400     -1.30230720125365
  N   -1.05430151918971     -1.15614477365229      0.79395765147744
  O   -1.66538687457653     -2.18895737741933      0.56430386834447
  O   -0.72677215048934     -0.71274575661327      1.88516908261238
  N   -1.68619151501514      0.80834914688092     -0.52691712368333
  O   -1.57628096199273      1.45614141715961     -1.55879157241095
  O   -2.49075100124304      0.96840003128025      0.37880984365959
  N   1.61533435163717     -0.88496397493451     -0.07931182226008
  H   1.74069990040787     -1.42954479328985     -0.92502754559518
  H   2.52189259838442     -0.54940786356692      0.21941716796586
  N   0.78989526649519      1.29525548099801      0.66194439364349
  H   1.59182742489769      1.89257523265226      0.52062586561859
  H   0.78484163883284      0.91452824028771      1.59828599222186
