16
Coordinates from ORCA-job run
  C   -0.64519440293633     -0.23847533963504      0.32126438177272
  C   0.70233980063631      0.19315455582928     -0.24237512463214
  F   -0.60667161678691     -0.42060301977806      1.63512293986123
  H   0.60508349306405      0.19934838723402     -1.33140857633674
  N   -1.75252448595724      0.75209591795034      0.01513096487517
  O   -1.57324061214607      1.50072979507666     -0.94004581931820
  O   -2.74048882719964      0.68808064270321      0.73430597678193
  N   -1.08635057699178     -1.53624626376583     -0.33653712200111
  O   -1.21851545687627     -1.46777916527186     -1.55297043976459
  O   -1.25384271526197     -2.50294172004873      0.38659407734464
  N   1.60915835752893     -0.86190944378988      0.12620388698573
  H   1.83129023885314     -0.81461703245228      1.11309140708422
  H   2.45872974466551     -0.82725885994327     -0.41908975649532
  N   1.01858721803528      1.49168304681749      0.33865007173553
  H   2.02279866404956      1.60490193938352      0.37279444619745
  H   0.62784117732342      2.23983655969044     -0.22073131409051
