16
Coordinates from ORCA-job run
  C   -0.74027675518337     -0.27956197241616      0.30222847988415
  C   0.75721677642705     -0.00746246131651      0.37004219500417
  F   -1.25171155293382     -0.31168700094479      1.54243786263615
  H   1.12519523060029     -0.77480658303720      1.06478725323784
  N   -1.50205925111430      0.76021983509408     -0.49288580801931
  O   -2.56917848558216      1.12943286362124     -0.02601686360986
  O   -0.98281163882834      1.12194980632899     -1.53873790797261
  N   -0.99867160094017     -1.63235706399558     -0.33273777174635
  O   -1.59578227692005     -1.67251328284845     -1.39821998570726
  O   -0.56146386455396     -2.56997801671749      0.32016590487133
  N   0.89473540242533      1.35697969859931      0.86950676169423
  H   1.84737529013903      1.66818159212437      0.73012894150844
  H   0.68784291755924      1.40102323127312      1.86092093817219
  N   1.36398641924871     -0.26139248150521     -0.90189144835957
  H   2.35867455820043     -0.41025338303666     -0.81211734122175
  H   1.16792883145608      0.48322521877696     -1.55661121037183
