16
Coordinates from ORCA-job run
  C   -0.63343983535254     -0.26284471335610     -0.39572395381673
  C   0.83087496733019      0.20437203176689     -0.35095201053528
  F   -0.82985216410994     -1.05962146877077     -1.46150871080829
  H   0.99980567691107      0.65656429937680     -1.33871662316341
  N   -1.00108695760912     -1.02582226208314      0.85084050497785
  O   -1.20123301919349     -2.22277736246947      0.74879141930104
  O   -1.02845763739488     -0.33775008446519      1.86598447413081
  N   -1.64905326512463      0.85295387795735     -0.51810751432960
  O   -2.81480594345807      0.53188600088693     -0.32426715888454
  O   -1.23100598855348      1.95169541675972     -0.87055795598493
  N   1.58875101548755     -1.00312936167092     -0.08364909468685
  H   1.55284420123255     -1.64777675313284     -0.86341450820653
  H   2.55037503277024     -0.73084796790981      0.07719065662583
  N   1.18873560260080      1.17179064450930      0.64381609165852
  H   0.76136536832612      2.06669332254872      0.45275179600845
  H   0.91618294613763      0.85461438005251      1.56552258771369
