16
Coordinates from ORCA-job run
  C   -0.56770347314512     -0.23711863444875      0.29307717996369
  C   0.69888661322825      0.34827917088884     -0.32141772812680
  F   -0.42991086529901     -0.40891107830358      1.61312448033880
  H   0.51307532101050      0.44219198435071     -1.39133865216226
  N   -1.75621637059719      0.66992546736020      0.03745504595923
  O   -2.29715630526430      1.17459748013845      1.00549810266693
  O   -2.03221561471373      0.80577442087992     -1.14787928421732
  N   -0.96154867598175     -1.57592899575632     -0.30338575782969
  O   -0.52389594335158     -1.83834627167879     -1.41818224548455
  O   -1.70906179066254     -2.26148878858987      0.38306133350037
  N   1.86517503717827     -0.48704090569134     -0.13417423889122
  H   1.97182445327932     -0.76755682159439      0.83336799718754
  H   1.83292577703299     -1.30983528112724     -0.72248376060202
  N   0.80456737177355      1.67111997299755      0.24918813019056
  H   1.56012996086888      2.16238346029106     -0.21151965522526
  H   1.03212450464344      1.61295482028349      1.23560905273198
