16
Coordinates from ORCA-job run
  C   -0.64307645686166     -0.31760412914990     -0.45417233758758
  C   0.73944003051405      0.29689483614532     -0.27375350218935
  F   -0.67788310649141     -1.02724196152565     -1.59219048987150
  H   0.91025312154296      0.82382597368668     -1.22233236211379
  N   -1.04447840222234     -1.23377101597513      0.68258681436607
  O   -0.77787098326487     -0.84018726007388      1.80891925780154
  O   -1.61015931880182     -2.27137392912404      0.37247468577157
  N   -1.69085026260241      0.77334041742906     -0.56422421941367
  O   -2.54060264339489      0.85650960360220      0.31012089955753
  O   -1.55990441936264      1.47841807031262     -1.55532079501294
  N   1.64920720797546     -0.82259488553826     -0.05064799425364
  H   2.51935290395211     -0.47521306337554      0.33081386774047
  H   1.85074182470536     -1.30430810541018     -0.91921407428844
  N   0.70920196117230      1.28586921856012      0.76146490797914
  H   1.49330610241680      1.91805437937573      0.68886794914119
  H   0.67332244072299      0.85838185106085      1.67660739237342
