16
Coordinates from ORCA-job run
  C   -0.68773041121075     -0.19438050755927      0.25613418235680
  C   0.73376653959843      0.15061901227323     -0.16836236283135
  F   -0.80594630596428     -0.30899803262368      1.57292812981007
  H   0.76110237412897      0.10416725507619     -1.26040348153399
  N   -1.70540286845912      0.82399554862417     -0.22160842222412
  O   -1.38492586639121      1.51202856241416     -1.18538737546247
  O   -2.76961412817678      0.83950848035017      0.38215402237903
  N   -1.11326802269942     -1.50523693253087     -0.38589727779880
  O   -1.10019114990510     -1.49635062507871     -1.61125610167007
  O   -1.40962578882557     -2.42375182510835      0.35831977198332
  N   1.54242397564914     -0.92024487709650      0.35183671158772
  H   2.44695393801042     -0.95260501897324     -0.09650719724947
  H   1.65745480766455     -0.82792641896013      1.35369805469870
  N   1.04363473969139      1.46333378215722      0.38369552198561
  H   2.04254384675085      1.53782496244453      0.52203968296039
  H   0.74982432013852      2.19701663459105     -0.24938385899135
