16
Coordinates from ORCA-job run
  C   -0.67917088806313     -0.16732084240894      0.29454900104374
  C   0.70121150151671      0.23108719473405     -0.21045151505873
  F   -0.76393009681558     -0.11942446702395      1.61788810132922
  H   0.63943570530645      0.28361618027521     -1.30062360947232
  N   -1.73201117902402      0.75885342116692     -0.29357835436328
  O   -2.40641295919992      1.40827312454398      0.48695124760331
  O   -1.78125503015368      0.75744755131557     -1.51801848365196
  N   -1.08583291051313     -1.55814568521037     -0.15435150910192
  O   -1.95712990247055     -2.10175748181697      0.51085365340392
  O   -0.53165255597872     -1.99559534060460     -1.15750271496970
  N   1.64550856403304     -0.76150076909756      0.28758902546733
  H   1.72795232823690     -1.53527677419586     -0.36024248381672
  H   2.55438167202849     -0.33176105073641      0.39507546137018
  N   0.90768891213050      1.56154449580763      0.29771382647532
  H   1.65894414529777      2.03112217891245     -0.18750737566730
  H   1.10027269366889      1.53983826433887      1.29165572940888
