16
Coordinates from ORCA-job run
  C   -0.69031309342782     -0.19142728271935      0.25013974617688
  C   0.70833648530307      0.25046942983381     -0.15934399940876
  F   -0.84316927213517     -0.22077554289404      1.56780796502137
  H   0.70204051260999      0.36451329655277     -1.24665299129994
  N   -1.72408256744927      0.75606741146328     -0.33800819721260
  O   -1.70861859194379      0.82682952146769     -1.56135001975891
  O   -2.44897699694657      1.34892845098431      0.44219099886315
  N   -1.05664616336576     -1.55828737758930     -0.29750035165050
  O   -1.95844817923270     -2.14424552489086      0.28618636447131
  O   -0.44337890411854     -1.93457440585522     -1.29108372959237
  N   1.64116026959060     -0.75553116433172      0.33244635900658
  H   2.54274993675291     -0.32477651553069      0.48790783481349
  H   1.75293848783324     -1.50163183251483     -0.34308099882594
  N   0.86951426353909      1.55241013019254      0.43319662402409
  H   1.63287945054137      2.05931183390594      0.00798788357950
  H   1.02301436244937      1.47371957192564      1.43115651179263
