16
Coordinates from ORCA-job run
  C   -0.68579614653253     -0.19273112559902      0.26171852610691
  C   0.70589350566382      0.24941898652985     -0.17101946941745
  F   -0.81735295115485     -0.22082562193082      1.58185516550299
  H   0.68193731525450      0.36075743286429     -1.25848976097808
  N   -1.72814278371061      0.75491051761031     -0.31054097349259
  O   -2.43119610060994      1.35897299065558      0.48077993209533
  O   -1.73802978207344      0.81705294864574     -1.53438041713070
  N   -1.06151025005625     -1.55976040373690     -0.27844178320646
  O   -0.45942929628549     -1.94147654168317     -1.27686130903152
  O   -1.96118112126613     -2.13973802664510      0.31445198356580
  N   1.64801381080141     -0.75307535018884      0.30931287592588
  H   2.55277965332784     -0.32137951799696      0.44210864218973
  H   1.74498831757896     -1.50461545542452     -0.36247696919087
  N   0.87500602258546      1.55342698066042      0.41499868395652
  H   1.04430960616402      1.47772915044877      1.41063279626450
  H   1.63071020031321      2.06033303579035     -0.02364792316003
