16
Coordinates from ORCA-job run
  C   -0.54354133325395     -0.67346917279819      0.08152510408561
  C   0.85776000084874     -0.05517356694508     -0.04081187751940
  F   -0.55051409013377     -1.80078595443422      0.78404681358151
  H   1.39479397217992     -0.69261505007059     -0.75746685623804
  N   -1.48426853680440      0.31697208001377      0.75034025349053
  O   -2.26321226356579      0.92893812888777      0.03510928174678
  O   -1.32919621720586      0.42307077456861      1.95847921621991
  N   -1.17110745375334     -0.98807649969414     -1.26944042623202
  O   -0.68823638062830     -0.44098616697930     -2.25565140956293
  O   -2.11028610470216     -1.76944079270091     -1.24461435678393
  N   1.51856835334850     -0.18255902712688      1.22826708800068
  H   2.51860776266676     -0.08861455674312      1.12050017362103
  H   1.17480169498232      0.51147763587110      1.88019446833247
  N   0.69567519917055      1.32782883802903     -0.46475816369560
  H   1.58368669764330      1.80413407338130     -0.37362792518393
  H   0.39646869920743      1.37929925674083     -1.43109138386261
