16
Coordinates from ORCA-job run
  C   -0.53989660894603     -0.22175624233959      0.21483935569417
  C   0.85851955213098      0.24269277080577     -0.23113325561305
  F   -0.59365111686762     -0.38810826571669      1.54114616433966
  H   0.83308065180713      0.31690064472408     -1.31868328151363
  N   -1.58122745658213      0.80068715817020     -0.18622058308064
  O   -2.13173765482111      1.43095266967095      0.70324954450017
  O   -1.71659296079168      0.92883883162482     -1.39887197895319
  N   -1.01022128312827     -1.51647266283742     -0.42527465074491
  O   -1.96146007109645     -2.06048424453032      0.12130853000246
  O   -0.41640710419105     -1.88653931514184     -1.43245593583365
  N   1.88289051678347     -0.69820353891448      0.14621783778050
  H   1.93151153585691     -0.80921362813011      1.15091263383628
  H   1.73907205362662     -1.59746714172096     -0.29302448870740
  N   1.13553992867939      1.54446073150315      0.32570173165409
  H   0.84985551214119      1.62327418078072      1.29310121658739
  H   0.72172450539865      2.29143805205171     -0.21281283994827
