16
Coordinates from ORCA-job run
  C   -0.62720097532725     -0.24764766874783     -0.41496332581876
  C   0.83192721147035      0.22988464819806     -0.33156254721716
  F   -0.80598964598115     -0.99017039973760     -1.52241636699341
  H   1.00660792851010      0.73323364941998     -1.29322049193423
  N   -0.99822917508441     -1.07809858849931      0.78699256679541
  O   -1.04240664058868     -0.44368503806271      1.83588889846651
  O   -1.18479022184392     -2.26997202601369      0.62105136715750
  N   -1.65259734398351      0.86307611187852     -0.48977528087128
  O   -1.24238022271440      1.98196441212767     -0.78308838843451
  O   -2.81672827461196      0.52183123266024     -0.32246032930075
  N   1.59907680803090     -0.98251199341893     -0.11814488302416
  H   2.55649633304094     -0.70962337003188      0.06511652537514
  H   1.57622299599122     -1.58753932366347     -0.92952217579414
  N   1.17075842328324      1.14870752803104      0.71487724466692
  H   0.89176748684405      0.78242690271219      1.61624967668795
  H   0.73646531296451      2.04812392314776      0.56497751023897
