16
Coordinates from ORCA-job run
  C   -0.60599250397239     -0.23668353416419      0.20130424582370
  C   0.77877151301817      0.23566087094159     -0.22725561081673
  F   -0.64809373020048     -0.48171135992221      1.51641478318343
  H   0.72587868042709      0.42694287030082     -1.29904686056636
  N   -1.70535671415917      0.76148290750518     -0.11273551509617
  O   -1.47382385018848      1.58573720578920     -0.99034153300627
  O   -2.73935364528970      0.62882588692357      0.52991739968214
  N   -0.99733837349053     -1.49731519380078     -0.54585646472358
  O   -1.15909296849927     -2.51209161819196      0.10879320230822
  O   -1.09285670863778     -1.34752021311815     -1.75750703688819
  N   1.63967489106657     -0.90206156746597     -0.00011646742567
  H   2.55890556079206     -0.68919379147237     -0.36663018518582
  H   1.73825066856226     -1.07668367769895      0.99393106160399
  N   1.19881469376680      1.45314464510506      0.43166659688658
  H   0.69780010020787      2.25919987423113      0.08036342795292
  H   1.08181238659698      1.39326669503805      1.43609895626780
