16
Coordinates from ORCA-job run
  C   -0.73442703442456     -0.35975930483465      0.29765579669920
  C   0.64999290240075      0.27883121301711      0.49005492443462
  F   -1.04086780720058     -1.22526353420069      1.25734623079380
  H   0.52865613306105      0.98999753670728      1.31942878836507
  N   -1.85699444481810      0.66729073449935      0.25019414210133
  O   -2.98230180874371      0.22609397553547      0.43010043471784
  O   -1.54403646765542      1.83360183117236      0.03356680359147
  N   -0.78436121818779     -1.08356359320617     -1.03899733334812
  O   -1.35412863386671     -0.52385397705548     -1.96361196602282
  O   -0.19325087022883     -2.15368213475184     -1.05592792322033
  N   1.03765917259830      0.88480081800919     -0.77488112767742
  H   0.48356738232274      1.71058454440380     -0.96784893183541
  H   2.01223440105281      1.15202733012028     -0.72465159328598
  N   1.56007481655302     -0.74275952445045      0.92808710741291
  H   2.36993683852469     -0.33299399734948      1.37150202562684
  H   1.84824663861231     -1.32135191761601      0.14898262164705
