16
Coordinates from ORCA-job run
  C   -0.64383522640613     -0.23511509714277      0.29840902980048
  C   0.66118996873619      0.24154334903132     -0.30666074646403
  F   -0.53476730608673     -0.36334974323569      1.62234366305949
  H   0.49519932007129      0.32164100892881     -1.38053180578844
  N   -1.77524852130441      0.73513233499970     -0.00081868218934
  O   -2.46710669523203      1.07833554541145      0.94603052283921
  O   -1.88002339653354      1.07166982885603     -1.17166291860181
  N   -1.06219948582244     -1.57581538853336     -0.28339448099188
  O   -1.37915785091901     -2.44444213305403      0.51535877137020
  O   -1.04009385976279     -1.64634855759054     -1.50390604171173
  N   1.62083189859275     -0.81826203926371     -0.06694851818485
  H   2.43172114316776     -0.71422434558351     -0.66145451813979
  H   1.92226445041046     -0.82502976094731      0.89987329640204
  N   0.88343463423231      1.57165437927962      0.22529316932113
  H   1.19510476801492      1.53164625290502      1.18805648697515
  H   1.57268615884131      2.06996436593899     -0.32098722769582
