16
Coordinates from ORCA-job run
  C   -0.64078774103514     -0.16278996805122      0.24868316199085
  C   0.78164821870502      0.24335766924230     -0.15778328697727
  F   -0.77311720889334     -0.29067248610386      1.56348618030490
  H   0.82572779227877      0.21442023030949     -1.25140126074691
  N   -1.70686024512204      0.79860712042612     -0.24103350498699
  O   -2.78744763219913      0.73198039025171      0.32933204142074
  O   -1.40007676784582      1.53011868466423     -1.17651582803854
  N   -0.98622908810440     -1.49254689027055     -0.39882332986223
  O   -1.09991240560205     -2.46217035093432      0.33608450542340
  O   -1.06063343838934     -1.46224300475816     -1.62268212659705
  N   1.75206356756539     -0.68473943437966      0.36696497227114
  H   1.58049187317602     -0.87582197432798      1.34660273886246
  H   1.78043321467482     -1.55201314552717     -0.15088901652719
  N   1.02426310730145      1.54289610440690      0.43245093771820
  H   0.68595792336501      2.28057168950403     -0.17131247666879
  H   2.02447883012484      1.64104536554816      0.54883629241328
