17

C	-0.498306	-0.139346	-1.457642
C	0.0	0.0	0.0
Cl	0.273893	1.114169	-2.450737
H	1.092718	0.0	0.0
N	-0.042383	-1.480819	-2.037963
O	0.774941	-2.141686	-1.406547
O	-0.540562	-1.797429	-3.117392
C	-2.002104	-0.057455	-1.619522
H	-2.266093	-0.116625	-2.673034
H	-2.485279	-0.887865	-1.097185
H	-2.356261	0.886937	-1.205744
N	-0.436578	-1.0281	0.92624
H	0.154776	-1.839427	0.808552
H	-1.409547	-1.277577	0.810675
C	-0.466882	1.304574	0.488905
N	-0.905077	2.322943	0.876602
Br	3.465489	0.0	0.0
