17

C	-0.569156	0.004556	-1.425901
C	0.0	0.0	0.0
Cl	0.19181	1.312687	-2.354251
H	1.107517	0.0	0.0
N	-0.164533	-1.298178	-2.11414
O	0.721354	-1.970562	-1.601425
O	-0.751047	-1.565261	-3.159565
C	-2.075057	0.122901	-1.481639
H	-2.375447	1.073819	-1.039287
H	-2.415582	0.078819	-2.514104
H	-2.506993	-0.69867	-0.907355
N	-0.524779	-1.178876	0.715081
H	0.22587	-1.862004	0.712252
H	-0.703586	-0.9327	1.681549
C	-0.449431	1.21953	0.670335
N	-0.859252	2.154894	1.250907
Br	3.45877	0.0	0.0
