17

C	-0.476495	-0.124472	-1.446599
C	0.0	0.0	0.0
Cl	-2.253383	-0.335551	-1.485407
H	1.10727	0.0	0.0
N	-0.177215	1.148503	-2.230878
O	0.524656	1.99455	-1.686764
O	-0.616817	1.203295	-3.37566
C	0.210978	-1.266064	-2.155929
H	1.291231	-1.098941	-2.108677
H	-0.027765	-2.18543	-1.625474
H	-0.128027	-1.322431	-3.190013
N	-0.353407	-1.231416	0.712203
H	0.416721	-1.457525	1.330002
H	-1.194727	-1.110384	1.260471
C	-0.524378	1.19487	0.666019
N	-0.999119	2.090507	1.262487
Br	3.403834	0.0	0.0
