17

C	-0.570904	-0.020436	-1.423538
C	0.0	0.0	0.0
Cl	0.154231	1.295755	-2.37066
H	1.091536	0.0	0.0
N	-0.135251	-1.323761	-2.094515
O	0.774633	-1.959593	-1.579491
O	-0.729266	-1.624992	-3.127882
C	-2.078741	0.061121	-1.475169
H	-2.421343	0.006982	-2.506097
H	-2.489435	-0.772708	-0.90345
H	-2.402162	1.003902	-1.032568
N	-0.50183	-1.179156	0.723981
H	-0.914402	-0.906466	1.607595
H	0.302351	-1.765739	0.916402
C	-0.445312	1.231464	0.654202
N	-0.856992	2.178454	1.216066
Br	3.459089	0.0	0.0
