17

C	-0.439217	0.054024	-1.469772
C	0.0	0.0	0.0
Cl	-2.211333	-0.162195	-1.595578
H	1.105925	0.0	0.0
N	-0.120471	1.445317	-2.021461
O	-0.855678	2.370369	-1.69213
O	0.87936	1.538559	-2.726271
C	0.275912	-0.99871	-2.277374
H	1.352241	-0.871295	-2.148095
H	-0.020822	-1.971741	-1.891025
H	0.011015	-0.915215	-3.332149
N	-0.373104	-1.295523	0.559062
H	-1.257625	-1.240273	1.047715
H	0.352288	-1.572611	1.209724
C	-0.496228	1.120667	0.803702
N	-0.907021	1.938805	1.541584
Br	3.403266	0.0	0.0
