17

C	-0.381029	-0.047972	-1.488805
C	0.0	0.0	0.0
Cl	0.152395	-1.588903	-2.181867
H	1.103827	0.0	0.0
N	-1.901712	0.029572	-1.627386
O	-2.358283	1.159018	-1.808153
O	-2.565853	-0.99008	-1.488966
C	0.279338	1.081386	-2.244087
H	0.033988	1.022318	-3.305734
H	1.357974	0.978918	-2.101888
H	-0.051997	2.042505	-1.853771
N	-0.56467	-1.101055	0.777041
H	-0.159458	-1.023716	1.702855
H	-0.19007	-1.956007	0.38234
C	-0.461871	1.266392	0.575966
N	-0.839305	2.274202	1.046836
Br	3.442567	0.0	0.0
