17

C	-0.400884	0.002421	-1.476523
C	0.0	0.0	0.0
Cl	-2.185006	-0.089228	-1.638645
H	1.095892	0.0	0.0
N	0.008941	1.311324	-2.150923
O	-0.085773	1.344935	-3.372839
O	0.402959	2.226434	-1.43745
C	0.264964	-1.130453	-2.217586
H	-0.019255	-1.109908	-3.268087
H	-0.037635	-2.065473	-1.751609
H	1.348179	-1.011634	-2.110287
N	-0.393529	-1.281803	0.588242
H	-1.268814	-1.191313	1.089002
H	0.330204	-1.554085	1.243554
C	-0.537782	1.126133	0.767032
N	-1.04326	1.915286	1.475624
Br	3.417415	0.0	0.0
