16

C	-0.567114	0.019831	-1.416486
C	0.0	0.0	0.0
Br	-2.480213	0.105113	-1.452027
H	1.093517	0.0	0.0
N	-0.019287	1.245003	-2.171525
O	0.654233	2.040755	-1.535258
O	-0.297818	1.282363	-3.362484
N	-0.048177	-1.14863	-2.287476
O	1.170631	-1.204596	-2.308588
O	-0.851913	-1.838209	-2.886968
N	-0.370426	-1.276146	0.707293
O	-0.423409	-1.231663	1.929095
O	-0.525914	-2.274683	0.010841
C	-0.5072	1.12735	0.765701
N	-0.98242	2.029397	1.350231
Br	3.268909	0.0	0.0
