16
Coordinates from ORCA-job run
  C   -0.61093507815921     -0.09916753614726      0.22366813570344
  C   0.72698288165551     -0.57982340696346     -0.33170130393502
  Br  -0.92262163959655     -0.83970697635514      1.99146339827545
  H   0.69945746735017     -1.67315141381371     -0.32852522609383
  H   0.76475738306398     -0.25346676660908     -1.37578178401106
  C   -1.78781430868758     -0.44457535922484     -0.66989832891061
  H   -1.86906308598752     -1.52926567325851     -0.75104545113338
  H   -1.63054684771738     -0.01671330034816     -1.66043253519080
  H   -2.71860804157912     -0.05652304071191     -0.25271733374916
  N   -0.51402771143408      1.42514961746126      0.31663254580850
  O   -0.43785563328991      1.97577716905548     -0.78032603678107
  O   -0.46405892196047      1.98268126831695      1.40273594081592
  C   1.95158178165546     -0.06834001980736      0.41683862278835
  H   2.85527976133609     -0.50741771558313     -0.01052593578726
  H   2.04290230960097      1.01680898932811      0.33390074981701
  H   1.91356968374963     -0.33126583533925      1.47471454238354
