17

C	0.0	0.0	0.0
C	-0.586999	0.097898	-1.405806
F	1.340399	0.0	0.0
H	-1.682329	0.177803	-1.331008
N	-0.337026	1.325613	0.758047
O	0.002666	1.321076	1.938397
O	-0.878424	2.244036	0.157985
N	-0.51702	-1.123013	0.638717
H	-1.543681	-1.083763	0.583953
H	-0.221424	-1.119671	1.608766
N	-0.231904	-1.16126	-2.143478
O	0.898546	-1.209742	-2.626286
O	-1.084252	-2.037173	-2.192435
N	-0.065563	1.205306	-2.262685
O	-0.699056	1.367859	-3.303672
O	0.93283	1.826678	-1.918452
Cl	-3.502194	0.0	0.0
