14

C	0.0	0.0	0.0
C	-0.385397	-0.002115	-1.502114
F	1.356684	0.0	0.0
H	0.364533	-0.672289	-1.936564
H	-0.405762	0.803612	0.611506
N	-0.380756	-1.297044	0.661874
O	-0.630918	-1.25049	1.861436
O	-0.304721	-2.313303	-0.025577
C	-0.069231	1.352	-1.993248
N	0.207079	2.434	-2.354065
N	-1.67506	-0.427025	-1.961169
H	-2.449459	-0.009968	-1.436762
H	-1.753349	-1.425854	-1.821627
Br	-4.233983	0.0	0.0
