11
Coordinates from ORCA-job run
  C   -0.29577951763552      0.17718809544441      0.08942714581069
  C   0.29410596941316     -0.94699989538140      0.59538663339008
  H   -0.23602143509628     -1.58143259994121      1.29411312765052
  N   -1.62007519817024      0.47005818056810      0.31984825242745
  H   -2.26367186964965     -0.30007464246860      0.35578149430938
  H   -1.97997369341751      1.32550458591352     -0.06495830140443
  N   0.39858014359013      1.16143692783643     -0.58986647379403
  H   1.37879156254401      0.95605175226898     -0.71834638486313
  H   -0.04157199668266      1.48497051631299     -1.43874978446248
  C   1.62667637007805     -1.26440720702336      0.24072071273926
  N   2.73793966502653     -1.48329571352987     -0.08435642180330
