11
Coordinates from ORCA-job run
  C   -0.31263926578389      0.14975994531656      0.00229570980790
  C   0.27698797611131     -0.98951884261402      0.46637002464887
  H   -0.28619891464537     -1.71294095809036      1.04255565241522
  N   -1.68000464416353      0.36301948917981      0.03307357142822
  H   -1.93680804131879      1.29482834673942      0.32431961210945
  H   -2.20301017508791     -0.35265442661199      0.51248307183925
  N   0.38158735465658      1.21059072439099     -0.54480172795211
  H   1.36949809564305      1.04280892246489     -0.66861529828303
  H   -0.05623529991277      1.60129211121389     -1.36606467056461
  C   1.65028198538375     -1.22927153511681      0.21521650289945
  N   2.79554092911756     -1.37791377687237     -0.01683244834861
