11
Coordinates from ORCA-job run
  C   -0.06055907901808      0.32904611452630     -0.09116582998750
  C   0.93269352236378     -0.40786196870077      0.48401032320417
  H   1.86845443158983      0.05245334992001      0.77574963487347
  N   -1.18536792933706     -0.21538894919324     -0.67872102047070
  H   -1.27188103808842     -1.21512443959585     -0.56632670475491
  H   -2.03721295025092      0.27921597301161     -0.45822568808130
  N   -0.04352333579999      1.71221480712500     -0.14761187471359
  H   -0.33381500352828      2.08232854439452     -1.04107956418760
  H   0.80809505152844      2.13279045751607      0.18918801732945
  C   0.75733595168883     -1.79783013563972      0.69254770996021
  N   0.56678037885188     -2.95084375336392      0.84063499682830
