11
Coordinates from ORCA-job run
  C   -0.07963937690046      0.33042598328746     -0.07026059749803
  C   1.00648845138895     -0.40703764370418      0.29979664673184
  H   1.97607551140511      0.05708267459083      0.42961444671719
  N   -1.28611932080088     -0.21403482707557     -0.46290750114798
  H   -1.34212278599982     -1.21747334298555     -0.36590023453825
  H   -2.09008708120410      0.26240415700747     -0.08161278985851
  N   -0.08444276807043      1.71470255434119     -0.09075373895611
  H   0.81042559150142      2.13677036166957      0.10100401825982
  H   -0.53197371161306      2.10428738151755     -0.90756667031241
  C   0.88379838079647     -1.80398006710898      0.49945749792285
  N   0.73659710949681     -2.96314723153978      0.64912892267960
