11
Coordinates from ORCA-job run
  C   -0.07548429262415      0.33382763491331     -0.04481471147410
  C   0.95532567713696     -0.43899421020698      0.39954884568453
  H   1.86358086959159      0.01282695700981      0.77914578801073
  N   0.04474333157197      1.69773738597979     -0.25761375026468
  H   -0.73909071022541      2.22489046246218      0.10013542918868
  H   0.93249207369980      2.08370175072465      0.02209627550777
  N   -1.34172201831571     -0.14106292519130     -0.32094399497387
  H   -1.45146539851774     -1.14253856851555     -0.26416127764143
  H   -1.75793854666819      0.24584528851811     -1.15676950638904
  C   0.84835778736240     -1.85348418987480      0.38847466253384
  N   0.72120122698846     -3.02374958581923      0.35390223981756
