11
Coordinates from ORCA-job run
  C   -0.31915220211026      0.13531777135028     -0.00245180590300
  C   0.32781517171621     -0.95294428630689      0.50535217719956
  H   -0.20666030307952     -1.70131758428726      1.07694947874138
  N   -1.61576149484696      0.47612702416465      0.34269958139706
  H   -2.18085823878145      0.76068213733049     -0.44396837717642
  H   -2.08035928103374     -0.19657296849298      0.93196220304819
  N   0.23989860721650      1.01179253293340     -0.91092491769514
  H   0.03973053508144      1.98156585481925     -0.71559319738432
  H   1.21572017970061      0.84314150978039     -1.10780493296195
  C   1.71434515405899     -1.12730816992534      0.27398597735731
  N   2.86628187207818     -1.23148382136600      0.05079381337732
