11
Coordinates from ORCA-job run
  C   -0.07308251053697      0.33239606537898     -0.06626998540939
  C   1.01466208760666     -0.44329527757811      0.20863221024743
  H   2.00197014500572     -0.00673726612947      0.29198936884498
  N   -1.37853649348979     -0.10768982451248      0.02373007836334
  H   -1.96417703897516      0.20099552104612     -0.73821682799708
  H   -1.47415351130593     -1.09381013559524      0.21878539403558
  N   0.02048620973828      1.65431483437312     -0.46732177105910
  H   0.95615302703762      2.02851102445439     -0.45017688078237
  H   -0.64873246509480      2.26048575427862     -0.01542100123046
  C   0.86129510460928     -1.83635156968573      0.41354564787975
  N   0.68411544540510     -2.98881912603022      0.58172376710733
