11
Coordinates from ORCA-job run
  C   -0.07757848929593      0.32907571975103     -0.07751762001431
  C   0.96866602130228     -0.38684923476080      0.42576577176068
  H   1.90234135496985      0.09818165945487      0.68130517423575
  N   -0.11099352609042      1.71318342974777     -0.09352468755123
  H   -0.45717954671039      2.09759826633218     -0.96063944729484
  H   0.74272898671117      2.15304233671251      0.21221005058237
  N   -1.21110138968985     -0.23926382651044     -0.62360881939705
  H   -1.25761922164487     -1.24419171595222     -0.53639967268949
  H   -2.06738284103906      0.21922210335123     -0.34897129506328
  C   0.85365609206243     -1.78782438391956      0.59936755729474
  N   0.71346255942480     -2.95117435420658      0.72101298813666
