11
Coordinates from ORCA-job run
  C   -0.31349617047922      0.12119357292638     -0.05994754474805
  C   0.26318005368339     -0.93288785353277      0.59196924821621
  H   -0.34684812137196     -1.64525355247636      1.13345385548089
  N   -1.69076955254191      0.25366260785575     -0.18604771553665
  H   -2.20512915592069     -0.47678718716430      0.28194558389728
  H   -2.04414879147561      1.17345946583124      0.02948892360266
  N   0.39247173820709      1.16554438724816     -0.61457415616885
  H   1.39773272718664      1.06246151313389     -0.59148811523744
  H   0.04045355645741      1.49354077743928     -1.49952211411230
  C   1.66737994335860     -1.09584605224554      0.51795621476741
  N   2.83817377289626     -1.12008767901574      0.39676581983884
