11
Coordinates from ORCA-job run
  C   -0.31264947363822      0.14926666387732      0.08274039134916
  C   0.32988245371412     -0.96504766828936      0.54372882338733
  H   -0.19062290946185     -1.68591493886244      1.16128368391882
  N   0.34286117386069      1.22931729881034     -0.47934381258667
  H   1.34261109092297      1.10917127237416     -0.55548344782647
  H   -0.06844674648109      1.57922104278499     -1.33210510120110
  N   -1.66661531540413      0.32752022652428      0.24597177306058
  H   -2.25099578446089     -0.48681295176913      0.18454961918717
  H   -2.06798227098850      1.18378159868293     -0.09343346384893
  C   1.70106405518201     -1.16069286821872      0.25411229938367
  N   2.84289372675489     -1.28080967591437     -0.01102076482355
