11
Coordinates from ORCA-job run
  C   -0.04736550603020      0.35255040354829     -0.01469689078756
  C   0.97779424944896     -0.42129642392954      0.45129975561644
  H   1.93455832519456      0.02050945930868      0.69867967272700
  N   0.13018872838283      1.67952967067848     -0.33279959634228
  H   -0.67399597243132      2.19094156774212     -0.65203972822643
  H   1.00662786917796      1.93843701003410     -0.74945290453302
  N   -1.35576133319880     -0.08638731835240     -0.09950558388618
  H   -1.48529727809731     -1.04989038825794      0.17288860068511
  H   -1.82290759055192      0.13378216353857     -0.96669830327192
  C   0.77590171520016     -1.80569814784526      0.66490034689030
  N   0.55925679290509     -2.95247799646510      0.82742463112853
