11
Coordinates from ORCA-job run
  C   -0.33333329869977      0.11857311465256      0.04150765879855
  C   0.36222114378430     -0.90218959281957      0.62560040313234
  H   -0.14849650133942     -1.64728504458922      1.22209814366466
  N   0.26957832081030      1.23619207715267     -0.50540567805115
  H   1.27866426820496      1.21496757923305     -0.47649050042372
  H   -0.08295832739583      1.50933612076227     -1.41080593685266
  N   -1.70866672461260      0.16180392278670      0.05492043967692
  H   -2.19595714372343     -0.71248615062138     -0.02856617411115
  H   -2.15168051059175      0.95275076960515     -0.37875669277326
  C   1.77005831933715     -0.96223909770992      0.49551084315988
  N   2.94057045422608     -0.96942369845231      0.36038749377960
