11
Coordinates from ORCA-job run
  C   -0.31821875252662      0.13812773740450     -0.00457921507001
  C   0.32006850506192     -0.94975557751592      0.51472625850655
  H   -0.21945847981381     -1.68526690168972      1.09832478284230
  N   0.24674956132536      0.99942249297518     -0.92409452667684
  H   1.22052718390667      0.82002883758327     -1.12108633526425
  H   0.05600223971332      1.97290139544616     -0.73744991259365
  N   -1.61134541038554      0.49428593325351      0.33890467970953
  H   -2.08064614536782     -0.16860618284558      0.93571028612495
  H   -2.17478664056630      0.77455752089767     -0.45041360337505
  C   1.70505207223431     -1.13856372348860      0.28557420616066
  N   2.85605586641850     -1.25713153202046      0.06438337963580
