11
Coordinates from ORCA-job run
  C   -0.32338013580693      0.11858667507403     -0.04183807520385
  C   0.32862922145882     -0.86136019729048      0.64730139889103
  H   -0.21668714359255     -1.55840271390976      1.27126019647888
  N   -1.65664807634122      0.43121044386971      0.16326962767654
  H   -2.13585480500357     -0.18681961279064      0.79905981494973
  H   -2.16946848571222      0.58184779008917     -0.69341088643022
  N   0.26507849681195      0.90276605168305     -1.01420243622303
  H   0.01066566963784      1.87792293471722     -0.95689413505782
  H   1.25961530439124      0.76230442693698     -1.11767385498789
  C   1.73444639763690     -0.99521241560388      0.53568014158443
  N   2.90260355651976     -1.07384338277540      0.40644820832220
