11
Coordinates from ORCA-job run
  C   -0.34218375762783      0.03286316638783     -0.09210188497708
  C   0.30483532438194     -0.79590485435640      0.78071926634856
  H   -0.25295471707864     -1.39564096327035      1.48859409156531
  N   -1.69437485456132      0.26456623240115     -0.00860560331451
  H   -2.10695530727149      0.30104039778778      0.90587746888374
  H   -2.11524939177600      0.84730153496587     -0.71013743368893
  N   0.27131999743614      0.61886691293294     -1.18418837021287
  H   1.25542795033707      0.40776550249428     -1.26550238273140
  H   0.07697204229257      1.60213011260021     -1.30332680459866
  C   1.71456111234075     -0.90946583722353      0.73360677307184
  N   2.88860160152683     -0.97252220471979      0.65606487965400
