11
Coordinates from ORCA-job run
  C   -0.32808159710965      0.10402034772571     -0.04160185969691
  C   0.36675638528434     -0.83970722686222      0.65651849361142
  H   -0.14463816216087     -1.54602054669520      1.29806624232237
  N   -1.66981649997798      0.37085443799756      0.17268675418282
  H   -2.19755560925834      0.48983701845538     -0.67966384670564
  H   -2.11952889515661     -0.25395315842874      0.82325968672841
  N   0.22206620628052      0.89281704725169     -1.03229065125665
  H   -0.07152860962970      1.85755212067330     -0.99286628011800
  H   1.22008170750681      0.78912710755917     -1.14333626674781
  C   1.77620141299000     -0.91799786751480      0.53694623005089
  N   2.94604366123148     -0.94752928016185      0.40128149762909
