11
Coordinates from ORCA-job run
  C   -0.00046578178456      0.32953593976672     -0.13707271699913
  C   0.93275335702450     -0.37352744116479      0.57138230972691
  H   1.79939182797205      0.12358223294939      0.98823859668920
  N   -0.98040547911131     -0.26805445809658     -0.90899265078300
  H   -1.90769091052585      0.11065374907106     -0.78503842268755
  H   -0.97023964757625     -1.27739443271617     -0.87584649821198
  N   0.03267396640446      1.70154439215898     -0.22363545686085
  H   0.33749587698787      2.21066168814705      0.58632336077288
  H   -0.66515804619508      2.14934780750835     -0.79087068384489
  C   0.79018268190704     -1.77196307063217      0.73378542049871
  N   0.63046215489712     -2.93438640699184      0.84172674169970
