11
Coordinates from ORCA-job run
  C   0.02254381408930      0.31083001220712     -0.17229088124847
  C   0.89811241980127     -0.36731857318722      0.62816896687599
  H   1.79504557674215      0.11423862212680      0.99645197854245
  N   -0.98914346618201     -0.30340204011293     -0.88736838910932
  H   -1.88849497641916      0.15066240475212     -0.82608756151832
  H   -1.05042289987427     -1.30041138845581     -0.73957102407233
  N   0.15226312308060      1.65830363358728     -0.41386840410737
  H   0.48618584153139      2.23437335352497      0.33770795982399
  H   -0.50731384601121      2.08648325047968     -1.03915041404437
  C   0.66089106211910     -1.72673993321135      0.94130071349802
  N   0.42233335112283     -2.85701934171065      1.17370705535975
