11
Coordinates from ORCA-job run
  C   -0.29686989491686      0.17074795894557      0.09928564846284
  C   0.37387820365290     -0.89721809142731      0.62541182809880
  H   -0.08265156722581     -1.51155791199995      1.39105693577287
  N   -1.61671540762062      0.41814651817158      0.39678675902923
  H   -2.22112631667379     -0.37517620378213      0.51317333973255
  H   -2.03828315307215      1.23815448638568     -0.00313206856310
  N   0.30719092105336      1.14372487400039     -0.67558584883383
  H   -0.19630853786206      1.39367936184037     -1.51386744167643
  H   1.28831427456953      0.98068742296657     -0.84947263103830
  C   1.69316577573850     -1.18231191973922      0.20047422289440
  N   2.78940570235701     -1.38087649536156     -0.18313074387903
