11
Coordinates from ORCA-job run
  C   -0.32743774797643      0.10503238125349     -0.04507707009526
  C   0.35514985118237     -0.85096040672060      0.64841939500011
  H   -0.16378748056049     -1.54306132506193      1.29967131303302
  N   -1.70823567031352      0.13009890041609     -0.14320022273076
  H   -2.10332058466849      1.05249003688917     -0.03193697368619
  H   -2.17777663104542     -0.56363937984289      0.41708250494298
  N   0.27537621715046      1.14706531323909     -0.72113069580507
  H   -0.13347419082241      1.33488829901690     -1.62466053399265
  H   1.28359015467335      1.09950048693829     -0.74761016459233
  C   1.76433992287177     -0.93977051195025      0.53590204023291
  N   2.93557615950881     -0.97064379417737      0.41354040769324
