11
Coordinates from ORCA-job run
  C   -0.32089698491305      0.12881744283632     -0.02756594154121
  C   0.33779090696668     -0.83543423209555      0.67743280976206
  H   -0.18810270460272     -1.46573982866147      1.38355058591046
  N   0.22891674382251      0.82132667332910     -1.08804170017046
  H   0.01929793632800      1.80866429121410     -1.08031830649704
  H   1.20639339569082      0.62784067365017     -1.25118023410707
  N   -1.62083857250641      0.51626884860827      0.24917482197477
  H   -2.07904341663106     -0.03753978423530      0.95562137952745
  H   -2.18859199545041      0.64060113979260     -0.57631815265720
  C   1.72609439134711     -1.03581626394669      0.48018028285481
  N   2.87898029994854     -1.16798896049157      0.27746445494342
