11
Coordinates from ORCA-job run
  C   -0.05757833106090      0.32540017557840     -0.10997393427892
  C   0.95555211228337     -0.40768513297763      0.43260787836034
  H   1.91942637874392      0.04799708683586      0.63305563218275
  N   -1.35503795793607     -0.11274534018154     -0.17310036704217
  H   -1.82096046203961      0.09790569680692     -1.03684072722537
  H   -1.50137228572859     -1.05891577227768      0.14403901225527
  N   0.12198800799927      1.58070280534112     -0.66971861752678
  H   1.05538664665509      1.94789997495376     -0.57871767187512
  H   -0.57953192977120      2.24881611763853     -0.38476246163262
  C   0.74089120685552     -1.76907940003157      0.74843241741655
  N   0.52223661399919     -2.90029621168620      0.99497883936606
