11
Coordinates from ORCA-job run
  C   -0.30119237745696      0.16337467137990      0.09890454186180
  C   0.38411628998584     -0.90083919736287      0.61369564115536
  H   -0.06636030158500     -1.53569212345219      1.36601717592517
  N   -1.62725115854057      0.38412419445797      0.38897281572575
  H   -2.21928090969834     -0.42035443158392      0.49206286956277
  H   -2.05926026172618      1.20266388612285     -0.00190920464019
  N   0.29141259743880      1.15817538451690     -0.65744475750856
  H   1.27660325825972      1.01367122332834     -0.82697357344987
  H   -0.21019129536293      1.40877451318533     -1.49684037255284
  C   1.71337609340614     -1.15224564811055      0.19868774248493
  N   2.81802806527949     -1.32065247248176     -0.17517287856432
