15

C	-0.440274	0.02067	-1.462043
C	0.0	0.0	0.0
F	-0.114587	-1.199675	-2.029889
H	1.094257	0.0	0.0
H	0.090083	0.80031	-2.006853
C	-1.896916	0.206271	-1.604076
N	-3.061426	0.313834	-1.707723
C	-0.5411	-1.171277	0.784906
H	-0.238814	-2.090656	0.283404
H	-0.110746	-1.166861	1.78462
H	-1.631792	-1.13966	0.862726
N	-0.397315	1.297773	0.620111
O	-0.546039	2.263681	-0.134657
O	-0.507395	1.343327	1.841927
Br	3.408064	0.0	0.0
