15

C	-0.453598	-0.063981	-1.439857
C	0.0	0.0	0.0
F	-1.842703	-0.168639	-1.519349
H	1.092808	0.0	0.0
H	-0.035813	-0.987861	-1.852004
C	-0.026118	1.032893	-2.319898
N	0.280396	1.823549	-3.130724
C	-0.472542	-1.208683	0.789068
H	-0.113724	-2.112745	0.292206
H	-0.041897	-1.179445	1.78741
H	-1.561631	-1.24343	0.860789
N	-0.458887	1.256151	0.668454
O	-0.790124	2.208862	-0.039019
O	-0.451222	1.267464	1.898611
Br	3.391555	0.0	0.0
