15

C	-0.5264	-0.052876	-1.420272
C	0.0	0.0	0.0
F	0.073384	0.910191	-2.202547
H	1.090866	0.0	0.0
H	-1.60231	0.143205	-1.433875
C	-0.290961	-1.375892	-2.022585
N	-0.193493	-2.433183	-2.522755
C	-0.494051	-1.146516	0.867846
H	-0.087966	-2.087116	0.494479
H	-1.587858	-1.204219	0.887279
H	-0.120499	-0.99944	1.880769
N	-0.454489	1.282534	0.632204
O	-1.325425	1.950785	0.067642
O	0.052632	1.564714	1.711839
Br	3.440122	0.0	0.0
