13

C	-0.500136	-0.004457	-1.425017
C	0.0	0.0	0.0
Br	0.423105	-1.393558	-2.435136
H	1.091165	0.0	0.0
H	-0.294716	-0.953271	0.4514
C	-1.935968	-0.230661	-1.564978
N	-3.090549	-0.453842	-1.603665
N	-0.176787	1.324635	-2.133372
O	0.752509	1.976037	-1.685493
O	-0.866497	1.592179	-3.113923
C	-0.590026	1.093224	0.744808
N	-1.057663	1.983565	1.355073
F	2.490194	0.0	0.0
