13

C	-0.227455	-0.004635	-1.480756
C	0.0	0.0	0.0
Br	-2.115058	-0.220661	-2.06935
H	1.093689	0.0	0.0
H	-0.31947	0.965576	0.400335
C	0.258819	1.235995	-2.072124
N	0.540353	2.285914	-2.519167
N	0.512471	-1.179373	-2.139285
O	0.447084	-2.247596	-1.555421
O	1.064175	-0.955502	-3.208933
C	-0.620967	-1.070645	0.740652
N	-1.124007	-1.891623	1.415745
F	2.464417	0.0	0.0
