13

C	-0.222048	0.027047	-1.478841
C	0.0	0.0	0.0
Br	-2.108935	-0.238913	-2.062607
H	1.095311	0.0	0.0
H	-0.350292	-0.948699	0.408374
C	0.239686	1.260182	-2.099308
N	0.561045	2.282278	-2.58255
N	0.539935	-1.159194	-2.094851
O	0.406004	-2.229761	-1.524436
O	1.174599	-0.945997	-3.116986
C	-0.59231	1.128761	0.670968
N	-1.060056	2.045994	1.239914
F	2.461568	0.0	0.0
