13

C	-0.419772	0.027041	-1.450463
C	0.0	0.0	0.0
Br	0.4816	-1.38173	-2.448368
H	1.09111	0.0	0.0
H	-0.349856	0.912884	0.489117
C	-1.853892	-0.102427	-1.694577
N	-3.016446	-0.199259	-1.846446
N	-0.019983	1.378388	-2.094789
O	-0.280053	1.502197	-3.284116
O	0.477733	2.220682	-1.366238
C	-0.538922	-1.167127	0.664413
N	-0.959876	-2.114218	1.220535
F	2.492901	0.0	0.0
