13

C	-0.331177	0.158815	-1.477161
C	0.0	0.0	0.0
Br	0.179987	-1.404474	-2.486571
H	1.093612	0.0	0.0
H	-0.338108	0.904976	0.512548
C	-1.729704	0.454972	-1.774662
N	-2.857664	0.706009	-1.996362
N	0.473182	1.398737	-1.957051
O	1.288234	1.287479	-2.850332
O	0.162165	2.424879	-1.362584
C	-0.615227	-1.167784	0.581422
N	-1.097916	-2.113212	1.088843
F	2.486505	0.0	0.0
