13

C	-0.470462	-0.006278	-1.43481
C	0.0	0.0	0.0
Br	0.47281	-1.40028	-2.419593
H	1.091169	0.0	0.0
H	-0.295862	-0.957784	0.44129
C	-1.902063	-0.228032	-1.612961
N	-3.056918	-0.440603	-1.683705
N	-0.133304	1.321474	-2.143258
O	0.697814	2.037865	-1.611371
O	-0.721654	1.527548	-3.200576
C	-0.609042	1.082755	0.744849
N	-1.103606	1.952672	1.362805
F	2.493075	0.0	0.0
