13

C	-0.388607	0.015774	-1.452164
C	0.0	0.0	0.0
Br	0.335911	1.60919	-2.309986
H	1.092912	0.0	0.0
H	-0.347557	0.919822	0.473851
C	0.085592	-1.157292	-2.175153
N	0.473029	-2.10792	-2.747691
N	-1.920025	0.117694	-1.65572
O	-2.427742	-0.569411	-2.53471
O	-2.505344	0.896352	-0.917357
C	-0.562599	-1.158839	0.661691
N	-1.012304	-2.100837	1.204235
F	2.48404	0.0	0.0
