15

C	-0.29789	-0.04404	-1.450429
C	0.0	0.0	0.0
Br	-2.417059	-0.762266	-1.768538
H	1.09742	0.0	0.0
H	0.165977	-0.895346	-1.939974
N	-0.13216	1.126333	-2.145513
H	-0.349402	1.060541	-3.127562
H	-0.556891	1.93254	-1.70836
C	-0.338137	-1.263606	0.779769
H	0.089214	-2.118216	0.252199
H	-1.411116	-1.418276	0.901025
H	0.14967	-1.208676	1.755444
C	-0.513634	1.202356	0.615018
N	-0.913747	2.202603	1.090044
F	2.493127	0.0	0.0
