15

C	-0.478295	0.061198	-1.439311
C	0.0	0.0	0.0
Br	0.390275	-1.458363	-2.484772
H	1.094154	0.0	0.0
H	-0.047491	0.93131	-1.933668
N	-1.889977	0.050901	-1.592784
H	-2.283417	-0.78317	-1.176006
H	-2.151234	0.07337	-2.570336
C	-0.449533	-1.233408	0.780619
H	-0.10371	-2.129727	0.262991
H	-1.533332	-1.293972	0.938942
H	0.037118	-1.212445	1.757712
C	-0.453655	1.215835	0.659419
N	-0.802895	2.193431	1.213524
F	2.559427	0.0	0.0
