15

C	-0.01689	-0.018486	-1.526043
C	0.0	0.0	0.0
Br	-1.83607	0.188174	-2.310117
H	1.09945	0.0	0.0
H	0.29114	-1.019736	-1.835355
N	0.893994	0.933932	-2.114047
H	0.594729	1.865515	-1.837307
H	1.768721	0.744873	-1.590464
C	-0.604085	-1.217447	0.673755
H	-1.680691	-1.296658	0.491163
H	-0.113581	-2.116112	0.289838
H	-0.432808	-1.181554	1.752236
C	-0.492981	1.255045	0.528998
N	-0.891137	2.269876	0.971933
F	2.61857	0.0	0.0
