15

C	-0.14388	-0.437743	-1.470759
C	0.0	0.0	0.0
Br	-0.586263	1.28274	-2.72765
H	1.096785	0.0	0.0
H	-1.054654	-0.978405	-1.7322
N	1.020085	-1.067993	-1.813164
H	1.873784	-0.685994	-1.334002
H	1.107058	-1.403797	-2.758735
C	-0.469987	-1.130866	0.918489
H	-0.231418	-0.885581	1.955299
H	0.069371	-2.040411	0.650131
H	-1.54929	-1.307941	0.842179
C	-0.60384	1.257549	0.380939
N	-1.091214	2.23273	0.821998
F	2.68334	0.0	0.0
