15

C	-0.149653	-0.177153	-1.523148
C	0.0	0.0	0.0
Br	-0.355805	1.722859	-2.459858
H	1.100273	0.0	0.0
H	-1.095946	-0.597622	-1.869209
N	0.9686	-0.868151	-1.953093
H	1.053876	-0.970454	-2.952392
H	1.828265	-0.565628	-1.443333
C	-0.467075	-1.274134	0.708131
H	-0.232536	-1.212603	1.774305
H	-1.544032	-1.443542	0.596116
H	0.080185	-2.118087	0.286805
C	-0.622384	1.173788	0.570239
N	-1.156023	2.064626	1.122168
F	2.665843	0.0	0.0
