15

C	-0.598371	0.02988	-1.397535
C	0.0	0.0	0.0
Br	0.224107	1.464638	-2.472744
H	1.094863	0.0	0.0
H	-1.650701	0.347533	-1.366596
N	-0.392379	-1.214992	-2.108095
H	-0.847413	-1.959482	-1.591067
H	-0.830091	-1.148692	-3.019912
C	-0.333709	-1.303416	0.739457
H	-1.404865	-1.551334	0.762597
H	0.02367	-1.215977	1.766876
H	0.23559	-2.111688	0.276711
C	-0.505918	1.136294	0.749754
N	-0.936432	2.046253	1.359508
F	2.551579	0.0	0.0
