15

C	-0.154799	-0.411571	-1.474496
C	0.0	0.0	0.0
Br	-0.397566	1.324023	-2.691663
H	1.096761	0.0	0.0
H	-1.098423	-0.89143	-1.744209
N	0.970422	-1.146374	-1.800291
H	1.830565	-0.765197	-1.345706
H	1.051641	-1.406995	-2.770659
C	-0.466376	-1.147316	0.901276
H	-1.544894	-1.327132	0.820721
H	-0.228515	-0.918969	1.943332
H	0.076375	-2.050233	0.616639
C	-0.613411	1.246271	0.400698
N	-1.128367	2.198647	0.860103
F	2.667386	0.0	0.0
