15

C	-0.476406	0.003929	-1.456187
C	0.0	0.0	0.0
Br	0.155428	-1.614312	-2.370942
H	1.096759	0.0	0.0
H	0.033587	0.818587	-1.974313
N	-1.904116	0.112651	-1.715822
H	-2.380146	-0.642848	-1.233809
H	-2.219074	0.985383	-1.300114
C	-0.464365	-1.183993	0.843459
H	-0.029724	-2.099084	0.439327
H	-0.082367	-1.060187	1.859515
H	-1.555422	-1.292959	0.897195
C	-0.477523	1.249137	0.56922
N	-0.894146	2.267541	0.989539
F	2.559887	0.0	0.0
