15

C	-0.01831	-0.034527	-1.526051
C	0.0	0.0	0.0
Br	-1.837926	0.16753	-2.309512
H	1.099401	0.0	0.0
H	0.28656	-1.039637	-1.824376
N	0.894428	0.908707	-2.124151
H	1.770439	0.724495	-1.599828
H	0.597519	1.844064	-1.85863
C	-0.606101	-1.206831	0.690459
H	-1.687223	-1.272453	0.529768
H	-0.135277	-2.113777	0.300192
H	-0.411935	-1.169793	1.765557
C	-0.490223	1.262063	0.515166
N	-0.88969	2.282009	0.945005
F	2.620401	0.0	0.0
