15
Coordinates from ORCA-job run
  C   -0.47051073985691      0.21672653585838      0.14527477739072
  C   1.02443900624213      0.39725978722010     -0.09109560640632
  Br  -0.65745290638008     -0.16341032529697      2.16569652627422
  H   1.12538958206731      0.61306772453562     -1.16004577287059
  H   1.35033799481116      1.29314489035992      0.46030052338694
  N   -1.15216661870178      1.39898833305565     -0.21245448372657
  H   -0.81463510581995      2.20463366709295      0.29935321745190
  H   -2.15151622107810      1.31594294494583     -0.07667852611184
  C   -1.04833898215836     -0.99035704317530     -0.55820240895315
  H   -0.49934344167108     -1.88695124953690     -0.28215431996613
  H   -2.10394760097513     -1.11712152393450     -0.30883613753351
  H   -0.95605391692669     -0.83005384927986     -1.63662980533792
  N   1.77945712035789     -0.80650704995540      0.21225870122818
  H   2.71171041734286     -0.73132887425086     -0.17319010313124
  H   1.86263141274671     -0.91403396763868      1.21540341830531
