15
Coordinates from ORCA-job run
  C   -0.59137786127983      0.07715432831156      0.41091930028403
  C   0.93293066989766      0.06254619134278      0.59336029649591
  Br  -1.36072364421289     -0.08358495481664      2.21610253447607
  H   1.20504250626559      0.91090795365192      1.22712181906861
  H   1.23418664983755     -0.85208842261313      1.11977376703618
  N   -1.09940450891828      1.30413804320206     -0.16697814394203
  H   -0.88669638749929      2.08309714518120      0.44812735361803
  H   -0.57548022149590      1.44535456078536     -1.02772804481487
  C   -1.06700992383947     -1.09780731569539     -0.42273169137747
  H   -0.73342433943509     -2.04668286203297      0.00284952227252
  H   -2.15492391617247     -1.09097185672578     -0.48090617355018
  H   -0.66676437728725     -0.99784434164020     -1.43609819030192
  N   1.55806552131393      0.22361529259083     -0.72159379575596
  H   2.42243164487214      0.74170527680382     -0.64194389731722
  H   1.78214818795361     -0.67853903834543     -1.12027465619169
