15
Coordinates from ORCA-job run
  C   -0.46611602460675     -0.02150651694660      0.18312064798592
  C   1.04270794653893     -0.30797159118746      0.05662975591022
  Br  -0.84263923042714      0.19409863863078      2.11965743617859
  H   1.27435267962468     -1.22030901072499      0.61329569499687
  H   1.22224474590825     -0.52219902261910     -1.00545372706515
  N   -0.92212961522903      1.19056016848285     -0.45509542193962
  H   -0.36416867029027      1.98500329144998     -0.16586068975139
  H   -0.85636931302014      1.08773365124902     -1.46277596606890
  C   -1.28577492331157     -1.19136026966101     -0.32516030270444
  H   -1.09059801187408     -1.32979827126092     -1.39514658995346
  H   -1.01999687731552     -2.11291497589753      0.19407781486730
  H   -2.34842219686497     -0.99223119608343     -0.18728873848064
  N   1.97116936020610      0.72433581673574      0.46722238807827
  H   1.83433471961982      0.95208474296625      1.44392766609053
  H   1.85240541104172      1.56647454486641     -0.08014996814409
