15
Coordinates from ORCA-job run
  C   -0.42755947803688      0.25496634106824      0.13360332416511
  C   1.09480727549806      0.44977161865132      0.07018378114885
  Br  -0.84365922316470     -0.23457544496117      2.09055945759986
  H   1.35443033629621      1.29376627952217      0.71768961783509
  H   1.30825690754179      0.75631571627895     -0.95980282919126
  N   -1.06756766443478      1.45224719763507     -0.24765212681579
  H   -0.76883765333336      2.24050958331551      0.31300617016603
  H   -2.07624934819397      1.38063597679845     -0.21102802529900
  C   -0.92763913142827     -0.91046658284108     -0.69291792679106
  H   -0.67738130690454     -0.72428849113108     -1.74180235252806
  H   -0.47588032819206     -1.84687040942656     -0.36907427112049
  H   -2.01092057974235     -1.01410240109445     -0.60430189041297
  N   1.94955532024244     -0.66572613534562      0.40777540871986
  H   1.73796300684339     -1.00314245702739      1.33808177604786
  H   1.82968186700904     -1.42804079144235     -0.24532011352403
