15
Coordinates from ORCA-job run
  C   -0.48261687039367      0.19431703342600      0.26333665025568
  C   1.02339066553175      0.46727954693791      0.09156923383100
  Br  -0.75514380292960     -0.33191065639396      2.16023458770557
  H   1.14473822182684      0.83092197160097     -0.93753823813680
  H   1.28941952625406      1.29672549574881      0.75529559231770
  N   -1.30107298253897      1.36042385749251      0.03798023540424
  H   -1.34772692086886      1.55544939421325     -0.95658395933351
  H   -0.91327974273955      2.16911061710098      0.51138239853560
  C   -0.97933975123697     -0.94020297565547     -0.61039284672413
  H   -0.47326346012553     -1.87619143674673     -0.37670900455858
  H   -2.05140227691360     -1.07577784872236     -0.46713842524579
  H   -0.79079270381654     -0.69430323344801     -1.66247788127983
  N   1.96572722038534     -0.61088267281385      0.30593644962375
  H   1.85840968229013     -0.98477994142524      1.24049394659556
  H   1.81595319527516     -1.36117915131479     -0.35538873899045
