15
Coordinates from ORCA-job run
  C   -0.52454150958839      0.07713272342253      0.42138702735348
  C   0.98817462017054      0.00532580708356      0.70369716755218
  Br  -1.38815023926820     -0.11191999031768      2.20282209443607
  H   1.21820502764631     -0.93715296729264      1.20749080819440
  H   1.24089464792009      0.80883055333459      1.40292668132313
  N   -0.97600396592967      1.32485459582529     -0.13508529561759
  H   -0.54623376273464      2.12064338118725      0.32070365897008
  H   -0.80924014207879      1.36144229615034     -1.13249997892978
  C   -1.01676931102016     -1.06389283255271     -0.44934416672956
  H   -2.09970081874627     -1.00782856891145     -0.56010624984267
  H   -0.75295853361643     -2.02799351117083     -0.01282637549230
  H   -0.56459858556662     -0.99381948780019     -1.44427776532567
  N   1.84579974060122      0.12623386882159     -0.46348739197453
  H   1.73294147602058     -0.65886435604130     -1.09048502422697
  H   1.65218135619045      0.97900848826165     -0.97191518969027
