17

C	0.0	0.0	0.0
C	-0.561938	-0.353942	-1.37915
Cl	1.809714	0.0	0.0
H	-1.647717	-0.342826	-1.210373
C	-0.498191	1.349434	0.485351
H	-1.591161	1.303189	0.505835
H	-0.114686	1.55567	1.486474
H	-0.172201	2.118666	-0.212844
C	-0.355649	-1.052212	0.962049
N	-0.581959	-1.855038	1.78852
N	-0.172702	-1.708806	-1.732361
H	-0.793206	-2.06392	-2.447892
H	0.778248	-1.725231	-2.08295
N	-0.24235	0.713349	-2.32051
H	-0.924088	0.705236	-3.068269
H	0.675666	0.556065	-2.720808
Cl	-3.810699	0.0	0.0
