17

C	0.0	0.0	0.0
C	-0.604285	-0.327785	-1.374816
Cl	1.796027	0.0	0.0
H	-1.641107	-0.602111	-1.139496
C	-0.503832	1.320962	0.557703
H	-1.598305	1.289039	0.559929
H	-0.137331	2.134292	-0.070218
H	-0.138865	1.463035	1.576197
C	-0.34593	-1.10056	0.913312
N	-0.572536	-1.973096	1.665666
N	0.059103	-1.471929	-1.949893
H	-0.537268	-1.89949	-2.646198
H	0.927144	-1.179844	-2.384378
N	-0.546074	0.86408	-2.232195
H	-0.790623	0.554094	-3.167328
H	-1.306788	1.47586	-1.944794
Cl	-3.802164	0.0	0.0
