17

C	0.0	0.0	0.0
C	-0.408085	0.118439	-1.503177
Cl	1.805126	0.0	0.0
H	0.084736	1.047481	-1.839973
C	-0.543724	1.143386	0.834259
H	-0.148651	1.099982	1.85048
H	-1.633784	1.055192	0.867983
H	-0.260437	2.096756	0.380703
C	-0.402541	-1.293785	0.55304
N	-0.685807	-2.315821	1.057834
N	-1.807376	0.242714	-1.768781
H	-2.192319	1.123827	-1.457614
H	-2.377193	-0.461659	-1.305309
N	0.053059	-1.070752	-2.202136
H	1.052376	-1.047814	-2.355022
H	-0.425173	-1.079276	-3.093762
Cl	-4.437368	0.0	0.0
