17

C	0.0	0.0	0.0
C	-0.398484	0.272229	-1.494676
Cl	1.807299	0.0	0.0
H	0.200873	-0.447977	-2.075565
C	-0.586837	0.988323	0.982884
H	-1.677853	0.889306	0.953723
H	-0.305265	1.99666	0.68412
H	-0.238447	0.776756	1.995739
C	-0.372321	-1.378197	0.326659
N	-0.619542	-2.503115	0.560631
N	-0.075132	1.65968	-1.801086
H	0.922089	1.76899	-1.940853
H	-0.556	1.8729	-2.666356
N	-1.771567	0.053889	-1.83521
H	-2.441623	0.512969	-1.217836
H	-2.010445	-0.928886	-1.780406
Cl	-4.370232	0.0	0.0
