17

C	0.0	0.0	0.0
C	-0.408039	0.152901	-1.500517
Cl	1.805063	0.0	0.0
H	0.085844	1.089018	-1.816081
C	-0.543272	1.124454	0.860164
H	-1.633455	1.036738	0.892099
H	-0.258239	2.087644	0.429053
H	-0.148369	1.057203	1.875287
C	-0.403885	-1.305656	0.522891
N	-0.687343	-2.338455	1.005221
N	-1.807301	0.285675	-1.762847
H	-2.378755	-0.427137	-1.314198
H	-2.188278	1.160103	-1.428425
N	0.052299	-1.021048	-2.226302
H	-0.425296	-1.008919	-3.118126
H	1.0517	-0.994768	-2.377778
Cl	-4.432419	0.0	0.0
