17

C	0.0	0.0	0.0
C	-0.495935	0.281787	-1.488868
Cl	1.800386	0.0	0.0
H	0.413964	0.301297	-2.09354
C	-0.503061	0.969864	1.05599
H	-1.593158	0.905478	1.094666
H	-0.08952	0.700487	2.030235
H	-0.197614	1.979058	0.788434
C	-0.356493	-1.371038	0.378695
N	-0.60266	-2.468301	0.720009
N	-1.100734	1.600254	-1.534057
H	-1.985401	1.527143	-1.026609
H	-1.374498	1.734649	-2.502108
N	-1.356227	-0.725828	-2.075964
H	-2.224705	-0.783714	-1.538871
H	-0.911542	-1.637393	-2.058954
Cl	-3.812341	0.0	0.0
