17

C	0.0	0.0	0.0
C	-0.565345	-0.17856	-1.433554
Cl	1.793176	0.0	0.0
H	-1.641857	-0.324985	-1.27102
C	-0.513773	1.267098	0.65856
H	-0.161789	1.33343	1.690212
H	-1.608652	1.233504	0.641246
H	-0.142393	2.124785	0.096332
C	-0.371128	-1.186184	0.782363
N	-0.612503	-2.151237	1.407967
N	-0.050944	-1.32783	-2.147534
H	-0.48766	-2.168841	-1.792376
H	0.950004	-1.402838	-2.011868
N	-0.276977	1.024772	-2.210817
H	-0.329484	0.734716	-3.180708
H	-1.034243	1.682715	-2.058926
Cl	-3.796322	0.0	0.0
