17

C	0.0	0.0	0.0
C	-0.539106	0.201287	-1.433257
Cl	1.805662	0.0	0.0
H	-1.62133	0.299659	-1.28305
C	-0.492617	1.079277	0.947443
H	-0.169456	2.047059	0.566147
H	-0.095293	0.916901	1.951549
H	-1.585302	1.025008	0.961893
C	-0.370538	-1.335191	0.483483
N	-0.58928	-2.418304	0.882612
N	-0.319955	-0.9299	-2.324535
H	-1.004977	-1.648163	-2.11903
H	0.603155	-1.326342	-2.178174
N	-0.023291	1.455538	-1.952272
H	0.917697	1.298593	-2.298828
H	-0.593902	1.690137	-2.756421
Cl	-3.745339	0.0	0.0
