17

C	0.0	0.0	0.0
C	-0.406404	0.289402	-1.480742
Cl	1.804647	0.0	0.0
H	0.08748	1.250314	-1.709694
C	-0.543798	1.042572	0.9571
H	-1.635092	0.956886	0.974836
H	-0.254926	2.040477	0.615303
H	-0.154703	0.883978	1.964243
C	-0.406059	-1.347979	0.398879
N	-0.696382	-2.424016	0.769499
N	-1.805038	0.445383	-1.732599
H	-2.378491	-0.304936	-1.352549
H	-2.187443	1.28653	-1.322639
N	0.056702	-0.814007	-2.310437
H	1.055198	-0.764599	-2.46456
H	-0.425166	-0.721166	-3.196078
Cl	-4.425845	0.0	0.0
