14

C	-0.503157	0.053309	-1.423019
C	0.0	0.0	0.0
Br	0.137129	-1.735795	-2.22658
H	1.088274	0.0	0.0
H	-0.366101	-0.889953	0.510025
N	-1.908595	0.17174	-1.511921
H	-2.233894	0.130922	-2.470872
H	-2.360811	-0.542769	-0.957355
C	0.122948	1.060763	-2.282174
N	0.528412	1.83089	-3.072489
N	-0.426306	1.15855	0.755393
O	-0.33639	2.267169	0.207852
O	-0.741786	0.984412	1.943058
H	2.546569	0.0	0.0
