14

C	-0.338979	-0.030725	-1.492565
C	0.0	0.0	0.0
Br	-0.141662	1.85895	-2.088771
H	1.091439	0.0	0.0
H	-0.401666	0.846136	0.549799
N	0.554271	-0.830533	-2.288404
H	1.493926	-0.637798	-1.923467
H	0.344971	-1.798033	-2.052465
C	-1.737066	-0.378979	-1.763184
N	-2.859623	-0.660426	-1.961638
N	-0.415356	-1.216461	0.681148
O	-0.49734	-2.26697	0.024021
O	-0.562757	-1.154847	1.906204
H	2.612636	0.0	0.0
