18

C	0.0	0.0	0.0
C	-0.431897	-0.194588	-1.488048
Cl	1.849096	0.0	0.0
H	0.39004	-0.740707	-1.975647
N	-0.506601	1.228897	0.535033
H	-0.35876	1.15964	1.539805
H	-1.536975	1.130877	0.443528
N	-0.326845	-1.149053	0.836362
H	-1.09709	-1.642282	0.344729
H	0.467724	-1.775855	0.893152
C	-0.506547	1.147308	-2.232727
H	-1.345908	1.741054	-1.877823
H	0.418344	1.716618	-2.108097
H	-0.642536	0.935369	-3.29928
N	-1.626381	-1.014612	-1.524678
H	-2.438442	-0.568336	-1.009588
H	-1.914679	-1.184047	-2.488023
H	-3.498842	0.0	0.0
