18

C	0.0	0.0	0.0
C	-0.338703	-0.116938	-1.525558
Cl	1.798307	0.0	0.0
H	0.440935	-0.769105	-1.932303
N	-0.502854	1.237229	0.546456
H	-1.527166	1.134521	0.479062
H	-0.277265	1.258675	1.538277
N	-0.401128	-1.223005	0.663118
H	-1.405192	-1.309835	0.497318
H	-0.271532	-1.089804	1.662864
C	-0.218085	1.247292	-2.209602
H	-0.29065	1.103407	-3.294036
H	-1.029336	1.902388	-1.891449
H	0.733268	1.739021	-1.990493
N	-1.612531	-0.786178	-1.756527
H	-1.892573	-0.607977	-2.71618
H	-2.363487	-0.402435	-1.142402
H	-3.364381	0.0	0.0
