13

C	0.0	0.0	0.0
C	-0.510429	0.036649	-1.426461
Cl	1.791242	0.0	0.0
H	-0.224769	-0.850293	-1.988777
H	-0.302367	0.92435	0.488504
H	-1.616141	0.115792	-1.289431
N	-0.545601	-1.100123	0.737584
H	-0.405758	-1.953071	0.2007
H	-1.570131	-0.892227	0.713041
N	-0.039113	1.201486	-2.195818
O	-0.107104	2.303172	-1.652782
O	0.356622	1.023825	-3.350128
H	-2.994049	0.0	0.0
