13

C	0.0	0.0	0.0
C	-0.535154	-0.137936	-1.418322
Cl	1.789149	0.0	0.0
H	-1.64486	-0.165231	-1.246996
H	-0.301336	1.006388	0.300287
H	-0.247667	0.696155	-2.056227
N	-0.515193	-0.90908	0.978125
H	-1.534009	-0.716485	0.943208
H	-0.387378	-1.849253	0.620621
N	-0.114274	-1.353057	-2.129561
O	-0.114358	-2.426777	-1.519517
O	0.177701	-1.246364	-3.325181
H	-2.9938	0.0	0.0
