13

C	0.0	0.0	0.0
C	-0.520577	0.045231	-1.41307
Cl	1.782674	0.0	0.0
H	-1.629418	0.067662	-1.288336
H	-0.284548	0.928372	0.502855
H	-0.169723	-0.806826	-1.989159
N	-0.53053	-1.1987	0.585454
H	-0.263935	-1.226667	1.563727
H	-1.558758	-1.033876	0.550019
N	-0.111243	1.26392	-2.131787
O	0.293224	1.14537	-3.291217
O	-0.239479	2.34012	-1.549701
H	-2.99371	0.0	0.0
