13

C	0.0	0.0	0.0
C	-0.620269	-0.027147	-1.353094
Cl	1.8371	0.0	0.0
H	-0.372613	0.860626	-1.925048
H	-0.266922	0.958082	0.437036
H	-1.863396	-0.023616	-0.891532
N	-0.479838	-1.044652	0.822596
H	-0.064405	-1.061494	1.741736
H	-0.447453	-1.940557	0.350001
N	-0.236573	-1.155751	-2.134927
O	-0.418362	-2.296581	-1.663016
O	0.230671	-0.980271	-3.285501
H	-2.823902	0.0	0.0
