13

C	0.0	0.0	0.0
C	-0.515545	-0.01854	-1.432975
Cl	1.80073	0.0	0.0
H	-1.624838	-0.067413	-1.285919
H	-0.300606	0.977586	0.383063
H	-0.218332	0.867631	-1.991164
N	-0.517627	-0.99031	0.889958
H	-0.394104	-1.89575	0.450565
H	-1.536876	-0.790263	0.869795
N	-0.064194	-1.167468	-2.232248
O	0.332711	-0.949883	-3.381539
O	-0.134728	-2.295183	-1.734732
H	-2.990797	0.0	0.0
