13

C	0.0	0.0	0.0
C	-0.489295	0.282047	-1.418689
F	1.378966	0.0	0.0
H	-1.587153	0.255847	-1.399898
H	-0.164355	1.282242	-1.716981
C	-0.344953	1.162555	0.875719
N	-0.53033	2.100962	1.557192
N	-0.486958	-1.257033	0.446897
H	-0.255537	-1.382476	1.42629
H	-1.509367	-1.218947	0.367351
C	0.049659	-0.693747	-2.36092
N	0.464351	-1.449347	-3.156775
Cl	-3.505527	0.0	0.0
