13

C	0.0	0.0	0.0
C	-0.489076	-0.186744	-1.432986
F	1.385537	0.0	0.0
H	-0.243174	-1.211619	-1.722356
H	-1.581399	-0.067306	-1.425979
C	-0.331684	1.371215	0.494706
N	-0.503904	2.452939	0.918727
N	-0.497262	-1.062128	0.801817
H	-1.518773	-1.051815	0.693671
H	-0.295847	-0.869546	1.776501
C	0.144539	0.747537	-2.357342
N	0.654862	1.478895	-3.120983
Cl	-3.503461	0.0	0.0
