13

C	0.0	0.0	0.0
C	-0.449075	-0.065922	-1.470375
F	1.383524	0.0	0.0
H	-0.06276	0.796179	-2.021925
H	-1.547846	-0.039237	-1.463589
C	-0.400437	1.310072	0.568539
N	-0.592871	2.371889	1.031206
N	-0.471139	-1.043479	0.847637
H	-1.488132	-0.924998	0.903522
H	-0.280882	-1.936348	0.4024
C	0.034875	-1.295171	-2.086804
N	0.440599	-2.28844	-2.562921
Cl	-3.472746	0.0	0.0
