13

C	0.0	0.0	0.0
C	-0.529787	0.184662	-1.417168
F	1.404353	0.0	0.0
H	-1.631147	0.157994	-1.320538
H	-0.209462	1.151873	-1.8131
C	-0.362681	1.165138	0.83321
N	-0.642962	2.097712	1.488834
N	-0.505247	-1.17308	0.570755
H	-0.355116	-1.997987	0.010773
H	-0.264528	-1.302346	1.540429
C	-0.035172	-0.881143	-2.282045
N	0.351146	-1.751476	-2.967183
Cl	-3.701139	0.0	0.0
