17

C	-0.557093	-0.000774	-1.396755
C	0.0	0.0	0.0
F	-1.93552	-0.038924	-1.413827
H	1.093587	0.0	0.0
N	-0.164888	1.287523	-2.121386
O	-0.981805	2.203838	-2.098443
O	0.951121	1.312223	-2.622176
C	-0.07406	-1.12414	-2.210114
N	0.235703	-2.023063	-2.898101
N	-0.385947	-1.293877	0.570282
H	0.428827	-1.648091	1.058256
H	-1.153581	-1.202105	1.225489
C	-0.471204	1.197271	0.80964
H	-1.562057	1.235365	0.920566
H	-0.012025	1.113679	1.797839
H	-0.131707	2.141533	0.378172
F	2.583077	0.0	0.0
