17

C	-0.421834	0.121162	-1.446058
C	0.0	0.0	0.0
F	0.242568	-0.765412	-2.225445
H	1.10091	0.0	0.0
N	-1.912305	-0.223843	-1.604005
O	-2.213527	-1.264708	-2.167576
O	-2.691284	0.575828	-1.086501
C	-0.265173	1.468761	-2.016114
N	-0.138228	2.531309	-2.499046
N	-0.420412	-1.325805	0.457278
H	-1.068833	-1.251733	1.231994
H	0.414532	-1.80043	0.778988
C	-0.463682	1.132377	0.896406
H	-0.198097	2.108899	0.484744
H	0.070004	1.025394	1.844534
H	-1.543542	1.117364	1.083622
F	2.585113	0.0	0.0
