17

C	-0.371703	0.054966	-1.449838
C	0.0	0.0	0.0
F	0.206677	-0.954796	-2.150559
H	1.096943	0.0	0.0
N	-1.89475	-0.130354	-1.718924
O	-2.668756	0.1236	-0.802007
O	-2.213892	-0.494821	-2.845454
C	-0.041121	1.331166	-2.110267
N	0.175758	2.350168	-2.652513
N	-0.456147	-1.281462	0.52809
H	-1.225002	-1.150526	1.174632
H	0.326655	-1.692894	1.022083
C	-0.385953	1.222014	0.819544
H	-0.058733	2.145377	0.333764
H	0.163376	1.154915	1.761904
H	-1.45785	1.289283	1.025997
F	2.586559	0.0	0.0
