17

C	-0.520325	0.04147	-1.422243
C	0.0	0.0	0.0
F	-0.079255	1.154823	-2.082351
H	1.094114	0.0	0.0
N	-0.000918	-1.160372	-2.206205
O	-0.759435	-2.114599	-2.327306
O	1.144233	-1.072898	-2.627634
C	-1.993929	0.023051	-1.499634
N	-3.166561	0.095172	-1.464547
N	-0.415122	-1.266396	0.591189
H	-1.146239	-1.141338	1.280791
H	0.400854	-1.663856	1.041579
C	-0.467057	1.230074	0.760204
H	-0.198613	2.145657	0.228218
H	-1.551331	1.231326	0.946681
H	0.058955	1.241187	1.719068
F	2.586658	0.0	0.0
