17

C	-0.418198	-0.068171	-1.446435
C	0.0	0.0	0.0
F	-1.777927	-0.288691	-1.602489
H	1.093838	0.0	0.0
N	-0.13212	1.252306	-2.155172
O	1.01178	1.415883	-2.556939
O	-1.055088	2.057171	-2.215513
C	0.27925	-1.132299	-2.181353
N	0.748741	-2.034667	-2.767418
N	-0.381312	-1.245796	0.669523
H	-1.210249	-1.670797	0.27408
H	0.398288	-1.887242	0.586738
C	-0.562255	1.216049	0.713346
H	-1.655073	1.280211	0.659174
H	-0.133403	2.141549	0.321931
H	-0.267391	1.126006	1.75939
F	2.580025	0.0	0.0
