17

C	-0.278773	-0.011963	-1.496343
C	0.0	0.0	0.0
F	0.132966	-1.184499	-2.053754
H	1.097117	0.0	0.0
N	-1.784743	0.059132	-1.746912
O	-2.291283	1.177691	-1.822093
O	-2.397175	-1.007373	-1.719269
C	0.334603	1.106712	-2.221327
N	0.812738	1.999048	-2.816405
N	-0.439737	-1.217846	0.653216
H	-1.338651	-1.54253	0.310316
H	0.253257	-1.931647	0.466811
C	-0.537547	1.242365	0.679439
H	-0.138057	1.246417	1.694609
H	-0.203216	2.153931	0.177642
H	-1.633257	1.259642	0.737168
F	2.571953	0.0	0.0
