15

C	0.0	0.0	0.0
C	-0.58217	0.488141	-1.318778
Br	1.938289	0.0	0.0
H	-0.450392	1.573059	-1.350965
H	-1.666115	0.286161	-1.259865
C	-0.521778	0.810284	1.16437
H	-0.21891	1.851626	1.042276
H	-0.124564	0.426524	2.102215
H	-1.615068	0.735948	1.152513
N	-0.371434	-1.471832	0.211398
O	-0.224094	-1.915437	1.344251
O	-0.746153	-2.104107	-0.767428
C	0.002422	-0.077644	-2.528255
N	0.464863	-0.455705	-3.538713
Cl	-3.689602	0.0	0.0
