15

C	0.0	0.0	0.0
C	-0.292654	0.141904	-1.508766
Br	1.947156	0.0	0.0
H	0.050533	1.146825	-1.774993
H	0.363109	-0.558991	-2.025971
C	-0.55756	1.063121	0.901474
H	-0.214103	0.912459	1.924396
H	-1.65114	0.986577	0.855339
H	-0.229334	2.041852	0.547754
N	-0.385258	-1.393538	0.483832
O	-0.487451	-1.549231	1.69346
O	-0.493851	-2.263491	-0.371835
C	-1.601354	-0.053935	-2.144938
N	-2.329728	-0.200753	-3.056927
Cl	-3.601479	0.0	0.0
