15

C	0.0	0.0	0.0
C	-0.545707	-0.02192	-1.421651
Br	1.958803	0.0	0.0
H	-0.101826	-0.837726	-1.992537
H	-1.632667	-0.186604	-1.31609
C	-0.491286	1.167996	0.817399
H	-0.138595	2.092783	0.357894
H	-1.585093	1.135642	0.810293
H	-0.117597	1.103872	1.837092
N	-0.382692	-1.322706	0.665391
O	-0.510539	-1.318704	1.881998
O	-0.47546	-2.30256	-0.065295
C	-0.32214	1.24978	-2.097118
N	-0.174714	2.280814	-2.639911
Cl	-3.633512	0.0	0.0
