15

C	0.0	0.0	0.0
C	-0.570319	-0.141881	-1.402237
Br	1.950777	0.0	0.0
H	-1.668346	-0.174547	-1.269065
H	-0.239392	-1.076431	-1.856095
C	-0.504569	1.220161	0.729611
H	-0.22043	2.111704	0.167562
H	-0.084201	1.271196	1.731761
H	-1.595594	1.144118	0.776925
N	-0.363123	-1.268234	0.781993
O	-0.460966	-1.161166	1.996569
O	-0.464405	-2.308592	0.14247
C	-0.200569	0.985051	-2.247335
N	0.106045	1.883509	-2.938146
Cl	-3.675833	0.0	0.0
