16

C	-0.565017	0.019456	-1.391029
C	0.0	0.0	0.0
Br	0.288522	-1.50723	-2.433183
H	1.08931	0.0	0.0
H	-0.295983	-0.967725	0.427141
N	-1.975064	-0.028805	-1.459197
H	-2.287576	-0.077673	-2.421422
H	-2.309306	-0.829738	-0.938232
N	-0.153547	1.244877	-2.20135
O	0.757985	1.939468	-1.776114
O	-0.776716	1.434829	-3.246534
C	-0.517005	1.13823	0.876339
H	-1.605841	1.137729	0.982426
H	-0.201842	2.103125	0.477932
H	-0.061695	1.036025	1.866099
H	2.938862	0.0	0.0
