16

C	-0.611125	0.001917	-1.377067
C	0.0	0.0	0.0
Br	0.168807	-1.37629	-2.544708
H	1.089767	0.0	0.0
H	-0.305818	0.94838	0.468328
N	-2.020095	-0.182169	-1.375031
H	-2.425861	0.490374	-0.730718
H	-2.389889	-0.002132	-2.301716
N	-0.239536	1.329544	-2.108344
O	0.851156	1.824612	-1.874272
O	-1.086834	1.783016	-2.885351
C	-0.466529	-1.180827	0.844811
H	0.03674	-1.125574	1.814387
H	-1.54838	-1.209315	1.00069
H	-0.162327	-2.118403	0.374493
H	2.963142	0.0	0.0
