16

C	-0.575155	-0.034664	-1.382969
C	0.0	0.0	0.0
Br	0.404482	-1.434674	-2.484375
H	1.088913	0.0	0.0
H	-0.326945	0.943823	0.449369
N	-1.975947	-0.218714	-1.446429
H	-2.27877	-0.269446	-2.412123
H	-2.226875	-1.071517	-0.964999
N	-0.305966	1.258922	-2.150366
O	-0.896895	1.384237	-3.222433
O	0.452609	2.078997	-1.653178
C	-0.456993	-1.178743	0.85378
H	-1.516221	-1.136397	1.131201
H	-0.254214	-2.126859	0.347889
H	0.135408	-1.178965	1.771819
H	2.915449	0.0	0.0
