15

C	-0.544341	-0.117727	-1.513192
C	0.096512	-0.125827	-0.135596
Cl	-0.046216	1.22603	-2.488742
H	1.183963	-0.198696	-0.277096
H	-0.254081	-1.041533	0.355781
N	-0.214084	-1.438857	-2.213481
O	-0.913439	-2.390993	-1.873863
O	0.754239	-1.480095	-2.95706
N	-2.076841	-0.144635	-1.447051
O	-2.590914	-0.330952	-0.352638
O	-2.670451	-0.027271	-2.513283
N	-0.176695	1.102939	0.551103
H	0.784922	1.392338	0.911871
H	-0.786029	0.920219	1.338371
H	2.312055	1.286879	1.148179
