15

C	-0.631301	-0.021524	-1.516399
C	0.036544	-0.121423	-0.162754
Cl	-0.399618	-1.481531	-2.482448
H	1.084623	-0.430532	-0.327245
H	-0.465205	-0.942942	0.367358
N	-2.141308	0.204372	-1.435093
O	-2.642578	0.246815	-0.317408
O	-2.739928	0.306806	-2.498674
N	-0.071942	1.183115	-2.263903
O	1.051528	1.043348	-2.720421
O	-0.757576	2.194229	-2.280449
N	0.066968	1.156708	0.483457
H	-0.659424	1.20807	1.186566
H	1.02292	1.154919	0.966603
H	2.395183	0.646677	1.417407
