15

C	-0.589904	0.01363	-1.545504
C	0.111088	-0.129132	-0.209134
Cl	-0.328557	-1.393383	-2.586429
H	1.188717	-0.136202	-0.370742
H	-0.178667	-1.123579	0.156996
N	-2.082029	0.168573	-1.278162
O	-2.664985	-0.856612	-0.943384
O	-2.552282	1.295971	-1.310638
N	-0.151449	1.223368	-2.357811
O	-0.819783	1.469039	-3.356696
O	0.854002	1.809519	-1.98665
N	-0.221777	0.981063	0.64004
H	-0.848406	0.6669	1.372993
H	0.717679	1.204181	1.113827
H	2.150156	1.037512	1.581071
