15

C	-0.546117	0.216828	-1.538987
C	0.101077	0.116355	-0.172032
Cl	-0.392333	1.838715	-2.228386
H	1.186745	0.253896	-0.276957
H	-0.290662	0.975511	0.389527
N	0.026099	-0.737441	-2.577073
O	-0.588248	-0.807674	-3.636579
O	1.067936	-1.309582	-2.295041
N	-2.023657	-0.123733	-1.38397
O	-2.711736	0.745995	-0.86154
O	-2.38211	-1.252242	-1.686008
N	-0.146678	-1.179245	0.395887
H	0.798448	-1.422198	0.846822
H	-0.8145	-1.091815	1.154121
H	2.196481	-1.23866	1.395324
