14

C	0.0	0.0	0.0
C	-0.594522	-0.23781	-1.370688
F	1.35283	0.0	0.0
H	-0.40132	-1.26798	-1.674581
H	-1.683011	-0.084362	-1.284725
N	-0.387998	1.379407	0.545873
O	-0.79076	2.208044	-0.254176
O	-0.157297	1.545192	1.737449
C	-0.451179	-1.026022	0.948409
N	-0.611938	-1.935229	1.673914
N	-0.061558	0.623786	-2.465214
O	0.962088	1.277564	-2.296104
O	-0.702898	0.572365	-3.509779
Cl	-3.447826	0.0	0.0
