14

C	0.0	0.0	0.0
C	-0.532654	-0.250696	-1.390244
F	1.346083	0.0	0.0
H	-0.251481	0.564742	-2.049714
H	-1.630622	-0.338742	-1.319353
N	-0.374634	1.434276	0.428755
O	-0.426272	2.269937	-0.464345
O	-0.450377	1.640239	1.630543
C	-0.451914	-0.928691	1.042129
N	-0.666611	-1.654313	1.940331
N	0.035294	-1.492158	-1.969639
O	0.351904	-2.407356	-1.212422
O	0.114113	-1.527719	-3.196118
Cl	-3.349908	0.0	0.0
