14

C	0.0	0.0	0.0
C	-0.161985	0.107519	-1.531462
F	1.378328	0.0	0.0
H	0.528773	0.90367	-1.804996
H	0.201409	-0.844631	-1.916027
N	-0.337562	1.262419	0.770089
O	-0.309457	2.303921	0.128209
O	-0.422519	1.146727	1.984375
C	-0.46502	-1.190815	0.696154
N	-0.430659	-2.199518	1.305601
N	-1.393742	0.416199	-2.315078
O	-1.880681	-0.515339	-2.947082
O	-1.698997	1.596652	-2.421429
Cl	-2.89378	0.0	0.0
