14

C	0.0	0.0	0.0
C	-0.506685	-0.082892	-1.443461
F	1.371857	0.0	0.0
H	-1.593523	-0.227063	-1.287751
H	-0.31208	-0.91713	0.514749
N	-0.544688	1.190141	0.581271
H	-1.573078	0.973509	0.490872
H	-0.311164	1.189835	1.569139
C	0.081156	-1.247095	-2.112372
N	0.511382	-2.20165	-2.646308
N	-0.160692	1.14794	-2.175379
H	-0.946959	1.373133	-2.775301
H	-0.131911	1.870666	-1.459473
F	-2.816865	0.0	0.0
