14

C	0.0	0.0	0.0
C	-0.48713	0.029694	-1.450876
F	1.395289	0.0	0.0
H	-1.588256	0.002434	-1.276394
H	-0.332385	-0.938282	0.447277
N	-0.513091	1.078146	0.77295
H	-1.532018	0.849535	0.739816
H	-0.39829	1.913258	0.204406
C	-0.0445	-1.155733	-2.19797
N	0.300532	-2.094981	-2.816543
N	-0.078536	1.281804	-2.090652
H	0.902548	1.231257	-2.33864
H	-0.611815	1.418203	-2.939299
F	-2.798013	0.0	0.0
