14

C	0.0	0.0	0.0
C	-0.453125	-0.381379	-1.41605
F	1.396943	0.0	0.0
H	0.357398	-0.070832	-2.112203
H	-0.360962	-0.700824	0.744017
N	-0.346468	1.37631	0.286483
H	0.435436	1.96244	-0.019242
H	-0.484955	1.525884	1.273849
C	-1.722171	0.223898	-1.902429
N	-2.419692	0.605218	-2.785074
N	-0.549748	-1.863702	-1.426058
H	-1.414142	-2.057845	-0.892045
H	-0.735304	-2.147522	-2.386439
F	-2.516382	0.0	0.0
