14

C	0.0	0.0	0.0
C	-0.4895	0.162302	-1.42086
Br	1.934709	0.0	0.0
H	0.083316	0.961498	-1.896024
H	-0.366773	-0.887858	0.508186
H	-1.53731	0.460113	-1.349102
N	-0.37886	1.166963	0.878275
O	-0.475354	2.264495	0.342737
O	-0.48986	0.932359	2.07592
C	-0.385332	-1.146794	-2.193481
H	-1.108084	-1.861921	-1.795455
H	-0.627526	-0.980511	-3.246052
H	0.617215	-1.581878	-2.14578
Cl	-3.449414	0.0	0.0
