14

C	0.0	0.0	0.0
C	-0.49673	0.164945	-1.417029
Br	1.934891	0.0	0.0
H	0.05917	0.977595	-1.889469
H	-0.362532	-0.891277	0.505567
H	-1.550088	0.442361	-1.336926
N	-0.37985	1.160424	0.886652
O	-0.479682	0.918886	2.083898
O	-0.490167	2.259559	0.357729
C	-0.372951	-1.136107	-2.20017
H	-0.663306	-0.973901	-3.240866
H	0.646562	-1.532467	-2.193923
H	-1.051565	-1.881467	-1.780036
Cl	-3.458454	0.0	0.0
