13

C	-0.335715	0.05714	-1.485067
C	0.0	0.0	0.0
Cl	0.022954	1.634599	-2.173228
H	1.097934	0.0	0.0
H	0.247552	-0.692127	-2.017751
N	-1.784085	-0.260333	-1.770658
O	-2.002647	-0.904247	-2.793702
O	-2.621835	0.15699	-0.979567
C	-0.44913	-1.278524	0.547172
N	-0.805721	-2.323123	0.948918
C	-0.507977	1.122122	0.780078
N	-0.876057	2.031631	1.424889
Cl	3.117094	0.0	0.0
