13

C	-0.562512	-0.252175	-1.40138
C	0.0	0.0	0.0
Cl	0.241168	-1.612592	-2.172748
H	1.102904	0.0	0.0
H	-1.633329	-0.44892	-1.387376
N	-0.403601	0.969832	-2.273731
O	0.62869	1.616064	-2.164423
O	-1.339672	1.191789	-3.040063
C	-0.449899	-1.09323	0.863139
N	-0.836253	-1.971581	1.540738
C	-0.513263	1.26661	0.519155
N	-0.966982	2.273375	0.920313
Cl	3.139065	0.0	0.0
