13

C	-0.369417	0.102264	-1.473588
C	0.0	0.0	0.0
Cl	-2.115436	0.046153	-1.774223
H	1.09314	0.0	0.0
H	0.02128	1.030307	-1.885947
N	0.271069	-0.998502	-2.281994
O	0.640853	-0.678231	-3.406575
O	0.328391	-2.111266	-1.776775
C	-0.542901	-1.168285	0.685962
N	-1.003108	-2.062593	1.292118
C	-0.449459	1.220244	0.669047
N	-0.811303	2.210495	1.186662
Cl	3.110494	0.0	0.0
