16

C	-0.549637	-0.015932	-1.422545
C	0.0	0.0	0.0
Br	-0.007733	-1.705639	-2.260605
H	1.10059	0.0	0.0
H	-0.036464	0.75009	-2.000045
C	-2.058661	0.116928	-1.497187
H	-2.402777	0.028256	-2.529306
H	-2.530431	-0.65484	-0.889551
H	-2.354783	1.099579	-1.120577
N	-0.579823	-1.045623	0.823826
H	-0.312418	-0.848064	1.781977
H	-0.101523	-1.901573	0.561446
N	-0.357544	1.328504	0.612167
O	-0.607496	1.36282	1.815359
O	-0.315325	2.316218	-0.119996
Br	3.471316	0.0	0.0
