16

C	-0.559744	-0.07251	-1.406559
C	0.0	0.0	0.0
Br	0.146842	1.400908	-2.483627
H	1.096715	0.0	0.0
H	-1.639583	0.072075	-1.382147
C	-0.166353	-1.384616	-2.064591
H	0.915493	-1.523396	-2.000505
H	-0.677845	-2.212828	-1.566017
H	-0.458856	-1.388384	-3.115723
N	-0.514942	-1.128847	0.793597
H	0.044035	-1.933313	0.520229
H	-0.221945	-0.93774	1.74914
N	-0.48528	1.215612	0.735512
O	0.026746	1.41101	1.836633
O	-1.382509	1.901308	0.24795
Br	3.512598	0.0	0.0
