16

C	-0.354204	-0.132401	-1.479891
C	0.0	0.0	0.0
Br	-2.313805	-0.245642	-1.74745
H	1.094555	0.0	0.0
H	0.00136	-1.124663	-1.764158
C	0.24423	0.916671	-2.39341
H	-0.199738	1.896457	-2.226366
H	0.09711	0.631485	-3.437506
H	1.314313	0.976254	-2.172928
N	-0.443668	-1.040274	0.863724
H	0.283167	-1.736197	0.955086
H	-1.323095	-1.447832	0.579246
N	-0.491501	1.332791	0.509071
O	-1.500716	1.348865	1.209593
O	0.131825	2.329481	0.144998
Br	3.462701	0.0	0.0
