16

C	-0.506725	-0.001195	-1.453541
C	0.0	0.0	0.0
Br	-0.082936	-1.731064	-2.260687
H	1.090659	0.0	0.0
H	0.085395	0.722255	-2.012644
C	-1.993317	0.272978	-1.60398
H	-2.222471	1.282464	-1.254029
H	-2.594288	-0.437929	-1.031911
H	-2.289516	0.198743	-2.651556
N	-0.451664	-1.022315	0.873771
H	0.256386	-1.738578	0.936138
H	-1.341279	-1.423707	0.616362
N	-0.446052	1.362983	0.515815
O	-1.305779	1.420681	1.391068
O	0.042243	2.33554	-0.058327
Br	3.484353	0.0	0.0
