14

C	-0.611314	0.047571	-1.391317
C	0.0	0.0	0.0
Br	-0.00019	-1.683795	-2.256858
H	1.088274	0.0	0.0
H	-0.370498	-0.880962	0.524576
N	-2.026289	0.157782	-1.314033
H	-2.457917	0.151249	-2.229255
H	-2.411745	-0.588937	-0.743791
C	-0.097952	1.099701	-2.26892
N	0.219916	1.904766	-3.06474
N	-0.478273	1.17706	0.773425
O	-0.213852	2.286907	0.319329
O	-1.105902	0.957696	1.812904
Cl	3.274676	0.0	0.0
