14

C	-0.32411	-0.198327	-1.480795
C	0.0	0.0	0.0
Br	-0.498084	1.807416	-2.196645
H	1.088705	0.0	0.0
H	-0.424308	0.898708	0.429934
N	0.673692	-0.909672	-2.100863
H	0.590916	-1.017642	-3.100158
H	1.614477	-0.689602	-1.766227
C	-1.663162	-0.695931	-1.788206
N	-2.727905	-1.12579	-2.038201
N	-0.465069	-1.14426	0.832531
O	-0.725833	-0.886161	2.006321
O	-0.539751	-2.255079	0.31735
Cl	3.272761	0.0	0.0
