16

C	-0.316963	0.020468	-1.501227
C	0.0	0.0	0.0
F	-0.014152	-1.267532	-2.000117
H	1.097948	0.0	0.0
C	-1.763083	0.18763	-1.779472
N	-2.915996	0.278184	-1.982338
N	0.438684	1.034068	-2.115739
H	1.413772	0.961731	-1.823987
H	0.361578	0.99986	-3.123952
C	-0.531379	-1.23179	0.723674
H	-0.217672	-1.195852	1.768134
H	-0.10931	-2.126469	0.268694
H	-1.623405	-1.281868	0.685202
C	-0.480111	1.23105	0.618451
N	-0.87778	2.188742	1.170619
Br	3.451691	0.0	0.0
