16

C	-0.488951	-0.028089	-1.45114
C	0.0	0.0	0.0
F	0.114119	1.035399	-2.129759
H	1.094921	0.0	0.0
C	-0.061791	-1.266511	-2.137659
N	0.201543	-2.250527	-2.720054
N	-1.910975	0.048215	-1.530746
H	-2.224805	0.896823	-1.071599
H	-2.203868	0.068388	-2.500322
C	-0.467743	-1.21888	0.798624
H	-0.048095	-2.122686	0.352972
H	-0.082509	-1.144065	1.816812
H	-1.555883	-1.296069	0.820661
C	-0.488784	1.236177	0.605316
N	-0.952922	2.203533	1.084774
Br	3.452647	0.0	0.0
