16

C	-0.488916	-0.027153	-1.451176
C	0.0	0.0	0.0
F	0.114273	1.036701	-2.129111
H	1.094945	0.0	0.0
C	-0.061794	-1.26525	-2.138325
N	0.200853	-2.249485	-2.720605
N	-1.91092	0.049273	-1.530837
H	-2.224695	0.897659	-1.07127
H	-2.203754	0.069974	-2.500393
C	-0.467686	-1.219462	0.797766
H	-0.082481	-1.145311	1.816007
H	-1.555814	-1.296753	0.81971
H	-0.047972	-2.122943	0.351535
C	-0.488806	1.235838	0.605989
N	-0.952984	2.203959	1.083864
Br	3.452537	0.0	0.0
