16

C	-0.489173	-0.032545	-1.451039
C	0.0	0.0	0.0
F	0.114187	1.028748	-2.132935
H	1.094849	0.0	0.0
C	-0.061636	-1.273003	-2.133781
N	0.20291	-2.257466	-2.715327
N	-1.910937	0.043505	-1.531053
H	-2.204296	0.060571	-2.500583
H	-2.225071	0.893237	-1.074157
C	-0.467708	-1.216359	0.802464
H	-1.555912	-1.292927	0.825715
H	-0.081435	-1.139085	1.820127
H	-0.048966	-2.121573	0.358787
C	-0.488839	1.237825	0.601907
N	-0.952592	2.204034	1.084018
Br	3.451549	0.0	0.0
