16

C	-0.32591	-0.134729	-1.494153
C	0.0	0.0	0.0
F	-1.643006	-0.572929	-1.671331
H	1.097482	0.0	0.0
C	-0.276244	1.176556	-2.194546
N	-0.210494	2.194887	-2.776435
N	0.552962	-1.109455	-2.048557
H	0.551673	-1.068828	-3.059796
H	1.504099	-0.967459	-1.701949
C	-0.469069	-1.233179	0.776496
H	-0.067733	-1.186053	1.790324
H	-1.558166	-1.285583	0.819479
H	-0.083141	-2.128264	0.289688
C	-0.537073	1.222087	0.580287
N	-0.989651	2.179037	1.089885
Br	3.435304	0.0	0.0
