16

C	-0.309898	0.012503	-1.511848
C	0.0	0.0	0.0
F	-0.030537	-1.262005	-1.980728
H	1.09824	0.0	0.0
C	-1.750526	0.255819	-1.7718
N	-2.897637	0.430961	-1.950601
N	0.487477	0.933946	-2.261016
H	0.169263	1.883175	-2.107536
H	1.451353	0.854648	-1.930894
C	-0.564242	-1.194198	0.758317
H	-0.265811	-1.135936	1.806499
H	-1.656505	-1.224949	0.703803
H	-0.154175	-2.110368	0.335569
C	-0.44836	1.270074	0.562417
N	-0.839778	2.286354	1.004403
Br	3.445386	0.0	0.0
