16

C	-0.3025	0.01648	-1.506156
C	0.0	0.0	0.0
F	-0.033525	-1.286203	-1.990242
H	1.097967	0.0	0.0
C	-1.738965	0.225929	-1.804725
N	-2.885923	0.35419	-2.023605
N	0.491503	1.000986	-2.119245
H	0.427555	0.96097	-3.128717
H	1.460694	0.907449	-1.810649
C	-0.545802	-1.223424	0.725544
H	-0.116284	-2.123514	0.288234
H	-0.254683	-1.176496	1.77608
H	-1.637023	-1.272563	0.664471
C	-0.475677	1.239042	0.60653
N	-0.869869	2.204233	1.148024
Br	3.454642	0.0	0.0
