16

C	-0.500801	0.002499	-1.44425
C	0.0	0.0	0.0
F	-1.924772	0.102501	-1.398402
H	1.095121	0.0	0.0
C	-0.07182	1.205686	-2.184733
N	0.203485	2.155309	-2.816226
N	-0.089637	-1.145622	-2.149834
H	-0.393475	-1.990347	-1.687194
H	-0.41929	-1.127961	-3.105895
C	-0.438249	-1.260603	0.755499
H	-0.180149	-1.147999	1.809112
H	0.121799	-2.122615	0.38739
H	-1.513275	-1.434871	0.669141
C	-0.494023	1.193967	0.681366
N	-0.892326	2.132026	1.264948
Br	3.452978	0.0	0.0
