16

C	-0.517858	-0.018754	-1.449651
C	0.0	0.0	0.0
F	0.020764	1.071196	-2.094839
H	1.095125	0.0	0.0
C	-0.060815	-1.251252	-2.13378
N	0.260046	-2.245889	-2.668653
N	-1.94902	0.064519	-1.620919
H	-2.308294	0.809887	-1.032848
H	-2.389044	-0.806204	-1.357245
C	-0.454283	-1.223461	0.798923
H	-0.071494	-2.132122	0.329107
H	-1.543167	-1.284354	0.886895
H	-0.027809	-1.169166	1.80173
C	-0.49555	1.22508	0.621931
N	-0.987997	2.175775	1.106805
Br	3.444505	0.0	0.0
