14
Coordinates from ORCA-job run
  C   -0.56793446893709      0.70466705456096      0.06094574701714
  C   0.78760398832139      0.14447180822387     -0.37150834056645
  H   -0.48402308597394      1.02371717785787      1.10276212250425
  H   0.77784643087188     -0.16812180963964     -1.41756985135285
  H   -0.75314913134880      1.59845980479630     -0.54200115376259
  C   -1.69137029214844     -0.31071500272980     -0.11324925730496
  H   -2.65206928828168      0.15297237108221      0.11697759719955
  H   -1.56825405335903     -1.16346230368967      0.55729114138200
  H   -1.73440836693369     -0.68851197360678     -1.13763045256428
  N   1.05172909479858     -1.11531106732556      0.41985674034850
  O   1.00010877611983     -2.17294388556253     -0.19972016535303
  O   1.23505980895410     -0.97660386263004      1.62351949215521
  C   1.87469221384408      1.09011804882344     -0.13580915792985
  N   2.72416837407281      1.88226363983935      0.03513553822735
