13

C	-0.279868	-0.011176	-1.519876
C	0.0	0.0	0.0
Cl	0.399972	1.478523	-2.244894
H	1.097214	0.0	0.0
C	0.375859	-1.173097	-2.131451
N	0.847185	-2.103213	-2.673415
C	-1.712795	-0.049785	-1.833944
N	-2.867681	-0.07983	-2.053407
C	-0.49227	-1.22183	0.605354
N	-0.86013	-2.227697	1.092811
C	-0.548181	1.179581	0.635204
N	-0.960651	2.144922	1.166129
F	2.41249	0.0	0.0
