13

C	-0.279792	0.009449	-1.51989
C	0.0	0.0	0.0
Cl	0.399482	-1.481295	-2.243366
H	1.097194	0.0	0.0
C	-1.712665	0.048042	-1.834136
N	-2.867548	0.078077	-2.053682
C	0.376233	1.170594	-2.132602
N	0.846708	2.100846	-2.674981
C	-0.548305	-1.178815	0.636509
N	-0.960875	-2.143529	1.16852
C	-0.492177	1.222522	0.603984
N	-0.859916	2.228901	1.090393
F	2.412452	0.0	0.0
