13

C	-0.193157	-0.00099	-1.518949
C	0.0	0.0	0.0
Cl	-1.939157	-0.002198	-2.022991
H	1.098455	0.0	0.0
C	0.429343	1.195121	-2.096219
N	0.886745	2.149122	-2.606959
C	0.430642	-1.197249	-2.094559
N	0.884508	-2.154233	-2.602793
C	-0.520395	-1.204873	0.60703
N	-0.911767	-2.193666	1.109772
C	-0.520654	1.205599	0.605404
N	-0.912286	2.194951	1.106872
F	2.40319	0.0	0.0
