13

C	-0.286231	-0.00908	-1.518407
C	0.0	0.0	0.0
Cl	0.405413	1.473073	-2.248491
H	1.097211	0.0	0.0
C	0.353642	-1.178535	-2.132069
N	0.816438	-2.114304	-2.671487
C	-1.720754	-0.031946	-1.825556
N	-2.877476	-0.050015	-2.036949
C	-0.492945	-1.220351	0.606915
N	-0.861321	-2.225301	1.095591
C	-0.543668	1.180645	0.637114
N	-0.951497	2.147368	1.169122
F	2.412177	0.0	0.0
