13

C	-0.285532	0.013543	-1.518463
C	0.0	0.0	0.0
Cl	0.41264	-1.461424	-2.256595
H	1.097218	0.0	0.0
C	-1.719509	0.031083	-1.825572
N	-2.875979	0.043446	-2.035993
C	0.347558	1.189028	-2.125935
N	0.814059	2.125606	-2.659792
C	-0.543425	-1.183053	0.632135
N	-0.951348	-2.151903	1.159892
C	-0.4933	1.21804	0.610514
N	-0.862537	2.221685	1.101001
F	2.412029	0.0	0.0
