13

C	-0.336957	-0.006411	-1.506621
C	0.0	0.0	0.0
Cl	0.385906	1.438039	-2.278368
H	1.097213	0.0	0.0
C	0.226771	-1.207921	-2.132693
N	0.658219	-2.167593	-2.656061
C	-1.785847	0.02938	-1.751509
N	-2.94921	0.058954	-1.914973
C	-0.493886	-1.209762	0.628837
N	-0.870506	-2.204222	1.132236
C	-0.515307	1.190337	0.646967
N	-0.908517	2.160776	1.182616
F	2.409635	0.0	0.0
