13

C	-0.296363	-0.011014	-1.516054
C	0.0	0.0	0.0
Cl	0.405695	1.461194	-2.256042
H	1.097142	0.0	0.0
C	0.325944	-1.189433	-2.130349
N	0.779244	-2.13011	-2.669247
C	-1.733473	-0.019191	-1.812058
N	-2.89169	-0.024216	-2.015654
C	-0.493989	-1.216934	0.613035
N	-0.863651	-2.21899	1.10667
C	-0.537343	1.183955	0.637089
N	-0.939887	2.153038	1.168787
F	2.412056	0.0	0.0
