13

C	-0.279205	0.009582	-1.52004
C	0.0	0.0	0.0
Cl	0.400739	-1.480085	-2.244196
H	1.097162	0.0	0.0
C	-1.712285	0.047659	-1.83458
N	-2.866736	0.077408	-2.056765
C	0.375662	1.171801	-2.13204
N	0.848101	2.100613	-2.675372
C	-0.548362	-1.178814	0.636201
N	-0.962828	-2.142988	1.167705
C	-0.492003	1.222347	0.604106
N	-0.860452	2.228161	1.091116
F	2.412379	0.0	0.0
