13

C	-0.281072	0.011239	-1.51972
C	0.0	0.0	0.0
Cl	0.402825	-1.476725	-2.246361
H	1.097152	0.0	0.0
C	-1.714838	0.045504	-1.832839
N	-2.871126	0.071851	-2.049258
C	0.371185	1.176344	-2.131221
N	0.84152	2.108764	-2.670664
C	-0.545711	-1.180496	0.635493
N	-0.953954	-2.148009	1.165787
C	-0.493517	1.220974	0.60528
N	-0.861943	2.226538	1.092751
F	2.412315	0.0	0.0
