12

C	0.0	0.0	0.0
C	-0.451114	-0.12761	-1.457634
Cl	1.842085	0.0	0.0
H	-0.110689	0.751117	-2.014687
H	-0.292131	-0.889861	0.554942
H	-1.549264	-0.128184	-1.426792
N	-0.493307	1.148818	0.685164
H	-0.373725	1.97093	0.102292
H	-1.500066	0.995056	0.795949
C	0.036129	-1.326975	-2.134585
N	0.436072	-2.251097	-2.738851
Cl	-3.523216	0.0	0.0
