12

C	0.0	0.0	0.0
C	-0.503337	0.193872	-1.425208
Cl	1.783639	0.0	0.0
H	-1.601084	0.175173	-1.375942
H	-0.285018	-0.999346	0.345427
H	-0.173691	1.176024	-1.774648
N	-0.503894	1.082318	0.801929
H	-0.2696	0.905998	1.773214
H	-1.525686	1.023277	0.725494
C	-0.035636	-0.83497	-2.347355
N	0.337338	-1.652149	-3.103073
Cl	-3.56486	0.0	0.0
