12

C	0.0	0.0	0.0
C	-0.525216	0.331985	-1.390223
Cl	1.830893	0.0	0.0
H	-1.622139	0.267205	-1.293369
H	-0.300444	-1.010785	0.269667
H	-0.256956	1.360182	-1.650768
N	-0.517217	0.920523	0.931818
H	-0.649396	0.544863	1.855486
H	-0.03244	1.804302	0.942359
C	-0.038669	-0.57158	-2.427994
N	0.343324	-1.297223	-3.268229
Cl	-3.755279	0.0	0.0
