14

C	-0.507003	-0.118335	-1.418855
C	0.0	0.0	0.0
F	-1.892015	-0.11215	-1.453247
H	1.089804	0.0	0.0
H	-0.158212	-1.071084	-1.820796
C	-0.025095	0.982437	-2.264243
N	0.27925	1.844305	-2.99876
N	-0.40869	-1.185847	0.814398
O	-0.263384	-1.082642	2.024529
O	-0.77817	-2.191759	0.210807
N	-0.555533	1.236524	0.62341
O	-1.616828	1.147393	1.234036
O	0.075072	2.265612	0.405536
Cl	3.122721	0.0	0.0
