14

C	-0.599653	-0.004006	-1.3954
C	0.0	0.0	0.0
F	-0.232405	1.181719	-2.001271
H	1.088062	0.0	0.0
H	-1.687919	-0.032173	-1.33855
C	-0.12113	-1.138313	-2.195226
N	0.199782	-2.06208	-2.843857
N	-0.499999	-1.159799	0.795817
O	-0.011775	-1.295387	1.911591
O	-1.375037	-1.868146	0.290956
N	-0.530369	1.206549	0.726024
O	-1.747102	1.388459	0.641042
O	0.262225	1.888202	1.359041
Cl	3.191606	0.0	0.0
