14

C	-0.599402	-0.004193	-1.395529
C	0.0	0.0	0.0
F	-0.232557	1.181783	-2.001205
H	1.088029	0.0	0.0
H	-1.687672	-0.032831	-1.338929
C	-0.120168	-1.138132	-2.195445
N	0.201295	-2.061519	-2.844342
N	-0.499992	-1.159765	0.795833
O	-0.013528	-1.293948	1.912529
O	-1.373185	-1.869628	0.289944
N	-0.530531	1.20659	0.725745
O	-1.747251	1.388445	0.640437
O	0.261859	1.888364	1.358876
Cl	3.191371	0.0	0.0
