14

C	-0.599633	-0.0038	-1.395417
C	0.0	0.0	0.0
F	-0.232408	1.182029	-2.001086
H	1.088065	0.0	0.0
H	-1.687895	-0.031995	-1.33858
C	-0.121073	-1.137973	-2.195412
N	0.19992	-2.061637	-2.844147
N	-0.500078	-1.159852	0.795687
O	-0.011789	-1.295661	1.91141
O	-1.375258	-1.868	0.290797
N	-0.530351	1.206509	0.726081
O	-1.747087	1.388414	0.641128
O	0.262253	1.888173	1.359073
Cl	3.191621	0.0	0.0
