14

C	-0.541006	-0.067395	-1.413853
C	0.0	0.0	0.0
F	-1.914997	0.096838	-1.408389
H	1.089787	0.0	0.0
H	-0.321951	-1.059587	-1.808042
C	0.0509	0.941022	-2.300498
N	0.497665	1.699876	-3.075862
N	-0.412934	-1.200121	0.793649
O	-1.001526	-2.110885	0.210986
O	-0.070322	-1.201657	1.967869
N	-0.524539	1.23076	0.665476
O	-1.413796	1.118063	1.504073
O	-0.039288	2.277713	0.25125
Cl	3.123543	0.0	0.0
