13

C	-0.536245	0.010085	-1.422072
C	0.0	0.0	0.0
F	-0.291623	-1.249127	-1.977295
H	1.096939	0.0	0.0
H	0.036674	0.703261	-2.052438
H	-0.377108	-0.912502	0.467995
N	-1.945992	0.257577	-1.421178
H	-2.141395	0.843943	-0.616693
H	-2.240644	0.725825	-2.266163
N	-0.524046	1.168811	0.7439
H	0.103594	1.945222	0.556728
H	-0.41641	0.976665	1.732721
Cl	3.615719	0.0	0.0
