13

C	-0.422176	-0.089493	-1.447021
C	0.0	0.0	0.0
F	-0.226755	1.178963	-2.049723
H	1.103148	0.0	0.0
H	-1.49262	-0.292891	-1.548538
H	-0.379254	0.929974	0.428232
N	0.331135	-1.108215	-2.08789
H	0.138292	-1.140695	-3.081413
H	1.323765	-0.940036	-1.935085
N	-0.571987	-1.147899	0.725619
H	-0.204196	-1.975953	0.266718
H	-0.160911	-1.149716	1.652893
Cl	3.622309	0.0	0.0
