13

C	-0.549753	-0.016403	-1.405461
C	0.0	0.0	0.0
F	-1.968904	-0.288145	-1.285555
H	1.091955	0.0	0.0
H	-0.166007	-0.86009	-1.984578
H	-0.325525	-0.928788	0.487198
N	-0.321065	1.205139	-2.067116
H	-0.863174	1.278045	-2.915312
H	-0.529058	1.961911	-1.426108
N	-0.476317	1.206686	0.688583
H	-1.383407	1.032142	1.104661
H	0.179744	1.444537	1.423516
Cl	3.662109	0.0	0.0
