13

C	-0.459488	0.126204	-1.441287
C	0.0	0.0	0.0
F	-0.317147	1.453877	-1.839022
H	1.094181	0.0	0.0
H	-1.525018	-0.123556	-1.528896
H	-0.368843	0.843448	0.596104
N	0.278876	-0.697831	-2.363224
H	1.268618	-0.532237	-2.185416
H	0.101834	-1.658106	-2.08864
N	-0.44358	-1.314982	0.497892
H	0.311736	-1.724219	1.03162
H	-1.233953	-1.211132	1.120395
Cl	3.546517	0.0	0.0
