13

C	-0.399183	0.081371	-1.450972
C	0.0	0.0	0.0
F	-1.793019	0.249692	-1.527147
H	1.093507	0.0	0.0
H	-0.167861	-0.863593	-1.947869
H	-0.329767	0.933591	0.487711
N	0.221795	1.159853	-2.176064
H	1.204191	0.9208	-2.281073
H	0.203278	1.989858	-1.591253
N	-0.509975	-1.214024	0.632801
H	-1.444092	-1.053704	0.986154
H	0.088832	-1.449526	1.413267
Cl	3.544967	0.0	0.0
