13

C	-0.454206	-0.090008	-1.445861
C	0.0	0.0	0.0
F	-0.285394	1.157673	-2.046815
H	1.094175	0.0	0.0
H	-1.525348	-0.327913	-1.499429
H	-0.365902	0.927913	0.457533
N	0.265628	-1.061497	-2.225983
H	0.085556	-1.960517	-1.789733
H	1.257727	-0.878035	-2.086962
N	-0.444962	-1.220936	0.693178
H	0.280252	-1.504617	1.339778
H	-1.282797	-1.039255	1.233354
Cl	3.596787	0.0	0.0
