13

C	-0.570748	-0.096096	-1.399302
C	0.0	0.0	0.0
F	-0.187459	-1.334041	-1.922648
H	1.098158	0.0	0.0
H	-0.13927	0.669464	-2.050117
H	-0.334049	0.956975	0.418084
N	-2.009546	-0.030454	-1.45572
H	-2.355252	-0.433489	-0.590231
H	-2.300737	0.937128	-1.503303
N	-0.591608	-1.082847	0.806982
H	-0.242555	-0.986373	1.75331
H	-0.192823	-1.94701	0.45573
Cl	3.637991	0.0	0.0
