15

C	0.0	0.0	0.0
C	-0.50431	-0.207825	-1.438651
Cl	1.801617	0.0	0.0
H	-0.067392	0.593372	-2.044428
H	-1.589098	-0.069675	-1.392153
C	-0.506257	1.306538	0.584048
H	-1.599034	1.251723	0.606855
H	-0.186823	2.131297	-0.057726
H	-0.112084	1.461268	1.59017
C	-0.372855	-1.143892	0.838685
N	-0.608411	-2.073343	1.517486
N	-0.217425	-1.492839	-2.044672
H	0.750158	-1.749861	-1.890715
H	-0.80526	-2.19638	-1.614755
Cl	-3.752921	0.0	0.0
