15

C	0.0	0.0	0.0
C	-0.503004	0.289405	-1.429689
Cl	1.802286	0.0	0.0
H	-0.024186	-0.426715	-2.104254
H	-1.580325	0.095123	-1.405861
C	-0.510271	0.996253	1.02441
H	-0.128209	1.990928	0.786746
H	-1.60482	0.986247	0.981166
H	-0.17327	0.721444	2.025142
C	-0.376107	-1.368475	0.367436
N	-0.616639	-2.478653	0.667558
N	-0.27675	1.637667	-1.91306
H	0.667587	1.940969	-1.707259
H	-0.928873	2.269549	-1.467215
Cl	-3.744524	0.0	0.0
