15

C	0.0	0.0	0.0
C	-0.505129	-0.314828	-1.418817
Cl	1.800803	0.0	0.0
H	-0.033394	0.413407	-2.08814
H	-1.584651	-0.134743	-1.396653
C	-0.499676	1.35087	0.478897
H	-1.592508	1.304162	0.509601
H	-0.175886	2.122024	-0.225307
H	-0.100924	1.586064	1.467362
C	-0.373598	-1.072537	0.928615
N	-0.576903	-1.953988	1.677001
N	-0.267113	-1.659942	-1.905116
H	0.680304	-1.952817	-1.699231
H	-0.904179	-2.292144	-1.436309
Cl	-3.729167	0.0	0.0
