16

C	-0.295226	-0.091686	-1.496761
C	0.0	0.0	0.0
Br	0.113551	1.92101	-2.291653
H	1.094653	0.0	0.0
N	0.609329	-0.974608	-2.068041
H	0.608397	-0.95011	-3.078771
H	1.549342	-0.790405	-1.687564
N	-1.64879	-0.345806	-1.810764
H	-2.218412	0.418337	-1.466196
H	-1.784463	-0.416917	-2.812906
N	-0.363334	-1.24401	0.684225
H	-1.08893	-1.716934	0.157658
H	0.469418	-1.825121	0.674481
C	-0.63749	1.133021	0.651905
N	-1.18338	2.017751	1.202024
H	2.693627	0.0	0.0
