16

C	-0.430852	-0.070429	-1.468262
C	0.0	0.0	0.0
Br	0.191444	1.675193	-2.322962
H	1.092786	0.0	0.0
N	0.251719	-1.118126	-2.17429
H	1.249065	-0.944648	-2.046707
H	0.046933	-1.950324	-1.622548
N	-1.830484	-0.239642	-1.612923
H	-2.328029	0.555481	-1.230939
H	-2.04998	-0.338343	-2.597338
N	-0.319927	-1.284556	0.625335
H	-1.223743	-1.272651	1.080022
H	0.409714	-1.477299	1.305414
C	-0.573435	1.136607	0.710761
N	-1.093008	2.000847	1.319099
H	2.71477	0.0	0.0
