18

C	-0.455114	0.000319	-1.446573
C	0.0	0.0	0.0
Br	0.587542	-1.310306	-2.455651
H	1.092897	0.0	0.0
N	-1.934942	-0.328873	-1.660377
O	-2.70462	0.220588	-0.870589
O	-2.290704	-0.852922	-2.707796
C	-0.288827	1.351286	-2.144363
H	0.742024	1.686142	-2.021233
H	-0.510986	1.247201	-3.208911
H	-0.974927	2.082348	-1.709823
C	-0.331681	-1.293072	0.60413
N	-0.069423	-2.45829	0.754991
C	-0.434325	1.222468	0.814721
H	-0.009767	2.137233	0.394143
H	-1.518189	1.323762	0.879685
H	-0.025443	1.122724	1.824223
Br	2.897026	0.0	0.0
