14

C	0.0	0.0	0.0
C	-0.463682	0.14567	-1.486762
Br	1.918977	0.0	0.0
H	0.436311	0.180163	-2.110773
H	-0.356275	0.81447	0.615342
N	-0.398856	-1.24244	0.747128
O	-0.312191	-2.321298	0.177935
O	-0.664137	-1.076565	1.932879
C	-1.068162	1.495284	-1.600775
N	-1.443708	2.580488	-1.850689
N	-1.305316	-0.921863	-1.992868
H	-2.127025	-0.825753	-1.367069
H	-1.559963	-0.670276	-2.942754
F	-2.45694	0.0	0.0
