14

C	0.0	0.0	0.0
C	-0.401865	0.021666	-1.481561
Br	1.930226	0.0	0.0
H	0.08264	0.950747	-1.835271
H	-0.340095	0.893304	0.506793
N	-0.428563	-1.139945	0.875035
O	-0.490839	-2.264184	0.401877
O	-0.597174	-0.849269	2.054506
C	-1.854929	0.211196	-1.753454
N	-2.597036	0.443278	-2.654894
N	0.058862	-1.139799	-2.242939
H	-0.404368	-1.091869	-3.139782
H	1.05798	-1.080818	-2.392177
F	-2.389322	0.0	0.0
