14

C	0.0	0.0	0.0
C	-0.43532	0.11678	-1.46845
Br	1.947085	0.0	0.0
H	0.237123	0.898881	-1.861552
H	-0.317351	0.868497	0.561338
N	-0.407597	-1.182055	0.826571
O	-0.647293	-0.940552	2.005036
O	-0.3597	-2.294635	0.321422
C	-1.806117	0.658523	-1.652976
N	-2.492004	1.2682	-2.407254
N	-0.317302	-1.124999	-2.227964
H	0.642948	-1.44976	-2.19928
H	-0.547802	-0.894471	-3.187345
F	-2.383588	0.0	0.0
