14

C	0.0	0.0	0.0
C	-0.395927	0.204237	-1.531583
Br	1.92209	0.0	0.0
H	0.523065	0.059307	-2.107732
H	-0.396147	0.755799	0.664701
N	-0.401413	-1.321741	0.574578
O	-0.352265	-2.300335	-0.166521
O	-0.641948	-1.350476	1.773315
C	-0.715369	1.636106	-1.637891
N	-0.872588	2.797351	-1.709924
N	-1.431985	-0.574176	-2.163031
H	-2.198441	-0.495018	-1.458653
H	-1.112475	-1.534338	-2.176561
F	-2.454311	0.0	0.0
