12
Coordinates from ORCA-job run
  C   -0.60031620320929     -0.03031846668639      0.43384749618928
  C   0.51431148136869      0.22895016410685     -0.55471331603404
  F   -0.39273011691966     -1.32552758594989      0.94247559062737
  H   0.49061457530998     -0.48277090966652     -1.37872574735629
  H   -0.52196514160863      0.64569380138299      1.28490550109058
  H   0.46449910523322      1.25453261946247     -0.91932905896641
  N   -1.85388410921598      0.12445162785311     -0.19897984557649
  H   -1.98617303822982     -0.56800365647523     -0.92510645214149
  H   -2.61196162349227      0.05249505285539      0.46558359066873
  N   1.83610106534441      0.06603936050034      0.11601030769305
  O   2.01460820352303      0.72852220112434      1.13476248731743
  O   2.64789580189632     -0.69506420850747     -0.40073055351174
