12
Coordinates from ORCA-job run
  C   -0.68355164854185      0.25591839879946      0.49363037073148
  C   0.76345383990724     -0.20157330101689      0.50898473118218
  F   -1.21807473640567     -0.19046557431129      1.72012702873648
  H   1.28833673745954      0.22694800142940      1.36153179044334
  H   -0.74663375944482      1.34384800817763      0.50833554980014
  H   0.83010197535985     -1.28841833699284      0.52029149943196
  N   -1.35565895353252     -0.24361544606169     -0.63617126732820
  H   -1.36922776678955     -1.25462056076041     -0.65960039664835
  H   -2.29522648041173      0.11774703817590     -0.71716145052429
  N   1.43434173259371      0.28371232435261     -0.72496755011762
  O   1.81916426706286     -0.55337774397945     -1.53566292461894
  O   1.53297479274292      1.50289719218757     -0.84133738108819
