12
Coordinates from ORCA-job run
  C   -0.79033491498331      0.54918282101633      0.00205729737987
  C   0.66405931575047      0.50987880381669      0.45247922268270
  F   -1.38795339511085      1.46955918444563      0.87648361722286
  H   1.12366615276872      1.49258194729477      0.37080557218354
  H   -0.87291946046254      0.98791029884696     -0.99431036634363
  H   0.72953818159743      0.12730626287977      1.46977775330076
  N   -1.41419350910177     -0.70588063358366      0.06089127690691
  H   -0.92150008704471     -1.43749200010269      0.54567657339411
  H   -1.85603655423045     -1.02021094875662     -0.78391348258311
  N   1.40614833856667     -0.41910249573846     -0.43434646127841
  O   1.66257684442734     -0.01187159228786     -1.56531927228910
  O   1.65694908782301     -1.54286164783086     -0.00028173057649
