12
Coordinates from ORCA-job run
  C   -0.59017157781776     -0.09381883799994      0.52704275263105
  C   0.46352255450484      0.07067187527588     -0.55187833823013
  F   -0.25398898020295     -1.26749136331056      1.20389227356533
  H   0.32671728304281      1.01456777136787     -1.08054071887242
  H   -0.51568249364588      0.71433356765656      1.25535514104030
  H   0.44911943278549     -0.77342798463594     -1.24077504003666
  N   -1.90114070948965     -0.17355738387769      0.00910549851600
  H   -1.98214078657701     -0.48729565082984     -0.94418123450710
  H   -2.49098113263724      0.61416927871707      0.21098802885742
  N   1.82640137227483      0.11021377366643      0.05214371751176
  O   2.01097511534834      0.96701688551371      0.91329108982138
  O   2.65736992241417     -0.69538193154354     -0.35444317029693
