12
Coordinates from ORCA-job run
  C   -0.70115677596956      0.37713559290000      0.37709118467181
  C   0.74724935594193     -0.03385197853121      0.56850022039786
  F   -1.27403041641882      0.29652093056885      1.66351979592759
  H   0.81950304188231     -1.06998946150735      0.89562120039281
  H   -0.77151335763002      1.42164261186918      0.07406994792560
  H   1.23972110680646      0.63054463025935      1.27700847228863
  N   -1.33198706429523     -0.43849581628102     -0.57938229399262
  H   -2.27064220282573     -0.13036124616742     -0.78916198965239
  H   -1.33942830158317     -1.41275948074342     -0.30788715721462
  N   1.45658290639251      0.08466889394902     -0.73165506890964
  O   1.55207158171876      1.21974151181306     -1.19230298781892
  O   1.87363012598055     -0.94479618812904     -1.25342132401611
