14

C	-0.582412	0.001563	-1.417215
C	0.0	0.0	0.0
Br	0.100009	-1.49394	-2.41994
H	1.093646	0.0	0.0
H	-0.327609	0.925852	0.48481
N	-2.020211	0.007881	-1.530251
H	-2.374912	-0.893052	-1.232311
H	-2.382322	0.72536	-0.909906
N	-0.148868	1.328341	-2.063816
O	0.561863	1.345257	-3.051234
O	-0.626402	2.30849	-1.493122
C	-0.542244	-1.129432	0.740108
N	-1.043452	-2.026947	1.308116
Cl	3.285144	0.0	0.0
