14

C	-0.284544	0.089501	-1.488702
C	0.0	0.0	0.0
Br	-2.193323	0.390901	-1.916523
H	1.097229	0.0	0.0
H	-0.383345	-0.926232	0.422618
N	0.508922	1.06813	-2.081008
H	1.463063	1.005301	-1.718461
H	0.500559	1.003577	-3.09009
N	-0.050402	-1.340315	-2.103362
O	0.433616	-1.363396	-3.228899
O	-0.391975	-2.315373	-1.447426
C	-0.502105	1.156161	0.722461
N	-0.898609	2.079345	1.329635
Cl	3.262875	0.0	0.0
