14

C	-0.596058	-0.286937	-1.36379
C	0.0	0.0	0.0
Br	0.304728	-1.925143	-2.072051
H	1.103824	0.0	0.0
H	-0.284621	-0.836227	0.649788
N	-2.001455	-0.371449	-1.346976
H	-2.363708	-0.583498	-2.267653
H	-2.311905	-1.057948	-0.672971
N	-0.261427	0.801614	-2.379917
O	0.562222	1.644562	-2.060737
O	-0.875449	0.740012	-3.442244
C	-0.544919	1.230618	0.565349
N	-1.003375	2.198826	1.045416
Cl	3.312207	0.0	0.0
