14

C	-0.624596	-0.038921	-1.402192
C	0.0	0.0	0.0
Br	0.059356	-1.604835	-2.322599
H	1.091547	0.0	0.0
H	-0.309044	-0.914637	0.517358
N	-2.049351	-0.05739	-1.492924
H	-2.404185	-0.845821	-0.973098
H	-2.425729	0.80576	-1.118282
N	-0.147034	1.216078	-2.14804
O	-0.974914	2.120965	-2.265356
O	1.019839	1.242332	-2.500221
C	-0.536898	1.148216	0.722562
N	-1.00361	2.078781	1.266616
Cl	3.333565	0.0	0.0
