14

C	-0.474959	0.025173	-1.443642
C	0.0	0.0	0.0
Br	0.186019	1.634273	-2.332088
H	1.091174	0.0	0.0
H	-0.347314	0.896113	0.513671
N	-0.100434	-1.105878	-2.168122
H	-0.516631	-1.127864	-3.090416
H	-0.285686	-1.962511	-1.657858
N	-2.037534	0.246069	-1.459763
O	-2.525726	0.969749	-0.601489
O	-2.656332	-0.316792	-2.358525
C	-0.534709	-1.18242	0.665536
N	-0.99237	-2.149169	1.149415
Cl	3.326889	0.0	0.0
