15

C	-0.274665	0.063857	-1.4814
C	0.0	0.0	0.0
F	-1.65515	0.188286	-1.764901
H	1.103028	0.0	0.0
H	0.03285	-0.905328	-1.882508
C	0.500594	1.190987	-2.122204
H	1.533286	1.082435	-1.775783
H	0.445698	1.144152	-3.21247
H	0.108012	2.156114	-1.792769
N	-0.49192	-1.237823	0.600826
H	0.09725	-1.455692	1.395433
H	-1.443973	-1.127033	0.926238
C	-0.479513	1.202554	0.683991
N	-0.870033	2.134556	1.287845
F	2.616471	0.0	0.0
