15

C	-0.32052	-0.117981	-1.493494
C	0.0	0.0	0.0
F	-0.198224	1.143105	-2.088509
H	1.096156	0.0	0.0
H	-1.363905	-0.428806	-1.661744
C	0.680925	-1.046297	-2.150849
H	0.633222	-0.940542	-3.238709
H	1.669587	-0.783616	-1.757333
H	0.466165	-2.08606	-1.895362
N	-0.37427	-1.207577	0.744981
H	0.429314	-1.821145	0.72973
H	-1.16288	-1.683594	0.320389
C	-0.620725	1.180584	0.587571
N	-1.145537	2.122577	1.055369
F	2.636653	0.0	0.0
