15

C	-0.521092	-0.045523	-1.428408
C	0.0	0.0	0.0
F	0.056338	-1.136495	-2.077835
H	1.097464	0.0	0.0
H	-0.174088	0.852267	-1.953898
C	-2.022522	-0.205667	-1.537033
H	-2.536983	0.657653	-1.106561
H	-2.311394	-1.107458	-0.994799
H	-2.321313	-0.309115	-2.583413
N	-0.400919	-1.204611	0.751801
H	-1.042008	-0.980316	1.501784
H	0.455394	-1.556779	1.164673
C	-0.470576	1.223281	0.634252
N	-0.870118	2.195967	1.164278
F	2.575005	0.0	0.0
