15

C	-0.326224	-0.124072	-1.49045
C	0.0	0.0	0.0
F	-0.172799	1.128938	-2.096294
H	1.097697	0.0	0.0
H	-1.379438	-0.406256	-1.653122
C	0.647508	-1.090089	-2.139417
H	1.64153	-0.853522	-1.74461
H	0.609825	-0.986066	-3.22481
H	0.393626	-2.123145	-1.880502
N	-0.370168	-1.204551	0.751863
H	0.436731	-1.815064	0.737727
H	-1.158703	-1.683296	0.331271
C	-0.62425	1.180321	0.582714
N	-1.156346	2.114051	1.057303
F	2.630809	0.0	0.0
