15

C	-0.228951	-0.014662	-1.494444
C	0.0	0.0	0.0
F	-1.606122	-0.096819	-1.81879
H	1.096446	0.0	0.0
H	0.22079	-0.943528	-1.861929
C	0.406972	1.174329	-2.16953
H	0.347874	1.09149	-3.257891
H	-0.084142	2.098919	-1.85671
H	1.449727	1.181001	-1.837608
N	-0.472643	-1.193607	0.701224
H	-1.267452	-1.589779	0.214391
H	0.288823	-1.860904	0.691426
C	-0.54995	1.205975	0.610248
N	-0.993422	2.181777	1.093434
F	2.607702	0.0	0.0
