16

C	0.0	0.0	0.0
C	-0.502062	0.157192	-1.442011
F	1.378173	0.0	0.0
H	-1.58595	0.330702	-1.36189
C	-0.339522	1.220815	0.792403
N	-0.53931	2.184188	1.433976
N	-0.491368	-1.212555	0.561083
H	-0.27565	-1.227023	1.552261
H	-1.514901	-1.17952	0.473207
C	-0.234668	-1.096961	-2.277464
H	-0.54096	-0.919505	-3.310455
H	0.826822	-1.352968	-2.258391
H	-0.808397	-1.930846	-1.876318
C	0.129507	1.325986	-2.053668
N	0.65178	2.232851	-2.587108
Br	-3.66934	0.0	0.0
