16

C	0.0	0.0	0.0
C	-0.500274	0.171304	-1.441025
F	1.378009	0.0	0.0
H	-1.588758	0.316815	-1.362386
C	-0.342969	1.208446	0.80981
N	-0.515356	2.145315	1.497598
N	-0.486334	-1.222057	0.546115
H	-1.510607	-1.185441	0.471737
H	-0.256621	-1.255133	1.534183
C	-0.193838	-1.060428	-2.296201
H	0.87542	-1.281589	-2.280807
H	-0.504424	-0.876928	-3.326915
H	-0.739468	-1.918805	-1.908248
C	0.10382	1.36618	-2.029555
N	0.602045	2.298388	-2.541847
Br	-3.662087	0.0	0.0
