16

C	0.0	0.0	0.0
C	-0.495316	0.156001	-1.44629
F	1.377888	0.0	0.0
H	-1.586675	0.286775	-1.377509
C	-0.34552	1.216053	0.796074
N	-0.55372	2.174914	1.442176
N	-0.489946	-1.217003	0.55241
H	-0.274138	-1.242101	1.543798
H	-1.513612	-1.181276	0.465667
C	-0.162716	-1.077235	-2.28979
H	0.911713	-1.273003	-2.275111
H	-0.480491	-0.912494	-3.321909
H	-0.686323	-1.944902	-1.89146
C	0.095279	1.355552	-2.039413
N	0.585503	2.29082	-2.554402
Br	-3.667617	0.0	0.0
