16

C	0.0	0.0	0.0
C	-0.457538	0.178836	-1.465312
F	1.39621	0.0	0.0
H	-1.536884	0.384857	-1.404201
C	-0.370897	1.205915	0.782186
N	-0.51464	2.193443	1.399487
N	-0.475479	-1.156118	0.676469
H	-0.305275	-1.975745	0.105983
H	-1.489511	-1.044625	0.784144
C	-0.231637	-1.085517	-2.297364
H	-0.425517	-0.878792	-3.351208
H	0.797333	-1.442629	-2.198089
H	-0.929944	-1.863274	-1.982839
C	0.222317	1.321637	-2.072827
N	0.75964	2.232911	-2.582808
Br	-3.612379	0.0	0.0
