13

C	0.0	0.0	0.0
C	-0.432991	0.379506	-1.440559
Br	2.04807	0.0	0.0
H	0.446649	0.488046	-2.079143
H	-0.162698	-1.072239	0.15386
H	-0.914746	1.357676	-1.363514
N	-0.587003	0.845567	0.969624
H	-0.458411	0.431835	1.888326
H	-1.609674	0.716159	0.715138
N	-1.376466	-0.538402	-2.058794
H	-2.17408	-0.531018	-1.3987
H	-0.96606	-1.46686	-2.063371
F	-2.890522	0.0	0.0
