13

C	0.0	0.0	0.0
C	-0.455088	0.442814	-1.410142
Br	2.023046	0.0	0.0
H	-1.052242	1.352768	-1.26454
H	-0.234806	-1.058198	0.104026
H	0.393632	0.688478	-2.056332
N	-0.5471	0.70809	1.107764
H	-0.450585	1.700272	0.918961
H	-1.563337	0.479026	0.961213
N	-1.240327	-0.642307	-1.995357
H	-1.532267	-0.351036	-2.922939
H	-2.076294	-0.635141	-1.384943
F	-2.851722	0.0	0.0
