13

C	0.0	0.0	0.0
C	-0.573605	0.165312	-1.369991
Br	2.041379	0.0	0.0
H	-0.336571	1.175653	-1.745641
H	-0.27513	-0.972965	0.396481
H	-1.673214	0.106687	-1.074927
N	-0.394758	1.038566	0.862627
H	0.084765	1.904617	0.673047
H	-0.335948	0.79248	1.836491
N	-0.168211	-0.923112	-2.256285
H	0.717295	-0.707209	-2.699586
H	-0.866387	-1.02464	-2.981266
F	-2.929746	0.0	0.0
