13

C	0.0	0.0	0.0
C	-0.47199	0.061846	-1.430422
Br	2.069536	0.0	0.0
H	-1.562702	-0.072246	-1.274262
H	-0.165128	-1.001169	0.392456
H	-0.034313	-0.77781	-1.991024
N	-0.505552	1.020505	0.822783
H	-1.257755	1.451705	0.289061
H	-0.998919	0.568453	1.579679
N	-0.211161	1.373233	-2.016777
H	-0.724354	1.45455	-2.884937
H	0.777629	1.461238	-2.220951
F	-2.848388	0.0	0.0
