13

C	0.0	0.0	0.0
C	-0.232855	0.124198	-1.546762
Br	1.958089	0.0	0.0
H	0.399	-0.619277	-2.045163
H	-0.276898	-1.002782	0.329368
H	0.165933	1.110422	-1.830706
N	-0.665011	0.946167	0.825086
H	-0.573574	1.865067	0.410697
H	-1.676908	0.639857	0.706204
N	-1.57487	-0.012048	-2.067381
H	-1.915417	-0.920166	-1.764804
H	-2.20418	0.560188	-1.498291
F	-3.056293	0.0	0.0
