16

C	-0.596962	-0.069204	-1.398588
C	-0.01089	-0.19456	-0.005022
Cl	-0.055554	-1.485577	-2.388676
H	1.066243	-0.393933	-0.063472
H	-1.679522	-0.159115	-1.328348
C	-0.175224	1.218759	-2.071273
H	0.909278	1.32862	-2.060581
H	-0.58725	2.053556	-1.503905
H	-0.548772	1.247345	-3.097736
N	-0.591964	-1.404564	0.680842
O	-1.750831	-1.736161	0.432392
O	0.124792	-1.959326	1.516611
N	-0.342231	0.976502	0.763485
H	-0.225169	0.731804	1.746321
H	0.537089	1.618911	0.593426
H	1.826158	2.186263	0.374876
