16

C	-0.658965	0.072346	-1.47699
C	0.101346	-0.092026	-0.162722
Cl	-0.65726	-1.464931	-2.434372
H	1.140409	-0.380708	-0.326939
H	-1.707882	0.263919	-1.242022
C	-0.060302	1.180317	-2.317245
H	0.970658	0.932594	-2.581038
H	-0.055739	2.09392	-1.724697
H	-0.632817	1.322532	-3.236551
N	-0.512589	-1.307603	0.546381
O	0.169266	-2.316813	0.698245
O	-1.679498	-1.182546	0.92768
N	0.04677	1.089315	0.597589
H	0.921322	1.094644	1.276929
H	-0.831977	1.145196	1.102245
H	2.110723	0.958579	1.971214
