16

C	-0.641881	-0.23073	-1.552758
C	0.163765	-0.05459	-0.257848
Cl	-0.002741	0.90059	-2.791153
H	1.245531	-0.131667	-0.445217
H	-0.457732	-1.22775	-1.956137
C	-2.120715	0.026726	-1.355128
H	-2.258745	1.051381	-1.008403
H	-2.522421	-0.65832	-0.602969
H	-2.670782	-0.113763	-2.288129
N	-0.145174	-1.376051	0.510852
O	-0.900049	-1.323574	1.480343
O	0.346405	-2.413317	0.065726
N	-0.089649	1.105794	0.469519
H	-0.891419	0.984473	1.07728
H	0.812068	1.257308	1.051978
H	2.180539	1.107607	1.573135
