16

C	-0.439543	-0.0163	-1.536671
C	0.114059	-0.027601	-0.115445
Cl	-2.247365	0.015678	-1.513074
H	1.202349	-0.126221	-0.138208
H	-0.151562	0.964192	-1.917188
C	0.026857	-1.116496	-2.469121
H	1.11901	-1.161208	-2.450557
H	-0.305107	-0.907762	-3.489034
H	-0.356846	-2.087748	-2.162441
N	-0.342122	-1.323889	0.568982
O	0.155602	-2.376944	0.166813
O	-1.182228	-1.250426	1.461933
N	-0.168795	1.13771	0.615935
H	-1.023419	1.033175	1.147882
H	0.678998	1.239692	1.237725
H	2.23147	0.860097	1.563836
