16

C	-0.164943	-0.128501	-1.416775
C	0.064897	-0.17165	0.09513
Cl	-1.856683	0.36885	-1.803446
H	1.118112	-0.439688	0.205107
H	0.490742	0.703693	-1.707072
C	0.17437	-1.394501	-2.172474
H	0.102123	-1.216915	-3.247684
H	-0.488218	-2.219219	-1.905606
H	1.201409	-1.681733	-1.93372
N	-0.720341	-1.305992	0.696774
O	-0.226317	-2.435926	0.619459
O	-1.820081	-1.058535	1.18408
N	-0.150689	1.04028	0.805383
H	0.65737	1.614125	0.483408
H	-1.005783	1.476248	0.479308
H	2.074669	1.758212	-0.628377
