16

C	-0.374611	-0.041526	-1.511366
C	0.0	0.0	0.0
Cl	0.010121	1.539821	-2.2675
H	1.096302	0.0	0.0
C	0.437657	-1.123735	-2.214196
H	1.496203	-0.933991	-2.018729
H	0.166544	-2.10495	-1.818347
H	0.239349	-1.109739	-3.286914
C	-1.812925	-0.274276	-1.666848
N	-2.959235	-0.524125	-1.746462
N	-0.406728	-1.182298	0.734753
H	-1.328374	-1.514691	0.480177
H	0.286476	-1.909104	0.628103
C	-0.557163	1.192866	0.644066
N	-1.041853	2.118647	1.179999
Cl	3.296094	0.0	0.0
