16

C	-0.439058	-0.0657	-1.480627
C	0.0	0.0	0.0
Cl	-0.10546	1.512453	-2.270011
H	1.095008	0.0	0.0
C	0.348863	-1.153745	-2.196193
H	0.078541	-1.185386	-3.253154
H	0.127742	-2.111481	-1.724211
H	1.41233	-0.933314	-2.079972
C	-1.882617	-0.305114	-1.559762
N	-3.036886	-0.522814	-1.600211
N	-0.41244	-1.237663	0.654694
H	0.300681	-1.500047	1.324195
H	-1.297353	-1.128144	1.134254
C	-0.518952	1.195074	0.674653
N	-0.964238	2.090953	1.291835
Cl	3.287248	0.0	0.0
