16

C	-0.339199	0.006784	-1.510922
C	0.0	0.0	0.0
Cl	-2.13651	0.142929	-1.74356
H	1.097689	0.0	0.0
C	0.360865	1.148554	-2.228883
H	0.164606	1.107782	-3.301514
H	1.433918	1.058943	-2.033366
H	0.000868	2.099848	-1.833373
C	0.041852	-1.288358	-2.077924
N	0.319353	-2.328624	-2.548194
N	-0.465499	-1.137979	0.758699
H	0.18094	-1.905484	0.628336
H	-1.396314	-1.417584	0.474709
C	-0.475621	1.250479	0.600347
N	-0.874098	2.250485	1.070067
Cl	3.26362	0.0	0.0
