16

C	-0.404744	0.092158	-1.476196
C	0.0	0.0	0.0
Cl	-2.20989	0.246343	-1.607005
H	1.102839	0.0	0.0
C	0.261261	1.280799	-2.152033
H	-0.076946	2.206226	-1.682006
H	1.342292	1.182127	-2.016697
H	0.012735	1.305904	-3.214148
C	-0.049794	-1.15422	-2.159158
N	0.219685	-2.094431	-2.81085
N	-0.458889	-1.233813	0.607622
H	0.232993	-1.544389	1.277332
H	-1.34914	-1.116694	1.070999
C	-0.43757	1.209708	0.710905
N	-0.803288	2.160321	1.297291
Cl	3.25277	0.0	0.0
