16

C	-0.541252	-0.0148	-1.450528
C	0.0	0.0	0.0
Cl	0.235305	-1.369682	-2.323966
H	1.094138	0.0	0.0
C	-2.051403	-0.219957	-1.485142
H	-2.551275	0.607411	-0.973665
H	-2.277365	-1.160621	-0.982365
H	-2.403631	-0.266527	-2.516682
C	-0.197323	1.228525	-2.144183
N	-0.008113	2.237156	-2.716382
N	-0.422796	-1.208848	0.702357
H	-1.151284	-1.014332	1.377251
H	0.383806	-1.584117	1.188006
C	-0.481247	1.215191	0.666617
N	-0.924657	2.137974	1.245136
Cl	3.268143	0.0	0.0
