16

C	-0.442474	-0.078702	-1.477946
C	0.0	0.0	0.0
Cl	-0.114209	1.493028	-2.28196
H	1.095008	0.0	0.0
C	0.344945	-1.172209	-2.186422
H	0.070632	-1.21446	-3.242104
H	1.408356	-0.948848	-2.07666
H	0.12807	-2.125416	-1.704924
C	-1.886076	-0.321746	-1.551768
N	-3.039607	-0.544846	-1.585194
N	-0.409519	-1.233125	0.666811
H	0.308562	-1.489579	1.333219
H	-1.290292	-1.118723	1.152432
C	-0.518189	1.200059	0.666329
N	-0.96367	2.10299	1.273025
Cl	3.286555	0.0	0.0
