16

C	-0.447234	-0.053941	-1.476022
C	0.0	0.0	0.0
Cl	0.067463	1.461931	-2.291076
H	1.095322	0.0	0.0
C	0.208481	-1.23982	-2.169164
H	1.290239	-1.149845	-2.043544
H	-0.049592	-1.246721	-3.229613
H	-0.137875	-2.157788	-1.694059
C	-1.909329	-0.124526	-1.557862
N	-3.081521	-0.184064	-1.624875
N	-0.437702	-1.220928	0.67166
H	0.303577	-1.528148	1.290302
H	-1.278222	-1.06534	1.213314
C	-0.492513	1.211297	0.665485
N	-0.900571	2.136176	1.265349
Cl	3.289763	0.0	0.0
