16

C	-0.539836	-0.023148	-1.452118
C	0.0	0.0	0.0
Cl	0.214454	-1.406799	-2.302905
H	1.094142	0.0	0.0
C	-2.053125	-0.199023	-1.487757
H	-2.298087	-1.120514	-0.959334
H	-2.53736	0.651428	-0.999614
H	-2.402061	-0.264449	-2.519356
C	-0.169979	1.202786	-2.163063
N	0.026847	2.199523	-2.753438
N	-0.431239	-1.204077	0.711588
H	-1.074267	-0.982748	1.459276
H	0.394428	-1.633662	1.111457
C	-0.48388	1.216733	0.657263
N	-0.931908	2.146755	1.220217
Cl	3.254617	0.0	0.0
