16

C	-0.440035	-0.088222	-1.479044
C	0.0	0.0	0.0
Cl	-0.114193	1.480305	-2.290729
H	1.094945	0.0	0.0
C	0.352203	-1.183123	-2.17923
H	1.414611	-0.956152	-2.06785
H	0.13682	-2.134484	-1.69254
H	0.080454	-1.232284	-3.23531
C	-1.882578	-0.335301	-1.553594
N	-3.035497	-0.560756	-1.588144
N	-0.410875	-1.228701	0.672988
H	0.302164	-1.478235	1.34808
H	-1.297328	-1.113818	1.149387
C	-0.519496	1.204455	0.657247
N	-0.964287	2.110097	1.260352
Cl	3.287452	0.0	0.0
