14
Coordinates from ORCA-job run
  C   0.89033948638587      0.09490016638124      0.33572126214421
  C   -0.59193659816776     -0.05106295388681      0.04918955243696
  F   1.02693064816711      0.08401403268017      1.72961647856583
  H   -0.98471256730252     -0.93199222185945      0.57177602020913
  H   1.23895667773112      1.06593963104833     -0.01363285169717
  N   1.61235464281438     -0.94500829611732     -0.30054436235191
  H   1.39833482559146     -1.84215147662483      0.11840845870392
  H   2.60930772893786     -0.78712366533398     -0.24583829818957
  N   -0.84387142899094      0.01954232877122     -1.35668042085206
  H   -0.08612870968571     -0.42982369654593     -1.85387835850270
  H   -1.72206517302873     -0.41812938468575     -1.59851411049169
  N   -1.32358198675079      1.10118674791270      0.70706976084289
  O   -2.40506841833413      0.82480663094576      1.22264115711335
  O   -0.82185912736722      2.21590215731466      0.63366571206881
