14
Coordinates from ORCA-job run
  C   0.72464311850324     -0.34456537821980      0.73086715691047
  C   -0.68335579107074     -0.20913245829300      0.15280070844827
  F   0.83273461423540     -1.66389294438480      1.19816185203442
  H   -1.38081420524093     -0.74131767124475      0.80014133906437
  H   0.84309346032340      0.30027690974307      1.60084472547946
  N   1.68624923567707     -0.02988584294123     -0.25385646400646
  H   1.68522226710496     -0.74535909904719     -0.97090155891100
  H   2.61265347828667      0.04242446209782      0.14347158953452
  N   -0.75505518239201     -0.67306731247745     -1.18182835228691
  H   -0.33339331060877      0.00542591195960     -1.80385174289513
  H   -1.71157607285930     -0.82029252157425     -1.47174074519715
  N   -1.07821712485077      1.27042614622917      0.30806996506959
  O   -1.15728407323165      1.68788032561018      1.45959913235394
  O   -1.28390041387658      1.92107947254263     -0.71077760559839
