14
Coordinates from ORCA-job run
  C   0.42970114349896     -0.61003098714304      0.71228187961750
  C   -0.77951882109463     -0.03121680712643     -0.02677684015019
  F   0.23324518034224     -1.98013693984546      0.78438720329638
  H   -1.68850376435667     -0.36821197902218      0.47113657123793
  H   0.44092883077448     -0.25516949522124      1.75167806101328
  N   1.62421299240359     -0.37810474285485     -0.03748551958742
  H   1.71117678789355      0.60167205892479     -0.27978905952064
  H   2.43939228810672     -0.67525445610237      0.48187241426034
  N   -0.77450587627454     -0.28362419322030     -1.41808712034479
  H   -1.54240893776278     -0.86653615320457     -1.70770113169255
  H   0.11187437203405     -0.65949190394320     -1.72456476672250
  N   -0.75155419859557      1.47124765744581      0.25079627427368
  O   0.05798190590564      2.14565352024586     -0.38013020842658
  O   -1.51102190287504      1.88820442106717      1.12238224274556
