14
Coordinates from ORCA-job run
  C   0.90915414680551      0.09132321621889      0.46453707338701
  C   -0.54647069374610     -0.16045477019487      0.09924826485118
  F   0.94252434310498      0.44091600542849      1.80646579179296
  H   -0.93927014749022     -0.95506507415931      0.73311376268506
  H   1.28113231563284      0.97520713364720     -0.07141588347745
  N   1.64256071302778     -1.10909716908038      0.26069996061336
  H   2.63492650157235     -0.93323899630163      0.19043405111461
  H   1.31546122248367     -1.57629164882389     -0.57453355476948
  N   -0.67052783808734     -0.48243468040243     -1.28355243377626
  H   -0.44683914839272      0.32614507399244     -1.85220807441295
  H   -1.60455094365260     -0.79683681031685     -1.51125761601602
  N   -1.31935756230360      1.08640832256482      0.49180605209548
  O   -2.08944707876446      1.01156142932949      1.44286927396313
  O   -1.10829583019009      2.08385796809803     -0.19720666805063
