14
Coordinates from ORCA-job run
  C   0.72712528731788     -0.48911881751781      0.76947689524157
  C   -0.67469149613863     -0.23883412451873      0.17660631094214
  F   0.72777938708781     -1.82729317544831      1.12102434621174
  H   -1.42060862057632     -0.70438250314353      0.82042894721505
  H   0.85069675107134      0.09958424970296      1.68194581192050
  N   1.81536774873337     -0.24594996520760     -0.10486407690782
  H   2.08408697931400      0.72506963403300     -0.15166690503308
  H   1.65424091329234     -0.63731857971848     -1.02257727396475
  N   -0.77245797711962     -0.69662529211840     -1.16291230524866
  H   -0.40402716017567      0.00154240092806     -1.79660112062102
  H   -1.73217579240542     -0.88219279064426     -1.41833299184151
  N   -0.91412342384374      1.26294138111176      0.32022847184907
  O   -0.74998331701491      1.96376722541614     -0.67735432524957
  O   -1.19022927954243      1.66781035712520      1.44559821548635
