14
Coordinates from ORCA-job run
  C   0.74324258794137     -0.58227365299942      0.06571739659252
  C   -0.69586349939219     -0.06161346935691      0.15007269579529
  F   1.18277562925672     -0.28142757524083     -1.24696507221195
  H   -1.04307822487805     -0.14252449583272      1.18012430323691
  H   0.70975784216390     -1.67399463713914      0.11054099677048
  N   1.58633015965592     -0.09313040703019      1.07630326546869
  H   1.59795726509922      0.91673749585898      1.12009174129553
  H   2.52433443491245     -0.45820434939133      0.98951698583866
  N   -1.62578121906923     -0.66251319963170     -0.74799175031915
  H   -1.95220232928555     -1.54882182953437     -0.39072929343613
  H   -1.22164901557060     -0.77888956300426     -1.66735254039714
  N   -0.63647015299052      1.42534031813503     -0.14415713209767
  O   -0.21905937047204      2.13952425096238      0.76950768110546
  O   -0.94929410737139      1.80179111420448     -1.26367927764152
