14
Coordinates from ORCA-job run
  C   0.90311828752220     -0.00470607844764      0.39245330436858
  C   -0.60300869556688      0.01786704118529      0.13448120533881
  F   1.06793613757778      0.35838108868906      1.72910465346133
  H   -1.09463339273060     -0.71540800690799      0.77683484666937
  H   1.38829383635454      0.76719933509119     -0.21043355537745
  N   1.49232945982441     -1.26130159906611      0.14397262715238
  H   2.07238088640387     -1.32238186803743     -0.67318018487279
  H   0.90009008589684     -2.06558174694801      0.27226125843357
  N   -1.01194613678650     -0.15588047465125     -1.22997331848505
  H   -0.46672621930939      0.43311580503293     -1.84672888721270
  H   -0.92595620691486     -1.12078559292358     -1.51440524842101
  N   -1.11974339260995      1.35594166352760      0.57663550645898
  O   -0.70707238067232      2.31409472145653     -0.07434540966452
  O   -1.89406226898915      1.39944571199943      1.52432320215050
