14
Coordinates from ORCA-job run
  C   0.80973481879876     -0.62421403816859      0.03346489321189
  C   -0.60243908923683     -0.11871167378956      0.31323667031611
  F   0.98772064032995     -0.46107655208609     -1.36812121557778
  H   -0.75156478842954     -0.01096537700377      1.38838242905981
  H   0.81474670251751     -1.70226898384405      0.19826493751523
  N   1.80590834925676     -0.01209108265843      0.80781387202628
  H   2.71732016096590     -0.40010739218182      0.61031266846414
  H   1.81028914558016      0.99292959154735      0.70295880032684
  N   -1.55655058544397     -0.98585719195661     -0.26615775307968
  H   -1.40556844101732     -1.05065464988046     -1.26484165830114
  H   -2.50072547439466     -0.66420735545421     -0.10365692518944
  N   -0.69029951750837      1.32725824891323     -0.22570099164725
  O   -1.46241823867150      1.54619225940990     -1.15015984973631
  O   0.02384631725314      2.16377419715310      0.32420412261131
