14
Coordinates from ORCA-job run
  C   0.92292878910956      0.11577509489041      0.43137132972548
  C   -0.54199622386095     -0.15812654976924      0.12331331150542
  F   0.99588092270697      0.52460532762319      1.75484680402168
  H   -0.90898128113770     -0.92616321015989      0.80369093241016
  H   1.27332171144537      0.97632303122748     -0.15468377710321
  N   1.65598443910981     -1.09018611786247      0.25881530180975
  H   1.30836222574426     -1.59142333058447     -0.54804802771731
  H   2.64503418265712     -0.91277120119885      0.15316549501905
  N   -0.70727000722590     -0.54142441683464     -1.23948618851755
  H   -0.50832680723062      0.24293905724030     -1.84973856093330
  H   -1.64547903111890     -0.87177864212102     -1.42311214630528
  N   -1.31022636591910      1.10102886795214      0.48453739150856
  O   -2.05354097836080      1.06334607302200      1.45886547736820
  O   -1.12469157591913      2.06885601657506     -0.25253734279165
