14
Coordinates from ORCA-job run
  C   0.92147562270334      0.12301877826926      0.21288576792351
  C   -0.58735048570180     -0.00391748094937      0.11534221715957
  F   1.20549861657973      0.45512850372894      1.54358374296940
  H   -0.94991535000895     -0.70291467932428      0.87901107066983
  H   1.26062631637868      0.95349620095729     -0.40520269782432
  N   1.53897292539580     -1.08259990017677     -0.20219970896470
  H   2.54012340590326     -0.97251413865554     -0.28792020936138
  H   1.34478217979815     -1.83169737640799      0.45148099406185
  N   -0.98344965496267     -0.27019724296856     -1.23218616524731
  H   -0.29503023860265     -0.86946740913963     -1.66850911826668
  H   -1.89422652834799     -0.70617794418168     -1.27285364558176
  N   -1.20192752743863      1.31727024911611      0.53044564180121
  O   -2.20622227040190      1.24595992404042      1.23635213728789
  O   -0.69235701129437      2.34461251569182      0.10076997337288
