14
Coordinates from ORCA-job run
  C   0.83141476461075     -0.59774596045523      0.23371201330184
  C   -0.61492310235039     -0.10265506345535      0.16005594741508
  F   1.19027548464001     -0.83770898197207     -1.11214142298715
  H   -0.96658696778101      0.15186611251104      1.16102820580333
  H   0.81213094130365     -1.58167287803516      0.70647483126964
  N   1.74192825463237      0.25675941970552      0.86012816549866
  H   1.46659080476458      1.21705721773945      0.97319327683454
  H   2.25744133539672     -0.12956656045713      1.62854549272682
  N   -1.43662514725493     -1.07158682396586     -0.45626689295048
  H   -2.39648036313138     -0.76376321321086     -0.52882948911573
  H   -1.08584489644411     -1.28698428080440     -1.38007971612998
  N   -0.60457133455529      1.25125980402067     -0.57694375379392
  O   -0.18696972335057      2.21846052215052      0.06187245922466
  O   -1.00678005048040      1.27828068622886     -1.73274911709731
