14
Coordinates from ORCA-job run
  C   0.74610385569017     -0.62151889342963      0.11032869020566
  C   -0.66391094444245     -0.01451052162270      0.09809522603342
  F   1.11959840327707     -0.73710156196564     -1.24666559404407
  H   -1.03423905940582      0.04221819013540      1.12192495505751
  H   0.65680822075998     -1.65509686902043      0.46008477439942
  N   1.68353894118094      0.10099379090548      0.84854846851527
  H   1.43323968892399      1.02171539156161      1.16416335020678
  H   2.29013274003672     -0.41478874401153      1.45722667415182
  N   -1.61325883514959     -0.65903565278416     -0.74896075379514
  H   -1.18134319329328     -0.93445335956178     -1.62062023918456
  H   -2.01718446861303     -1.46314334769044     -0.29040160630898
  N   -0.52461724526307      1.42522256949632     -0.34764118519925
  O   -0.65745209064660      1.66756741410474     -1.53791667096448
  O   -0.23741601305504      2.24193159388276      0.53183391092660
