14
Coordinates from ORCA-job run
  C   0.68796671163847     -0.39878898901214      0.73819558414744
  C   -0.69431935525282     -0.19402095776514      0.11974090902909
  F   0.74040132462552     -1.73994832743347      1.14897795188598
  H   -1.42920555756229     -0.73357133449076      0.71767421454259
  H   0.79543296957652      0.20338791244125      1.63961540038376
  N   1.69239756630871     -0.07146751198305     -0.19869883218430
  H   2.60595806464116     -0.04586550879600      0.23265088485597
  H   1.69506105639496     -0.75481724899359     -0.94642553979813
  N   -0.73233633630930     -0.59490183492815     -1.23648056299760
  H   -0.26805469041845      0.09658278862365     -1.81204186672555
  H   -1.68171780898615     -0.69925523029136     -1.56562941634599
  N   -1.05143492018578      1.28816484488028      0.32972214003312
  O   -1.15948643518019      1.65518005008444      1.49602769846960
  O   -1.20166258929036      1.99032134766406     -0.66432856529598
