14
Coordinates from ORCA-job run
  C   0.76607827013008     -0.52455789026668      0.63568708110350
  C   -0.65523282568292     -0.10890416888046      0.25441721470691
  F   0.66588235206180     -1.92670681498587      0.77209719579320
  H   -1.35345378317904     -0.39477777955508      1.05236165542304
  H   1.03401469336685     -0.13970538942195      1.61748830945165
  N   1.71408507379256     -0.17611126907087     -0.33408336478747
  H   2.40231167691959      0.49481211344894     -0.04297778095897
  H   1.32410737345747     -0.00171998308548     -1.24780982464131
  N   -0.94522358398658     -0.60694459936095     -1.05838599104273
  H   -1.85627257345148     -0.30639540236277     -1.37622464390415
  H   -0.90753748362524     -1.61824180819676     -1.03223503906817
  N   -0.70877096058742      1.39756367455813      0.24215530023173
  O   -1.21583040299265      1.95528778230254     -0.72477020353768
  O   -0.26415782622303      1.95540153487726      1.24228009123044
