14
Coordinates from ORCA-job run
  C   0.91858334436083      0.02242982415913      0.25118542052715
  C   -0.59015878868566      0.04901530940606      0.09262809981283
  F   1.17902282026392      0.27186886268619      1.60450797073714
  H   -1.05086454810729     -0.64068784404618      0.81037642663971
  H   1.36107620332087      0.84005170227746     -0.31678571298906
  N   1.43308728045391     -1.22010125620862     -0.19389435238999
  H   2.44308369236887     -1.20700917420865     -0.23310462729322
  H   1.13743641782888     -1.97308544332233      0.41581653924103
  N   -0.95555358627786     -0.12169158349761     -1.27847775168113
  H   -0.30695851598961     -0.76009759921300     -1.72000972122739
  H   -1.89921197881446     -0.47085257812926     -1.37137185260510
  N   -1.08775291645314      1.40714587129989      0.54511721767563
  O   -2.11247131664562      1.40765507688166      1.22477371887445
  O   -0.47031810762365      2.39535883191524      0.16823862467796
