14
Coordinates from ORCA-job run
  C   0.85272359914813     -0.62215247167276      0.16859540399466
  C   -0.55315182573317     -0.00654502105780      0.02119305856694
  F   1.40445786935419     -0.59391916594740     -1.10212612140895
  H   -0.91095298129512      0.31613670257492      1.00896612072226
  H   0.70451224465663     -1.67294922021696      0.43494109317695
  N   1.75173945296812     -0.02650781318166      1.08900486692716
  H   1.66529058118496      0.97834845701371      1.11760334875101
  H   1.68762727287623     -0.42995949136464      2.01028651259856
  N   -1.41920203320244     -0.90239291209693     -0.69630973607600
  H   -2.09402462345993     -0.38738803257900     -1.24527059861059
  H   -1.90145852423790     -1.51334678123025     -0.05152763273513
  N   -0.42832791649001      1.29110697142478     -0.74290206212676
  O   -1.09906916660592      1.44992969371738     -1.75446283428166
  O   0.33883605083622      2.11863908461661     -0.25799141949845
