14
Coordinates from ORCA-job run
  C   0.92720716063174      0.05912979910630      0.32679610061927
  C   -0.59231463346575      0.00257583016415      0.17496804217483
  F   1.16550695947620      0.51727888080473      1.62262022751657
  H   -1.00504422244298     -0.70596564110109      0.89581101083197
  H   1.33477939316932      0.80859875054264     -0.35647673529251
  N   1.55403146472645     -1.18621965336613      0.11770036856685
  H   1.00753181095460     -2.00391320514099      0.33371547524680
  H   2.08473102678785     -1.27638621316701     -0.72970097938332
  N   -1.08449794159665     -0.27788426939828     -1.14307431690570
  H   -0.98612480540219     -1.25703216807015     -1.36815791163532
  H   -0.60436778233271      0.28347221356881     -1.83496342198467
  N   -1.13843310122021      1.34469419472111      0.56734744316436
  O   -1.85048161443131      1.41827639454931      1.56090065268488
  O   -0.81252371485437      2.27437508678659     -0.16848595560400
