14
Coordinates from ORCA-job run
  C   0.62162036751615     -0.42693766118194      0.69738184143525
  C   -0.78542821461311     -0.09999021980374      0.18868584548652
  F   0.64405457129430     -1.83969717946650      0.77855598755708
  H   -1.50431149548301     -0.49437434064277      0.90849988434191
  H   0.75655173012049     -0.05697637949685      1.71410741832045
  N   1.61697636723055      0.09673344857091     -0.14598360745227
  H   2.54289085252101     -0.01730853671879      0.24110585979903
  H   1.58366853345463     -0.31727265718114     -1.06748863833092
  N   -1.11968975276051     -0.54663254930876     -1.13026162019367
  H   -0.96342394080674     -1.54282969229924     -1.20636022689736
  H   -0.60054878479020     -0.04229236641945     -1.83602900460875
  N   -0.91561176652361      1.39445065358968      0.25846237962562
  O   -0.89248702882481      2.02706107778890     -0.78998062643594
  O   -0.98326143833515      1.86706640256968      1.39030450735306
