14
Coordinates from ORCA-job run
  C   0.59887853557927     -0.59397567797046      0.42911268669209
  C   -0.70984936091932      0.08484762453466      0.00912260045825
  F   1.28470400572143     -0.88216424612937     -0.77633748129687
  H   -1.21944854571419      0.45484572612879      0.89880903980573
  H   0.35099306017444     -1.56985464521573      0.85483909848145
  N   1.35349849805077      0.14729114859032      1.35241232986936
  H   2.20708080548416     -0.32969659540519      1.60654231462779
  H   1.54964054541622      1.08575488305823      1.03180422332456
  N   -1.58979071897661     -0.70415632136822     -0.78888734658996
  H   -2.12090628465560     -1.34308758007388     -0.21466300040226
  H   -1.07950891537424     -1.21011728235717     -1.50018310963572
  N   -0.32301054791236      1.31931116010536     -0.78169906042951
  O   -0.38116774098154      1.26136805330020     -2.00084714986821
  O   0.07988666410755      2.27863375280247     -0.12102514503671
