14
Coordinates from ORCA-job run
  C   0.69881158117430     -0.51860317739640      0.77634884395031
  C   -0.68352103266898     -0.22950641507935      0.15559069136320
  F   0.66840649033137     -1.86347376138153      1.09680395843933
  H   -1.45260806297723     -0.69470814137880      0.77184436724847
  H   0.80998323131645      0.04830655707886      1.70414360807790
  N   1.81364515922838     -0.27633562151779     -0.06534691403260
  H   2.08849809570411      0.69382640822140     -0.09612382791175
  H   1.67232622754420     -0.65609485967318     -0.99130945587361
  N   -0.75773590665180     -0.65800160547625     -1.19455561818318
  H   -0.35140680344360      0.04019708989423     -1.80446055482016
  H   -1.71483447564500     -0.81050204491964     -1.47991953713500
  N   -0.89844030927023      1.27341920646214      0.32597897178871
  O   -0.69839814952859      1.99184328540002     -0.65237222468136
  O   -1.19272604511338      1.65963307976628      1.45337769176974
