14
Coordinates from ORCA-job run
  C   0.59799067642030     -0.56139590980681      0.70321580074759
  C   -0.78052586535418     -0.13058942543198      0.17193605914009
  F   0.50706478815764     -1.96387852046124      0.72521886968034
  H   -1.53813620245753     -0.43781396789220      0.89378222361367
  H   0.71547107434307     -0.24572716748304      1.74183508159135
  N   1.69117709981384     -0.13948435568494     -0.07148227103074
  H   2.32239682279768      0.49176428128993      0.38940118904160
  H   1.48227201141325      0.14964411297136     -1.01297458982412
  N   -1.14117949340199     -0.59295013380606     -1.13590768006682
  H   -0.56337726174204     -0.17873031164971     -1.85469008758450
  H   -1.05388699311748     -1.60071467289766     -1.16309612430813
  N   -0.77540087689271      1.36593075346501      0.18996007779661
  O   -0.54164256529388      1.94777434609755     -0.86643981521660
  O   -0.92122321468597      1.89617097128979      1.28824126641966
