14
Coordinates from ORCA-job run
  C   0.75143334594686     -0.59401796488777      0.19840230626036
  C   -0.66563815994039     -0.01734249322468      0.07529587944757
  F   1.17584851377628     -0.84609643105736     -1.12363318379220
  H   -1.07481276160970      0.13351214654992      1.07450904623395
  H   0.66401695395605     -1.58596749473611      0.65364939706202
  N   1.65176255239718      0.22165474670274      0.88591522619247
  H   1.36730854370716      1.16044563473411      1.10515765615652
  H   2.24259159174634     -0.21763376400471      1.56623007624176
  N   -1.57261490528041     -0.76103423105855     -0.73615576993924
  H   -1.10319761041635     -1.11861892344360     -1.55700685810076
  H   -1.98798709326172     -1.51822346861366     -0.21285896602528
  N   -0.53243718504331      1.37322575977976     -0.50674733486085
  O   -0.61531669555464      1.49178039213802     -1.72009128093531
  O   -0.30095709042335      2.28031609112190      0.29733380605898
