14
Coordinates from ORCA-job run
  C   0.61627789963719     -0.55345079105512      0.69294497228437
  C   -0.77556686550659     -0.13562651519752      0.18722355012795
  F   0.53726307024559     -1.95668367008471      0.72226809266498
  H   -1.51635310174957     -0.44500884394346      0.92530603701966
  H   0.75107247515948     -0.23393860974666      1.72833632017239
  N   1.68880410462513     -0.12465633964930     -0.10639398169960
  H   1.45515959528076      0.18082153284834     -1.03679268347427
  H   2.33692501696098      0.49562497597336      0.34575076021522
  N   -1.15962618247433     -0.60762937230120     -1.11035935245531
  H   -0.59368590898128     -0.20132011394394     -1.84288354921214
  H   -1.07454345909475     -1.61567986768260     -1.13089300608235
  N   -0.78214485004714      1.36089823164819      0.19732811576423
  O   -0.91337534186473      1.89602029188898      1.29513846256352
  O   -0.57020645219075      1.93862909124565     -0.86597373788864
