9
Coordinates from ORCA-job run
  C   -0.37357840464192      0.07516522496467     -0.35071794772610
  C   0.70549372984010      0.03193588079184      0.46556857494834
  H   -0.26208991779660      0.44937595999434     -1.36509399076514
  H   0.63005131510173     -0.32766039415529      1.48751631209159
  N   -1.65866103941672     -0.24609472938536      0.00317619289461
  H   -2.27675460920518     -0.51141937710810     -0.74408322002047
  H   -1.77683873375059     -0.78819956259896      0.84419065958726
  C   1.97801811784579      0.47739122792066      0.01405737338374
  N   3.03535954202338      0.83950576957619     -0.35361395439383
