9
Coordinates from ORCA-job run
  C   -0.43473164907040      0.21637441858495     -0.18055391755111
  C   0.80128118036331     -0.21139591834179      0.16875990127614
  H   -0.56705515684942      1.23372719369485     -0.53950964995727
  H   0.97249160847783     -1.22350630536090      0.52334797964704
  N   -1.57080439907928     -0.55104913222622     -0.20269903746853
  H   -1.54451528057844     -1.41724949393895      0.31113352079898
  H   -2.44547233712899     -0.06035936950838     -0.13180484387802
  C   1.92624865508880      0.65199019076042      0.06531501674987
  N   2.86155737877659      1.36146841633602     -0.01298896961711
