9
Coordinates from ORCA-job run
  C   -0.33183502288860     -0.53410652136108     -0.51270508499625
  C   0.98129367352205     -0.36308158578117     -0.21777088878970
  H   -0.62072010041557     -1.33277562242316     -1.18976214647236
  H   1.73134055214212     -1.00791450653308     -0.65476392179098
  N   -1.35822269242477      0.26599355605061     -0.09537518666959
  H   -1.16492833873940      0.89916658420906      0.66619853690615
  H   -2.27946964961031     -0.13518504620517     -0.08697817589173
  C   1.38573320278993      0.66995792508477      0.67127616022368
  N   1.65580837562454      1.53794521695922      1.41988070748078
