9
Coordinates from ORCA-job run
  C   -0.36681304270653     -0.63059448679371     -0.35486783799562
  C   0.96055424786180     -0.44792921904265     -0.14141296738188
  H   -0.69842936566218     -1.51495988786313     -0.89118584956138
  H   1.67890847458686     -1.17531664906205     -0.49384107400566
  N   -1.37151269433532      0.16723827929206      0.11584954257008
  H   -1.11021999672058      1.07965202162876      0.45851615057179
  H   -2.25116663298486      0.13374466593775     -0.36862430947929
  C   1.42036243819554      0.70522500674720      0.55127753616234
  N   1.73731657176527      1.68394026915577      1.12428880911963
