9
Coordinates from ORCA-job run
  C   -0.34458336986670     -0.69745190039028     -0.23513193688480
  C   0.96755671624901     -0.43323140863758     -0.01709896971548
  H   -0.64320052097579     -1.70741441526472     -0.50038530774952
  H   1.70941090483301     -1.21293237004300     -0.12291283642964
  N   -1.35951039515251      0.21769233839463     -0.22467254629238
  H   -1.16035319718285      1.11943383976736      0.18192574507605
  H   -2.28857021773592     -0.12614067368998     -0.05698169034204
  C   1.38937497944278      0.87456766998133      0.34621936529253
  N   1.72987510038896      1.96547691988224      0.62903817704527
