9
Coordinates from ORCA-job run
  C   -0.43348735730815      0.19500856979386     -0.20655428745009
  C   0.79945035562552     -0.19585548013693      0.19294741138972
  H   -0.55685706499954      1.15804562501279     -0.69505387875501
  H   0.96279098080116     -1.15484413227969      0.67577196643321
  N   -1.57756215476651     -0.55648224138568     -0.12527283082505
  H   -1.55718731336983     -1.34917357612864      0.49628083958635
  H   -2.44609712053781     -0.05008338263486     -0.11253872360028
  C   1.93246718976209      0.63490262040056     -0.02644818394737
  N   2.87448248479307      1.31848199735860     -0.19913231283147
