9
Coordinates from ORCA-job run
  C   -0.35757868292160     -0.58530145325839     -0.43301947139901
  C   0.96302299627724     -0.43485531761854     -0.16055875486657
  H   -0.68474585071732     -1.45743310408777     -0.99159149711519
  H   1.68122272407795     -1.16817688625359     -0.50095538286432
  N   -1.34488746539783      0.31142422846244     -0.13578806707803
  H   -1.12157114565163      1.03685270002803      0.52914123890355
  H   -2.28419857993021     -0.04064918457621     -0.07776410265287
  C   1.41757147202662      0.69394439457398      0.57462499486183
  N   1.73016453223679      1.64419462273006      1.19591104221061
