9
Coordinates from ORCA-job run
  C   -0.43334244556340      0.03650194680013      0.28204722730532
  C   0.79939511017824     -0.00696559784173     -0.27580824781295
  H   -0.60336100307587      0.66014810238629      1.15582284245127
  H   1.00795969435373     -0.62463620604844     -1.14439027196745
  N   -1.51496800688506     -0.71097752316074     -0.10743063997841
  H   -1.47047355413847     -1.13290051227898     -1.02120390786573
  H   -2.42141707848668     -0.34616812925779      0.12980819049239
  C   1.87266209104772      0.74925721358813      0.27006209655565
  N   2.76554519256979      1.37574070581313      0.71109271081990
