9
Coordinates from ORCA-job run
  C   -0.35445213965352     -0.17642559522964     -0.33454766291455
  C   0.67941206036141      0.34351711433633      0.36796388009730
  H   -0.18946878444829     -0.52481233906314     -1.35076820456179
  H   0.54870554949122      0.70843132916731      1.38253088062115
  N   -1.65674467802435     -0.24314357663072      0.08941724866378
  H   -2.23490152145162     -0.94167589506014     -0.34502360649006
  H   -1.81932319898333     -0.13501806113171      1.07783496205923
  C   1.97479300013752      0.44404089169993     -0.20951516149761
  N   3.05097971257096      0.52608613191177     -0.67789233597747
