9
Coordinates from ORCA-job run
  C   -0.34885654493009     -0.71671303653110     -0.15077765227408
  C   0.97529130789513     -0.42314420175674     -0.11345787846147
  H   -0.65879935331168     -1.72319467271405     -0.41649797082025
  H   1.71269874051486     -1.18141610530307     -0.33835726338284
  N   -1.36669633935732      0.12614406199891      0.19719761600174
  H   -2.27692932147102     -0.07126530896324     -0.17982865826655
  H   -1.14347698455689      1.10708653890885      0.27549785606094
  C   1.40682105213647      0.88869556147423      0.22407209161655
  N   1.69894744308055      1.99480716288622      0.50315185952596
