9
Coordinates from ORCA-job run
  C   -0.34766695486152     -0.58145204561969     -0.44600072625544
  C   0.95870612702183     -0.46314885842585     -0.09920237072656
  H   -0.66691339752786     -1.45176082586185     -1.01202287760363
  H   1.67460825231741     -1.22045083514969     -0.38790878592896
  N   -1.32477083318203      0.34629727977480     -0.21767756861508
  H   -1.11914352899877      1.07412475087489      0.45031719166666
  H   -2.27535970281529      0.02064633218881     -0.20859294049986
  C   1.40003107382400      0.66263064181338      0.64836174550200
  N   1.70050896422223      1.61411356040520      1.27372633246088
