9
Coordinates from ORCA-job run
  C   -0.40262218366988      0.12135117210666     -0.30396145936068
  C   0.73981179669439     -0.02227714970261      0.40801685562867
  H   -0.38018369803635      0.65859391663697     -1.24858758769316
  H   0.75279778737866     -0.54746215311482      1.35855370778890
  N   -1.64912687497735     -0.29072290199372      0.09188777871129
  H   -2.32111469474758     -0.45132624810461     -0.63849487480984
  H   -1.68829738632210     -0.96511527115790      0.83935247314418
  C   1.96487923129647      0.52535402333016     -0.06183666920809
  N   2.98385602238374      0.97160461199988     -0.44493022420128
