9
Coordinates from ORCA-job run
  C   -0.33501140932144     -0.35262306073747     -0.64923181133429
  C   0.98382067572668     -0.20457398134912     -0.36695015117003
  H   -0.62578838526740     -0.89394084288864     -1.54485082758346
  H   1.73664663158930     -0.61283619339107     -1.02720623254592
  N   -1.37114834050874      0.19065810805448      0.05656880859343
  H   -1.16399278173428      0.54347347015496      0.97889786723511
  H   -2.27227668951127     -0.24358978954194     -0.03827188695807
  C   1.38961389820885      0.49446404117119      0.80249060292757
  N   1.66013640081828      1.07696824852761      1.78955363083566
