9
Coordinates from ORCA-job run
  C   -0.34626360574587     -0.70595639200678     -0.19985019473136
  C   0.97578215186171     -0.43349317485697     -0.06241859464128
  H   -0.65035844005414     -1.69800232162209     -0.52091145326731
  H   1.71768247127691     -1.19442677740820     -0.26224106075911
  N   -1.37453405463975      0.14008987509060      0.10633256893232
  H   -2.26105337197961     -0.03234921778309     -0.33406007340958
  H   -1.14554982869563      1.11439612255749      0.23429655999363
  C   1.39922440894723      0.85921876277766      0.35050985554824
  N   1.68507026902914      1.95052312325140      0.68834239233445
