9
Coordinates from ORCA-job run
  C   -0.37773603551544     -0.37971644555197     -0.60917130234860
  C   0.94628504490987     -0.11038175716310     -0.48534264705075
  H   -0.73611165658847     -0.85815031981177     -1.51599214108487
  H   1.63690059189017     -0.37431437490485     -1.27439229007152
  N   -1.33037936121682     -0.17647024940447      0.34924574585326
  H   -1.08125700183567      0.41830735116244      1.12528735743380
  H   -2.28318656498599     -0.09420046635230      0.04112039461952
  C   1.44011706559738      0.52204961424640      0.68821445989417
  N   1.78536791774498      1.05287664777962      1.68103042275499
