9
Coordinates from ORCA-job run
  C   -0.35491676196680     -0.68688662702753     -0.24472292858319
  C   0.97186285752444     -0.42416185170251     -0.13729355407142
  H   -0.67313097264602     -1.68089553812955     -0.54529865907302
  H   1.70314793164071     -1.19048526606915     -0.35449826796825
  N   -1.36690665381063      0.21730118377074     -0.08434323844145
  H   -1.13446035320090      1.09222253159656      0.36123737667463
  H   -2.27637180348447     -0.14497387228026      0.14188785763359
  C   1.41471667476742      0.86652456325075      0.26156059479101
  N   1.71705908117624      1.95235487659092      0.60247081903809
