9
Coordinates from ORCA-job run
  C   -0.37089408965250     -0.34919830533041     -0.09734292376905
  C   0.73142915742951      0.39985632940418      0.14056430383715
  H   -0.35425247664081     -1.41216306356125      0.12894818509870
  H   0.75348907540726      1.46304754065385     -0.08018594528863
  N   -1.52655227234962      0.09315648918958     -0.68848951991045
  H   -1.66718646575347      1.09047839185255     -0.71791849560315
  H   -2.36149916500578     -0.42989655335290     -0.48733013647563
  C   1.90965429312257     -0.18848961144215      0.67639594052626
  N   2.88681194344284     -0.66579121741344      1.12535859158480
