9
Coordinates from ORCA-job run
  C   -0.35133967221453     -0.61453466161290     -0.39667650907095
  C   0.96470004500256     -0.44582023107590     -0.11382107890472
  H   -0.65782667656334     -1.47378534932572     -0.98609599772635
  H   1.69780036648377     -1.15998617752242     -0.46289285454976
  N   -1.37620985327414      0.16644951160679      0.06041931280680
  H   -1.12695710742224      1.06525450964674      0.44567900579172
  H   -2.22818122208361      0.16035653328444     -0.47270364150806
  C   1.39373484112066      0.67488158782913      0.64863173202342
  N   1.68527927895086      1.62618427716984      1.27846003113791
