17

C	-0.476548	0.021721	-1.454157
C	0.0	0.0	0.0
F	0.209072	-1.004604	-2.118211
H	1.093982	0.0	0.0
N	-1.891214	-0.205716	-1.54166
H	-2.126662	-1.103157	-1.134813
H	-2.153009	-0.223287	-2.521305
N	-0.085438	1.238973	-2.108141
H	0.102221	1.056858	-3.085432
H	-0.807955	1.938103	-2.000622
C	-0.437747	-1.253339	0.765938
H	-1.510936	-1.266655	0.975157
H	-0.156489	-2.137073	0.18977
H	0.098953	-1.294125	1.714803
C	-0.485276	1.204892	0.666861
N	-0.91843	2.150978	1.211527
Br	3.601671	0.0	0.0
