17

C	-0.345515	-0.042603	-1.492252
C	0.0	0.0	0.0
F	0.001305	1.248148	-2.009367
H	1.095827	0.0	0.0
N	0.450856	-1.038976	-2.114667
H	0.406386	-0.925099	-3.121098
H	1.420176	-0.903433	-1.825372
N	-1.738531	-0.258253	-1.733206
H	-1.893529	-0.373757	-2.72884
H	-2.240027	0.571765	-1.435373
C	-0.475961	-1.250627	0.739975
H	-0.095129	-1.236241	1.763305
H	-1.564876	-1.313575	0.752614
H	-0.077846	-2.128299	0.231245
C	-0.541567	1.207272	0.610254
N	-1.05055	2.140604	1.110342
Br	3.516361	0.0	0.0
