17

C	-0.361339	-0.17255	-1.480771
C	0.0	0.0	0.0
F	-1.717003	-0.594066	-1.579971
H	1.094217	0.0	0.0
N	-0.207784	1.055684	-2.193239
H	-0.823412	1.768381	-1.817726
H	-0.436866	0.910038	-3.16985
N	0.43219	-1.244216	-1.999162
H	1.407398	-1.059872	-1.768538
H	0.338003	-1.288764	-3.007059
C	-0.483825	-1.173139	0.852833
H	-0.12284	-2.099482	0.407216
H	-0.072418	-1.084302	1.860373
H	-1.573432	-1.202252	0.90604
C	-0.508527	1.263914	0.518322
N	-0.97019	2.263762	0.928048
Br	3.507107	0.0	0.0
