17

C	-0.367583	0.026615	-1.499721
C	0.0	0.0	0.0
F	-0.015168	-1.217496	-2.003438
H	1.09599	0.0	0.0
N	-1.778685	0.182997	-1.699815
H	-1.928487	0.448562	-2.666371
H	-2.147998	0.90761	-1.097712
N	0.411089	0.971098	-2.26456
H	0.217304	1.904841	-1.919447
H	1.398819	0.786478	-2.086764
C	-0.534111	-1.214916	0.753397
H	-0.186385	-1.192512	1.788087
H	-1.625436	-1.247046	0.735987
H	-0.144724	-2.114687	0.278817
C	-0.457102	1.248148	0.60278
N	-0.887142	2.251106	1.040776
Br	3.514992	0.0	0.0
