17

C	-0.344252	-0.133891	-1.487369
C	0.0	0.0	0.0
F	-0.021539	1.128235	-2.081249
H	1.09583	0.0	0.0
N	0.46576	-1.152234	-2.050281
H	0.408751	-1.114804	-3.061916
H	1.433632	-0.985063	-1.777634
N	-1.735869	-0.384343	-1.711927
H	-1.888994	-0.529827	-2.704468
H	-2.247749	0.448547	-1.440324
C	-0.473341	-1.203628	0.815538
H	-1.562664	-1.264795	0.839277
H	-0.079557	-2.110318	0.356601
H	-0.086236	-1.129817	1.833699
C	-0.542436	1.241888	0.536736
N	-1.054316	2.202866	0.979129
Br	3.51977	0.0	0.0
