17

C	-0.36256	-0.072862	-1.49766
C	0.0	0.0	0.0
F	-0.084134	1.207854	-2.015121
H	1.09678	0.0	0.0
N	0.436805	-1.078036	-2.08914
H	1.414313	-0.931429	-1.842466
H	0.319484	-1.041003	-3.094066
N	-1.740322	-0.305339	-1.848834
H	-2.017201	-1.216284	-1.506616
H	-2.320602	0.405085	-1.416504
C	-0.460858	-1.234908	0.776059
H	-0.080307	-2.127093	0.278256
H	-0.053595	-1.204479	1.788266
H	-1.551366	-1.289533	0.844023
C	-0.550701	1.209649	0.594071
N	-1.084783	2.135262	1.081599
Br	3.503756	0.0	0.0
