17

C	-0.393285	-0.104684	-1.477373
C	0.0	0.0	0.0
F	-1.76779	-0.461477	-1.559445
H	1.09318	0.0	0.0
N	-0.194041	1.133726	-2.156604
H	-0.706	1.882115	-1.703443
H	-0.520543	1.047539	-3.113631
N	0.331759	-1.200421	-2.044712
H	1.324568	-1.021266	-1.890291
H	0.152156	-1.259866	-3.040016
C	-0.478964	-1.204383	0.813432
H	-0.077062	-1.140744	1.827374
H	-0.102977	-2.111892	0.341549
H	-1.569292	-1.24664	0.855205
C	-0.496714	1.240985	0.582792
N	-0.929356	2.223321	1.060016
Br	3.505973	0.0	0.0
