16

C	0.0	0.0	0.0
C	-0.399684	0.094375	-1.493985
Br	1.968554	0.0	0.0
H	0.384052	-0.422761	-2.070075
H	-0.249716	-1.011695	0.320039
C	-0.653091	1.015505	0.897475
H	-1.735837	0.850628	0.751843
H	-0.39492	2.032639	0.606564
H	-0.385001	0.841483	1.943751
N	-0.431177	1.527301	-1.880147
H	0.52425	1.844131	-2.028309
H	-0.912391	1.587218	-2.770651
N	-1.625109	-0.614889	-1.699161
H	-1.923352	-0.494212	-2.661526
H	-2.41184	-0.322633	-1.028331
F	-3.409557	0.0	0.0
