16

C	0.0	0.0	0.0
C	-0.270592	0.070459	-1.535118
Br	1.969292	0.0	0.0
H	0.383832	0.875704	-1.924071
H	-0.349809	-0.967179	0.370149
C	-0.60116	1.145683	0.762463
H	-0.289293	1.144927	1.814652
H	-1.694109	0.958262	0.669876
H	-0.309743	2.106747	0.317231
N	-1.6141	0.384916	-1.944888
H	-1.767795	1.372374	-1.741447
H	-2.31014	-0.046998	-1.26434
N	0.061704	-1.23341	-2.118573
H	1.063851	-1.377514	-2.095831
H	-0.234679	-1.178518	-3.082733
F	-3.183115	0.0	0.0
