16

C	0.0	0.0	0.0
C	-0.419229	0.055636	-1.511237
Br	1.957575	0.0	0.0
H	0.456283	-0.248805	-2.093885
H	-0.270245	-0.981842	0.390324
C	-0.551521	1.086183	0.890202
H	-1.642928	0.967491	0.817908
H	-0.225615	2.06457	0.535055
H	-0.221032	0.947209	1.923337
N	-0.707048	1.445596	-1.85885
H	-1.610024	1.637653	-1.427456
H	-0.883926	1.435732	-2.859114
N	-1.512238	-0.820507	-1.886815
H	-2.283469	-0.627041	-1.19777
H	-1.20715	-1.783201	-1.777666
F	-3.081005	0.0	0.0
