16

C	0.0	0.0	0.0
C	-0.580583	-0.108158	-1.402056
Br	1.968723	0.0	0.0
H	-1.649494	-0.262795	-1.14431
H	-0.25425	-0.928613	0.51078
C	-0.539941	1.175515	0.778984
H	-0.202823	1.146267	1.818604
H	-1.635849	1.029529	0.705905
H	-0.227046	2.12676	0.339337
N	-0.045175	-1.2746	-2.088634
H	0.917944	-1.081604	-2.350979
H	-0.567145	-1.353881	-2.955025
N	-0.491599	1.116209	-2.202712
H	-1.209628	1.74846	-1.865125
H	0.410134	1.56378	-2.055077
F	-2.983085	0.0	0.0
