17

C	-0.530007	0.014573	-1.428289
C	0.0	0.0	0.0
F	-0.080879	-1.068131	-2.128427
H	1.094689	0.0	0.0
N	-1.939821	0.033778	-1.443055
H	-2.286844	0.232718	-2.372479
H	-2.232015	0.733576	-0.767814
N	0.022474	1.209515	-2.239812
O	0.726297	2.040803	-1.678506
O	-0.339362	1.251652	-3.416936
N	-0.423937	-1.219583	0.668667
H	0.315463	-1.902942	0.576178
H	-1.266561	-1.585118	0.242355
N	-0.588275	1.151982	0.697359
H	0.061215	1.926872	0.615305
H	-0.625133	0.878533	1.672313
Br	3.597947	0.0	0.0
