17

C	-0.527836	0.047905	-1.428555
C	0.0	0.0	0.0
F	-0.079351	-1.019709	-2.152289
H	1.094696	0.0	0.0
N	-1.938262	0.069848	-1.446416
H	-2.231072	0.756712	-0.757598
H	-2.283116	0.288178	-2.37253
N	0.027788	1.260348	-2.211615
O	0.722461	2.084052	-1.627553
O	-0.325082	1.324845	-3.389874
N	-0.426497	-1.234202	0.639978
H	-1.271356	-1.584647	0.206062
H	0.309037	-1.919289	0.527606
N	-0.588619	1.136149	0.722916
H	-0.629801	0.8384	1.690336
H	0.062664	1.910702	0.662337
Br	3.598666	0.0	0.0
