17

C	-0.547668	-0.00364	-1.42061
C	0.0	0.0	0.0
F	-0.088858	-1.054036	-2.145788
H	1.093522	0.0	0.0
N	-1.95594	0.005094	-1.431975
H	-2.257941	0.747558	-0.811331
H	-2.292437	0.15348	-2.374973
N	-0.007981	1.22052	-2.220024
O	-0.486274	1.352066	-3.347956
O	0.819263	1.965713	-1.708043
N	-0.432486	-1.226458	0.618538
H	0.137548	-1.419372	1.430434
H	-1.414634	-1.191977	0.858484
N	-0.550348	1.209308	0.66035
H	-0.536283	1.025828	1.656834
H	0.106996	1.965906	0.49601
Br	3.639786	0.0	0.0
