17

C	-0.63155	-0.038833	-1.385482
C	0.0	0.0	0.0
F	0.025535	-0.974928	-2.156466
H	1.095504	0.0	0.0
N	-2.015743	-0.287501	-1.375426
H	-2.529051	0.522008	-1.691242
H	-2.29615	-0.593347	-0.45337
N	-0.353192	1.295783	-2.088101
O	-1.309079	2.019619	-2.367157
O	0.819224	1.536247	-2.32665
N	-0.492937	-1.203815	0.702742
H	-0.181814	-2.012853	0.169354
H	0.027471	-1.245248	1.573963
N	-0.448287	1.208976	0.663286
H	0.30635	1.575039	1.228197
H	-1.245094	1.005504	1.253506
Br	3.577495	0.0	0.0
