17

C	-0.522687	0.030769	-1.432048
C	0.0	0.0	0.0
F	0.03375	-1.032148	-2.133384
H	1.094916	0.0	0.0
N	-1.928497	0.024378	-1.465783
H	-2.223274	-0.73825	-0.864178
H	-2.259808	-0.090901	-2.414677
N	-0.069508	1.245618	-2.227416
O	0.714561	2.037445	-1.716534
O	-0.53776	1.326142	-3.36385
N	-0.543465	-1.251313	0.561268
H	0.090427	-2.002276	0.306598
H	-0.475178	-1.130894	1.565406
N	-0.4727	1.103285	0.807945
H	-1.390096	1.396769	0.492917
H	0.174306	1.87307	0.699902
Br	3.61085	0.0	0.0
