17

C	-0.462044	0.120846	-1.449591
C	0.0	0.0	0.0
F	-1.841081	0.102802	-1.465105
H	1.096185	0.0	0.0
N	0.001547	1.25974	-2.147925
H	0.977101	1.109149	-2.383191
H	-0.042846	2.013206	-1.467338
N	-0.039695	-1.122047	-2.233278
O	-0.766794	-2.109194	-2.136791
O	1.00552	-1.065792	-2.868031
N	-0.49898	-1.188869	0.678091
H	0.280842	-1.801765	0.870609
H	-1.15278	-1.694972	0.099198
N	-0.418618	1.252797	0.640114
H	0.293831	1.49178	1.320336
H	-1.270523	1.057953	1.15188
Br	3.513274	0.0	0.0
