14
Coordinates from ORCA-job run
  C   1.02720856930305      0.13159397764467     -0.04894248533264
  C   -0.43098982043412      0.00374786522641     -0.53742847627263
  H   1.42321654224469      1.09413890702930     -0.38920876523313
  H   -0.44130471009815      0.03658098068794     -1.62909550675142
  C   1.83641468632917     -0.94944276869651     -0.61557465677419
  N   2.48947494729279     -1.79581245689679     -1.09998531791704
  C   1.05676945515803      0.09918505912611      1.41742209204308
  N   1.02202559687827      0.07507546089297      2.59093799040717
  N   -1.11442432280734      1.33047519231312     -0.12103059088308
  O   -2.08373273410734      1.25703627890912      0.62428205707312
  O   -0.61940480016797      2.35349702295748     -0.58399292234209
  N   -1.04941845063263     -1.16001559204708     -0.05459890009796
  H   -1.17916005087045     -1.14085759920469      0.94958445043593
  H   -1.93767490808799     -1.33620232794207     -0.50236896835513
