17
Coordinates from ORCA-job run
  C   -0.71269563309697      0.11794898908068     -0.33766057833184
  C   0.77388721286374     -0.25821430614750     -0.46618927483122
  Cl  -1.56174950736171     -0.72858243233225     -1.65815880518549
  H   1.16950203731209      0.22008484067354     -1.36964328698180
  C   -1.32661863431207     -0.24618361060942      0.98702216824308
  H   -1.11856165743027     -1.29978441106493      1.17312474846047
  H   -2.40182335469488     -0.08093074073806      0.96130074593067
  H   -0.90394233372112      0.36734118461830      1.78268720364001
  N   -0.89062831313391      1.60275814447946     -0.65463607182062
  O   -0.25321972486276      2.03528021986844     -1.60664459215072
  O   -1.67936405615541      2.23056529167630      0.03778945491156
  N   0.94767419667712     -1.68106334627140     -0.37258427678766
  H   1.86440938408985     -1.87661644390168      0.01035716828535
  H   0.87547528899222     -2.10006979368174     -1.28944500886566
  N   1.54254007914811      0.39460549028413      0.66836249856035
  O   1.20028922097059      1.53285537491290      0.97084236892172
  O   2.47382579471539     -0.22899445084679      1.16547553800182
