17
Coordinates from ORCA-job run
  C   -0.53275103102903      0.27036589329836     -0.25841703369654
  C   0.84763389100990     -0.20566924569136      0.26037836069249
  Cl  -0.38709444255141      0.90426507764959     -1.89317996738507
  H   0.69305366674123     -0.61357934783986      1.25821600714177
  C   -1.65256349930831     -0.74651017585792     -0.17842899705303
  H   -1.47436997087750     -1.55591865606872     -0.88382775729524
  H   -2.59788612696233     -0.26194465782480     -0.43063666831472
  H   -1.70963998003588     -1.15861762748387      0.82912332169413
  N   -0.89507197403546      1.41543182250704      0.70282417221014
  O   -0.92271014986984      1.07628056281613      1.88365251912631
  O   -1.12627161702181      2.53087620583377      0.26529385867640
  N   1.89200198531531      0.74969387733871      0.28188975190992
  H   1.94723216035794      1.30423875331782     -0.56060475182030
  H   1.86155987998562      1.32829940645478      1.10789883607889
  N   1.26100209877516     -1.38776859345156     -0.58813778915391
  O   0.77148825704819     -2.47238642059883     -0.27482618715252
  O   2.02438685245823     -1.17605687439928     -1.52121767565872
