17
Coordinates from ORCA-job run
  C   -0.66633497090039      0.11536054692485     -0.36532797654554
  C   0.77544471361183     -0.44938680588554     -0.48579410116737
  Cl  -1.66604377340178     -0.77803120658051     -1.53043319037333
  H   1.11728418549357     -0.25544568062997     -1.50250303600429
  C   -1.28590599545034      0.03998777515968      1.00650328337057
  H   -2.29468517968537      0.45042712715371      0.97670241294174
  H   -0.70085932124888      0.59852607103733      1.73425271663800
  H   -1.34836837489798     -1.00426723757678      1.31442999777483
  N   -0.59954616421611      1.56549917531171     -0.85478614326687
  O   -0.84324650751977      2.43981397001268     -0.02931169458502
  O   -0.25897592913411      1.73397640472427     -2.01768922500109
  N   0.98540578530564     -1.81225475042907     -0.13920604498916
  H   0.56368743308997     -2.43275510822051     -0.81510276513864
  H   0.66974795935832     -2.02558032045997      0.79669828271396
  N   1.64703759822877      0.39372253423651      0.41456191348356
  O   2.16816015652253      1.38635099952317     -0.08576685621097
  O   1.73819838484411      0.03305650569845      1.58477242635963
