17
Coordinates from ORCA-job run
  C   -0.66726606245935      0.08715714440729     -0.43751204367885
  C   0.80541187308094     -0.35482451857916     -0.33931000491351
  Cl  -1.41502043930243     -0.92533513483704     -1.69767181415838
  H   1.31938067772578     -0.02439561441560     -1.24860413445797
  C   -1.42876571771472     -0.04475523284540      0.85341704654512
  H   -1.29749144419032     -1.06490155346624      1.21480903739298
  H   -2.48601126205408      0.15405123550809      0.68955058287848
  H   -1.05645004729049      0.66785959236464      1.58987795625844
  N   -0.73427475638297      1.51013772774961     -0.99149792133446
  O   -1.53589232143716      2.27507350070647     -0.47303993753413
  O   0.00151304042977      1.75886249198033     -1.93812125765729
  N   0.89643690199648     -1.75441626659959     -0.03716137778581
  H   1.01937827226250     -2.28910640963803     -0.88538218020645
  H   1.68615888176170     -1.91239882028775      0.57641364223143
  N   1.46451683099740      0.43607406250664      0.77773640698631
  O   2.22204151726648     -0.15373563280663      1.54056560087290
  O   1.20733405531046      1.63465342825237      0.80893039856120
