17
Coordinates from ORCA-job run
  C   -0.65446393622032     -0.00919715335099     -0.44034330617332
  C   0.63994257895021     -0.63882247448453      0.08785134696046
  Cl  -1.00248841705035     -0.73632234974334     -2.01058649581331
  H   0.50948381102068     -1.72020217897861      0.02590075689069
  C   -1.80849129999573     -0.24406316393144      0.51543316900904
  H   -1.59052853840409      0.22205744804342      1.47462386833102
  H   -1.94564125520439     -1.31608314812120      0.66240886687839
  H   -2.72211322896813      0.17255654826592      0.08768616914715
  N   -0.53032277246387      1.51139222846128     -0.59887266553159
  O   -0.93187724917113      2.04287287322375     -1.61695675359747
  O   -0.09432667030473      2.08193065982393      0.39766351366154
  N   0.96727605995533     -0.28377228924477      1.42215713659596
  H   1.73456667306897     -0.84553752669124      1.76688603634738
  H   1.16330587026837      0.70365174640458      1.51434181089791
  N   1.79149197667083     -0.37908210876580     -0.88649913731277
  O   2.62968796129266     -1.27444417090703     -0.95705454074743
  O   1.84549843655570      0.71306505999607     -1.44463977554363
