17
Coordinates from ORCA-job run
  C   -0.75186149709656     -0.06183270645401     -0.26051927181868
  C   0.71394629465980     -0.52848724375699     -0.30810605056448
  Cl  -1.74366148970222     -1.47051322077972     -0.72086726856038
  H   0.98414291575746     -0.69509575935115     -1.35717905722096
  C   -1.18702333690050      0.45899208901531      1.08245072241354
  H   -0.67841826087830      1.39605612819086      1.30935966636486
  H   -0.93839139199799     -0.29493579129760      1.82933352519255
  H   -2.25964167747788      0.64208747378797      1.08535243965102
  N   -0.99594927469772      0.96088017447322     -1.37012387118969
  O   -0.49404670499838      0.71144399150822     -2.45892486232711
  O   -1.69963293958421      1.92329503658813     -1.09739730180195
  N   0.92389676176784     -1.63425519543456      0.58433364543753
  H   0.76047939712470     -2.50633287943148      0.10049187523552
  H   1.88011879934000     -1.61284264950615      0.91671233538688
  N   1.60465056073869      0.62006312852833      0.12998133242895
  O   2.59452978345980      0.35670970722401      0.80384419695461
  O   1.28686206048548      1.73476771669562     -0.27074205558219
