17
Coordinates from ORCA-job run
  C   -0.69118943566822     -0.00041305483847     -0.40262067603830
  C   0.66192286947422     -0.53739833838205      0.11426414019215
  Cl  -1.07711221522209     -0.49274514917365     -2.05829801450068
  H   0.50622580274885     -1.59262506052942      0.34531919252257
  C   -1.79894558297662     -0.43712296263705      0.52901813978760
  H   -1.86926390355135     -1.52581935197219      0.50494360591401
  H   -2.74780843960312     -0.01524404004737      0.20507384143080
  H   -1.57711833694640     -0.10193885187397      1.54155244132557
  N   -0.61128392922691      1.52324883439876     -0.43452846752511
  O   -1.57377484337263      2.15687161959900     -0.02332031563567
  O   0.42284959068155      1.99176659167278     -0.90011261925342
  N   1.03474545406965      0.18581145634319      1.27823464083352
  H   1.67676862540074     -0.35104419584509      1.84590069510225
  H   1.48980374021506      1.05306790237415      1.01599184539574
  N   1.77630731356412     -0.58888929029761     -0.94406564978253
  O   1.70321827751233     -1.50777359470371     -1.75327775717577
  O   2.67665501290082      0.23824748591270     -0.86207504259275
