17
Coordinates from ORCA-job run
  C   -0.69357264323496     -0.01057432517505     -0.39837888059343
  C   0.67068512395020     -0.52687673908551      0.11085018139154
  Cl  -1.08036457464927     -0.50851208145460     -2.05209505442574
  H   0.53152982661226     -1.58363373769367      0.34534820751224
  C   -1.78911521902955     -0.46464024755531      0.53928284190237
  H   -1.56537473096128     -0.12785662317398      1.55091765326682
  H   -2.74589076902710     -0.05541286977712      0.22244258105363
  H   -1.84441255831739     -1.55413815852330      0.51328852888259
  N   -0.63698882351111      1.51437009830958     -0.42963487062159
  O   0.38470419723056      1.99843856893109     -0.90653718930570
  O   -1.60351269033086      2.13336832828850     -0.00576366185923
  N   1.04111755278742      0.20463603314707      1.27047239612834
  H   1.48130084082817      1.07791827428450      1.00286602044889
  H   1.69386209392338     -0.32159904465025      1.83568070194930
  N   1.77792700612553     -0.56480674446961     -0.95486845245907
  O   2.66354220342131      0.27923674046977     -0.88498204736513
  O   1.71556316418269     -1.48991747187210     -1.75788895590582
