17
Coordinates from ORCA-job run
  C   -0.60760108072452     -0.03353419866825     -0.43805759616352
  C   0.72263589661743     -0.63573716245966      0.07850190462545
  Cl  -0.99526653593260     -0.79083508516749     -1.98232064970650
  H   0.58354114637583     -1.71726868438577      0.09720121886738
  C   -1.73061731130103     -0.26602748232094      0.55340862905277
  H   -1.86776728460527     -1.33871909040722      0.70019909549036
  H   -2.65997267625076      0.15058766520293      0.16169978699471
  H   -1.49895440244450      0.21185607178088      1.50384440003114
  N   -0.47529176559601      1.48234511551981     -0.63085289917282
  O   -0.59631778417705      1.97039898684174     -1.73958026402351
  O   -0.27463321665386      2.09570019206213      0.41654643423438
  N   1.23632824629298     -0.18302314385638      1.32377449415160
  H   1.09231981938603      0.80694322806544      1.46646895420425
  H   0.88707844856145     -0.72165584087504      2.10118922252978
  N   1.79370436479960     -0.40680394499102     -0.96344050308077
  O   2.31866164459053     -1.39343658507129     -1.46546037213285
  O   2.07215249106176      0.76820995873011     -1.18512185590186
