17
Coordinates from ORCA-job run
  C   -0.61352599879005     -0.11702060095133     -0.41440305176125
  C   0.76526443195971     -0.57602092468976      0.12150990967141
  Cl  -0.98377730060328     -1.05252397302203     -1.86194158356465
  H   0.69912517303694     -1.65626736960969      0.25585770415751
  C   -1.69555198688208     -0.31872950084089      0.62821607685244
  H   -1.75399375017749     -1.37671748708053      0.88950858003646
  H   -1.47687066190834      0.27136445854919      1.51668238774923
  H   -2.66015052640808     -0.00929592502431      0.22260348707585
  N   -0.58892148984746      1.37673903030024     -0.76330021057576
  O   -0.40329982929888      2.10657826091110      0.20939397641765
  O   -0.77306291712469      1.73870566246563     -1.91096509786448
  N   1.27634700227120      0.03593456958709      1.29794516812160
  H   0.98313409467800     -0.44060010590387      2.13657747223157
  H   1.07030663253600      1.02410163089930      1.34334764385822
  N   1.79451936099557     -0.39000249794346     -0.96965306343770
  O   2.37770379195588     -1.38778151285546     -1.37645307574379
  O   1.98375397360707      0.76953628520878     -1.32592632322429
