17
Coordinates from ORCA-job run
  C   -0.61179762179668     -0.05867196163280     -0.42839827155827
  C   0.76620591484519     -0.58572582103991      0.04194613366516
  Cl  -0.97578992206703     -0.78282693107226     -1.99412602924166
  H   0.70174404422943     -1.67424833585538      0.02261205675702
  C   -1.69653867327026     -0.40666016020203      0.57207367486922
  H   -2.66052858232067     -0.04498099960301      0.21062562024692
  H   -1.48178204357863      0.05333769669304      1.53529360191270
  H   -1.75352925255024     -1.49093257096685      0.68218191034499
  N   -0.59040523628375      1.46906613154363     -0.56414128237202
  O   -0.40591443468514      2.05545702555235      0.50142128853244
  O   -0.77632622653029      1.98866889662806     -1.64929566551173
  N   1.27298224089361     -0.14428585370864      1.29413879166448
  H   1.06161035859831      0.82646757581487      1.47844484045562
  H   0.98031350768571     -0.73606377572882      2.05607381973554
  N   1.79838643442320     -0.24621304982793     -1.00930749041300
  O   1.98326458898237      0.95224185413501     -1.20125174405808
  O   2.38810490342489     -1.17562972072932     -1.54729125502934
