17
Coordinates from ORCA-job run
  C   -0.73324971055099      0.02272992491427     -0.42136721155185
  C   0.71859109704434     -0.49138129868868     -0.45031734494819
  Cl  -1.66915964467820     -0.93909764940499     -1.57418205231626
  H   1.07849337305320     -0.45324437451195     -1.47825984349698
  C   -1.38969920161004     -0.01447510391135      0.93589485643690
  H   -1.46699155806459     -1.05440513468949      1.25395478308816
  H   -0.81878836109942      0.55760581874141      1.66516848759523
  H   -2.39369375956447      0.40274610849511      0.86917141261358
  N   -0.68550592769713      1.45514692763740     -0.96703409122491
  O   -0.94850351890542      2.35553855481176     -0.17572022667600
  O   -0.34146851045809      1.58671294481065     -2.13318568890265
  N   0.81928356273313     -1.78907902891150      0.10182520346383
  H   1.67651326975350     -2.24200505884463     -0.18403396968395
  H   0.78253756632181     -1.75389337491918      1.11299492013268
  N   1.58272452653747      0.53941876917884      0.29951189875453
  O   2.10437210157558      1.42572936185593     -0.37023239530990
  O   1.68454469560929      0.39095261343639      1.51581126202576
