17
Coordinates from ORCA-job run
  C   -0.54170531226425      0.20529409941915     -0.50593888596750
  C   0.94146281741455     -0.21818205623076     -0.32365263791410
  Cl  -1.01095365841604     -0.26842962397634     -2.15205366549606
  H   1.52902402863166      0.32944252128283     -1.06057306434881
  C   -1.51464349957337     -0.37026516339806      0.49088964712866
  H   -1.25771843005411     -0.07679798931512      1.50654598535994
  H   -1.50545009209547     -1.45796876187895      0.41313822897328
  H   -2.52112804959580     -0.01843512389388      0.26675959035294
  N   -0.55626873177559      1.73636021232513     -0.46035903142164
  O   -1.15422542179995      2.25621198284059      0.47644575584308
  O   0.07412810604248      2.31520110930930     -1.33471907250926
  N   1.24612444549831     -1.60632881631103     -0.37295399150184
  H   0.70750260728749     -2.14267410282316      0.29295686600188
  H   1.13653350975524     -1.97318751332402     -1.30743434147539
  N   1.37820381745535      0.30049884942654      1.02571686146408
  O   1.87392196827507      1.42315501487833      1.05744101376646
  O   1.17419189521444     -0.43489463833054      1.98779074174429
