17
Coordinates from ORCA-job run
  C   -0.62078397369321      0.08091878636132     -0.44592303877223
  C   0.86442003383017     -0.37024077102741     -0.39244768370604
  Cl  -1.38832874356207     -0.83503396640691     -1.75972183947980
  H   1.31914228726150     -0.10863957989037     -1.34789877831021
  C   -1.40426975577128     -0.09601611704716      0.82931281769027
  H   -0.96434527738127      0.47463297500685      1.64458856323871
  H   -2.43014331996291      0.23884973149910      0.67945669315129
  H   -1.42309366566755     -1.15367051460052      1.09438405346686
  N   -0.60540940116669      1.55103472819275     -0.87680931845243
  O   -0.13349357748965      1.79244876946182     -1.97937903932033
  O   -1.01988513852450      2.37020949947741     -0.06290846041339
  N   1.13460203001183     -1.72712401179765     -0.06566276519027
  H   0.71223386764549     -2.00673399188899      0.80863540323360
  H   0.86276924817621     -2.34724366452581     -0.81480049256745
  N   1.54233583797772      0.49641081187756      0.64235773807916
  O   1.51123908630086      0.09428798416391      1.80196596636811
  O   2.04201046201535      1.54590933114411      0.24685018098414
