17
Coordinates from ORCA-job run
  C   -0.59727168471703      0.20448105810915     -0.43922285667952
  C   0.89888125358949     -0.21238392345660     -0.43187037312196
  Cl  -1.25359105788109     -0.26810502690411     -2.02051327951064
  H   1.39569596048694      0.34176963327796     -1.22826468386525
  C   -1.44404251982962     -0.37832360056315      0.66294851105086
  H   -2.47184923405380     -0.03241049895698      0.55824979111287
  H   -1.43726377269513     -1.46584526321999      0.58276889314640
  H   -1.07266163115400     -0.08439854717327      1.64249487457413
  N   -0.61417280437108      1.73543319545773     -0.38858058849002
  O   -1.10359898981827      2.25028774449650      0.61173940396065
  O   -0.09105923905642      2.31892291355417     -1.32803377183955
  N   1.20174467499375     -1.59878671677487     -0.52279704584921
  H   0.74942866344243     -2.14006894841136      0.20083119468476
  H   0.98284379077082     -1.96336598405403     -1.43878442445325
  N   1.48551035985764      0.30243652905729      0.86119196995378
  O   1.40283402467843     -0.44010617165026      1.83561043243716
  O   1.96957220575694      1.43046360721181      0.84223195288879
