17
Coordinates from ORCA-job run
  C   -0.66564798519539      0.08529896152612     -0.44143454091753
  C   0.80729636443323     -0.35486407410196     -0.33610329632331
  Cl  -1.40756012220026     -0.93014125585360     -1.70237605928289
  H   1.32458661951092     -0.02468953743391     -1.24349373203386
  C   -1.43196514094071     -0.04493368198417      0.84677948217155
  H   -2.48842073470769      0.15460686470133      0.67884094338798
  H   -1.06211651260565      0.66812458796407      1.58416303511724
  H   -1.30252165194723     -1.06469125008795      1.20993657804623
  N   -0.73173121098404      1.50734148946083     -0.99820293525957
  O   0.00536825042919      1.75403134474123     -1.94429914492520
  O   -1.53363002625170      2.27358649279470     -0.48207368678588
  N   0.89841325988879     -1.75406181576643     -0.03295428789650
  H   1.67839041034934     -1.90979430111847      0.59354601960975
  H   1.03709847747127     -2.28808232472650     -0.87915343913583
  N   1.45904523916600      0.43887563281075      0.78326743556838
  O   1.20677543114232      1.63865691862938      0.80520951575000
  O   2.20461933244162     -0.15026405155545      1.55834811290943
