17
Coordinates from ORCA-job run
  C   -0.68378843987480      0.07338586388965     -0.34377561552090
  C   0.73906371301121     -0.54031576128149     -0.44706217184924
  Cl  -1.75867793323501     -0.96489083754640     -1.30428206584182
  H   1.02464478155438     -0.52464306973238     -1.49882687922525
  C   -1.23219195586534      0.22773839033480      1.05141446514873
  H   -0.59844542077572      0.87518659599256      1.65385719277693
  H   -2.23277583389099      0.65654869051607      1.00718774989816
  H   -1.29953310454012     -0.75446645048778      1.52031148681549
  N   -0.61713160706626      1.42768699236970     -1.05659539452432
  O   -0.80166299306795      2.42520689350522     -0.36644582732430
  O   -0.33598832388938      1.40526709020421     -2.24706963561890
  N   0.94521721853016     -1.83321146881465      0.10784624207540
  H   0.67681900087454     -1.88304947792073      1.08077206426674
  H   0.47831967712014     -2.54547792876566     -0.43471751459655
  N   1.67767671174020      0.41370682201644      0.25235088892806
  O   1.81341746424435      0.25934921553836      1.46311054883722
  O   2.20603704513061      1.28197844018206     -0.43607553424544
