17
Coordinates from ORCA-job run
  C   -0.65922834048336      0.04789657929395     -0.52823174030630
  C   0.83008653655591     -0.32673185627395     -0.40544672704060
  Cl  -1.29382269421781     -0.73338206922248     -1.98286056256486
  H   1.33383142697374     -0.04739666604373     -1.33059547027442
  C   -1.50293935914051     -0.32009144180031      0.66640026874663
  H   -1.50504745540846     -1.40574309927956      0.76636511810222
  H   -1.11907823535941      0.13763034845821      1.57645483691243
  H   -2.52736103997623      0.01511765193149      0.50898750583927
  N   -0.69559164007768      1.56037522713652     -0.77871434959731
  O   -1.17372555952799      2.25572615819995      0.11226814602526
  O   -0.19919681724756      1.95507614427836     -1.82439087719103
  N   0.99529050697015     -1.69769418126074     -0.10105561203585
  H   0.80823114788206     -1.87344505215725      0.87831918224927
  H   1.93061371582980     -2.01051656842885     -0.32227176391621
  N   1.44533221214640      0.59476647566186      0.66336775826090
  O   1.38451428742056      0.20416032985381      1.82764001954707
  O   1.94909130766039      1.64425201965273      0.27476426724352
