17
Coordinates from ORCA-job run
  C   -0.69631425981600      0.05858719459561     -0.39223519667782
  C   0.75455601267640     -0.45495228490682     -0.33432538393371
  Cl  -1.59923843848952     -1.09400389519546     -1.40756893353769
  H   1.20497270704862     -0.31105746049545     -1.32272457213953
  C   -1.35225913719656      0.18521694893240      0.95592780945896
  H   -2.40817627974142      0.42152929471418      0.84066613099771
  H   -0.88385519335978      0.98238230543118      1.53370409490726
  H   -1.24200246410424     -0.76905705718797      1.47131415651106
  N   -0.73852888171741      1.37483991468460     -1.16812106462699
  O   -1.45934974783352      2.26000222743646     -0.72863174246318
  O   -0.06945701983245      1.42264793466258     -2.19252091840008
  N   0.80027840255618     -1.78903350641181      0.19257922656814
  H   1.64740681386213     -1.90353007499579      0.73521321230152
  H   0.79289323694220     -2.46285836391208     -0.56019975955429
  N   1.54932001194573      0.46157457455737      0.57996620433380
  O   2.35669176865465     -0.04528375720505      1.35111872905476
  O   1.34406246840501      1.66299600529607      0.44583800720007
