17
Coordinates from ORCA-job run
  C   -0.65228015325693     -0.04603967894978     -0.43924205854726
  C   0.65095449212586     -0.63793786252795      0.12290801530376
  Cl  -0.96180687794807     -0.78946106356143     -2.00823136365017
  H   0.55043656624469     -1.72372695098774      0.08758796546986
  C   -1.81818979845242     -0.28532698772825      0.49831529993632
  H   -1.94951796207283     -1.35907152095966      0.63937625075287
  H   -1.62021006151908      0.18144204107931      1.46023766932293
  H   -2.72885002688895      0.12458686442541      0.05800858793460
  N   -0.51158503461280      1.47572461096590     -0.61958197310615
  O   -0.34749943383351      2.08481667605403      0.43444084125910
  O   -0.59324340187408      1.96539342779251     -1.73175657910524
  N   0.94158148906978     -0.21102520631647      1.44146238019292
  H   1.72981016607530     -0.71608416389558      1.82437530251519
  H   1.09689416909478      0.78734034841007      1.49020949824667
  N   1.78576431065161     -0.35462339025167     -0.86450460789963
  O   2.10772144590127      0.82430122080917     -0.99459300693429
  O   2.31902011129540     -1.32130836435786     -1.40101222169147
