17
Coordinates from ORCA-job run
  C   -0.64151847515878      0.00820920067873     -0.42428996220471
  C   0.83492720827410     -0.46824346829973     -0.35035158416463
  Cl  -1.49415713816245     -1.12836350680103     -1.49014329159258
  H   1.24328861856281     -0.42163376131816     -1.35990446341123
  C   -1.36230727769884      0.11306463354924      0.89517221176934
  H   -1.39195646257118     -0.87008302652451      1.36600768314287
  H   -2.38647033624635      0.44527761801329      0.72861593167611
  H   -0.86775436811864      0.81886959739324      1.55929139731841
  N   -0.61753037432475      1.36102603176067     -1.14186774587533
  O   -0.19857189643588      1.36235486649936     -2.29137210303269
  O   -0.97032526001262      2.33898122049739     -0.49036448054648
  N   1.09373272597630     -1.73762424448858      0.23598349009620
  H   0.72015224253161     -1.81326212060503      1.17186706116866
  H   0.75864863936001     -2.48846465708816     -0.35033461254364
  N   1.58612016538530      0.56911187872790      0.44988996920208
  O   1.60258000971584      0.41645157708634      1.66818029097587
  O   2.09314197892354      1.49532816091901     -0.17637979197823
