17
Coordinates from ORCA-job run
  C   -0.61991254644962     -0.04202558872655     -0.41962012237634
  C   0.72512849980722     -0.63359245796799      0.06931448675165
  Cl  -1.05028197276821     -0.82818991302443     -1.93793989844064
  H   0.58826535858816     -1.71468991188564      0.11238320628318
  C   -1.71312206563027     -0.25810966557460      0.60820372032777
  H   -2.65565827840377      0.14471955287630      0.23395716233782
  H   -1.45697756068499      0.24239579261032      1.54060415697829
  H   -1.84004746108492     -1.32784748224747      0.78313366217234
  N   -0.49663625480457      1.47057889176402     -0.64392175986843
  O   -0.65649965307813      1.93765477433151     -1.75671954713583
  O   -0.26284931419546      2.10335512057744      0.38470379734640
  N   1.27504919072695     -0.15765320215518      1.29066711285359
  H   0.94174224688872     -0.67614821457426      2.08859516369242
  H   1.13965037010994      0.83606756669816      1.41504353393307
  N   1.76625116323218     -0.42423112206486     -1.00625241631349
  O   2.28399544341308     -1.42047361003305     -1.49658334678216
  O   2.03090283433369      0.74618946939627     -1.26556891175966
