17
Coordinates from ORCA-job run
  C   -0.61765008267718     -0.04160310505740     -0.42363987260601
  C   0.72567622160280     -0.63408539749585      0.07133636225775
  Cl  -1.03974715861913     -0.81953020540171     -1.94809897882890
  H   0.59001859415433     -1.71559572989278      0.10775716556705
  C   -1.71747013856767     -0.26158023974095      0.59618608215786
  H   -1.46713803354918      0.23392307083406      1.53273710698869
  H   -1.84644799674259     -1.33211942486358      0.76471110162387
  H   -2.65703848369506      0.14408869864881      0.21763522292033
  N   -0.49056272924900      1.47189147057215     -0.64014614337871
  O   -0.27218883872629      2.10094443227964      0.39425538068483
  O   -0.62950693040568      1.94338504170025     -1.75405081000910
  N   1.26513429537202     -0.16364758541350      1.29889040482623
  H   1.12662991806227      0.82875695363723      1.42946271924896
  H   0.92960987896822     -0.68932243910007      2.09109720003740
  N   1.77205006248576     -0.41549820419538     -0.99733681402555
  O   2.05097144276513      0.75702501870846     -1.23115285579289
  O   2.27765997882124     -1.40703235521938     -1.50964327167181
