17
Coordinates from ORCA-job run
  C   -0.69319999170306     -0.02379397910858     -0.39900219199166
  C   0.67480653559739     -0.51865921608059      0.12139270556775
  Cl  -1.07361381247342     -0.55508431412884     -2.04371132476532
  H   0.54487692291510     -1.57191214783046      0.37606006112758
  C   -1.78578818578982     -0.47030753557306      0.54577432406066
  H   -2.74579664905032     -0.07524048678203      0.22083454128213
  H   -1.56575226372424     -0.11369988902530      1.55140201739539
  H   -1.83171281207182     -1.56053960532848      0.53916453062221
  N   -0.64981148985820      1.50070262182611     -0.45810060856938
  O   0.36794619629328      1.98477708305425     -0.94336910716400
  O   -1.62196782899474      2.11892010328491     -0.04606949223423
  N   1.03789710453712      0.23790125396312      1.26703090119838
  H   1.69487352950588     -0.27161454238092      1.84254416549369
  H   1.47027116330832      1.11008337114203      0.98363590018541
  N   1.78379207572089     -0.56753658361702     -0.94264804106919
  O   1.73000748943300     -1.50813097973977     -1.72808815120435
  O   2.66217201635462      0.28513484632462     -0.88785022993505
