17
Coordinates from ORCA-job run
  C   -0.76156488954289     -0.12631063613366     -0.22179463276465
  C   0.67924294086992     -0.65141273930118     -0.07100739251677
  Cl  -1.83251184346293     -1.54227432204664     -0.08305185420467
  H   0.92539762339225     -1.22607492281995     -0.97055710217658
  C   -1.13915011133530      0.91201807227675      0.79953931848066
  H   -0.92054517263023      0.50365980932060      1.78646457021201
  H   -2.19916665005006      1.14644098654154      0.72524017299435
  H   -0.57333206001458      1.82975835108197      0.63669165669777
  N   -0.96978967090419      0.38091280855677     -1.64848603690291
  O   -1.59121724442045      1.42572485003612     -1.78568496345841
  O   -0.52334244185918     -0.32347732064616     -2.54511219628778
  N   0.84164484726852     -1.33700685598524      1.17846450858614
  H   1.76432130053234     -1.14421029536512      1.54798490026587
  H   0.73395344916212     -2.33301298107721      1.04899461259288
  N   1.62265458149193      0.53876991295407     -0.10995420489446
  O   2.55073292824308      0.57362944687056      0.69074669478473
  O   1.39467241325964      1.37386583573681     -0.97847805140817
