17
Coordinates from ORCA-job run
  C   -0.60945410105354     -0.03661974519953     -0.43470561378936
  C   0.72522832941788     -0.63230739584448      0.07707068992678
  Cl  -1.00215323521348     -0.80020268301693     -1.97450601176295
  H   0.58947656840231     -1.71413756168635      0.10149318925061
  C   -1.72632550995524     -0.27061165019989      0.56342604155949
  H   -1.49388880206468      0.21536475853200      1.50956701562490
  H   -2.66046620992344      0.13640107322784      0.17299123194813
  H   -1.85497126063578     -1.34325945696797      0.71823064106153
  N   -0.48471363053485      1.47948478807905     -0.63315712621958
  O   -0.27800452683782      2.09738333172028      0.41030155884683
  O   -0.61716603817214      1.96317855615487     -1.74249355552921
  N   1.24413885154592     -0.17267185904606      1.31781489973355
  H   0.90119896732423     -0.70931677373291      2.09938518067447
  H   1.09743361677409      0.81729044050473      1.45759413595606
  N   1.79045384376486     -0.40525138655048     -0.97108676058103
  O   2.05858608700230      0.76939182973269     -1.20677260055038
  O   2.32162705015939     -1.39311626570685     -1.46415291614984
