17
Coordinates from ORCA-job run
  C   -0.69359874893182      0.00372723814384     -0.39978000181951
  C   0.65943195888652     -0.54039201653331      0.11030495448116
  Cl  -1.08732175716577     -0.48160505363318     -2.05543670106049
  H   0.49976812461797     -1.59497775857648      0.34155451170126
  C   -1.79955864438465     -0.43119774468068      0.53466237953974
  H   -1.87710251781640     -1.51922472867680      0.50423684939798
  H   -1.57060200501041     -0.10317198361710      1.54795973946183
  H   -2.74740883687388     -0.00136890888737      0.21822280665184
  N   -0.60561067098408      1.52738252151745     -0.42597828444453
  O   0.42264019797764      1.99141586535702     -0.90858147051060
  O   -1.55494077376769      2.16502355262152      0.00897044735714
  N   1.04132343910048      0.18076312166676      1.27280695009550
  H   1.49756937438688      1.04677881210728      1.00830144945802
  H   1.68536131463505     -0.35855211518088      1.83579013394795
  N   1.76812978311784     -0.59600197798822     -0.95325666768915
  O   2.67077522410601      0.22929075956721     -0.87707423215863
  O   1.68914453810632     -1.51588958320706     -1.76070286440952
