17
Coordinates from ORCA-job run
  C   -0.60612390526618     -0.04972083126425     -0.43804635354247
  C   0.73193841643705     -0.62310565587134      0.09014941310112
  Cl  -0.97972693972652     -0.83828603579666     -1.96992175337840
  H   0.60981530006115     -1.70619314015985      0.12685237470938
  C   -1.72686541103213     -0.28293440672607      0.55590674603422
  H   -1.50629607549442      0.21870353350641      1.49670806908703
  H   -2.66291255915015      0.10775048548106      0.15353951684373
  H   -1.84425695797072     -1.35475514431348      0.72468394166642
  N   -0.49736864745647      1.46484354714476     -0.65591835525155
  O   -0.30379266647602      2.09899219841087      0.38025607230733
  O   -0.62995634461210      1.93237186434693     -1.77217093711278
  N   1.23700119152112     -0.14153491246270      1.32824917542536
  H   1.07741255307926      0.84827078310118      1.45422699406854
  H   0.89550601344370     -0.67257351959698      2.11425095998774
  N   1.80113879710824     -0.39628278105336     -0.95403349568958
  O   2.34563808075937     -1.38393228223331     -1.43281474057982
  O   2.05784915477480      0.77838629748680     -1.20191762767627
