17
Coordinates from ORCA-job run
  C   -0.61061095325218     -0.03108885376021     -0.43350310837123
  C   0.72251167609623     -0.63590881185167      0.07199673418411
  Cl  -1.00953625924205     -0.78419239206311     -1.97701300900275
  H   0.58259268111145     -1.71735136868950      0.08988424191642
  C   -1.72673443491948     -0.26620113070548      0.56497301344379
  H   -2.65998939210847      0.14603677419610      0.17790182264217
  H   -1.85935065809869     -1.33903476446343      0.71488612853758
  H   -1.49103533999410      0.21450017926223      1.51300650937970
  N   -0.47916810520039      1.48544444085587     -0.62353185209126
  O   -0.61109681043439      1.97633143994443     -1.72972065614455
  O   -0.26770254545494      2.09604422980457      0.42336048611098
  N   1.24568252828907     -0.18604692356865      1.31440909819180
  H   1.10200409663472      0.80325162416158      1.46137594773444
  H   0.90432915061465     -0.72789206367879      2.09297404432663
  N   1.78631971347721     -0.40733994798639     -0.97720752436042
  O   2.05983701063115      0.76729980238946     -1.20677626014628
  O   2.31194764185020     -1.39485223384699     -1.47701561635114
