13

C	-0.392322	-0.03131	-1.45885
C	0.0	0.0	0.0
F	-1.773881	-0.202402	-1.555722
H	1.091018	0.0	0.0
H	-0.145661	0.919698	-1.931104
H	-0.385474	-0.867143	0.535956
N	0.256731	-1.094161	-2.174407
H	0.192785	-1.949245	-1.63046
H	1.247278	-0.866845	-2.228605
N	-0.506663	1.199774	0.704232
O	-0.953355	1.049479	1.841612
O	-0.435359	2.278603	0.117144
Br	3.484224	0.0	0.0
