13

C	-0.559144	0.049885	-1.41797
C	0.0	0.0	0.0
F	-0.341853	1.351634	-1.850539
H	1.088012	0.0	0.0
H	0.005353	-0.615428	-2.071664
H	-0.398533	0.822577	0.592582
N	-1.956648	-0.248622	-1.541838
H	-2.088456	-1.240734	-1.668408
H	-2.467946	0.047663	-0.718831
N	-0.459296	-1.254633	0.633709
O	-0.220518	-2.303016	0.03407
O	-1.083697	-1.183277	1.695065
Br	3.522737	0.0	0.0
