13

C	-0.449959	0.023574	-1.44964
C	0.0	0.0	0.0
F	-1.778917	0.424326	-1.541774
H	1.08942	0.0	0.0
H	0.153265	0.794056	-1.938855
H	-0.36717	0.87508	0.541039
N	-0.288794	-1.197543	-2.186532
H	-0.735246	-1.953331	-1.681526
H	0.703012	-1.39584	-2.263508
N	-0.49326	-1.187892	0.748452
O	-1.607047	-1.633006	0.449475
O	0.221003	-1.640795	1.637327
Br	3.530466	0.0	0.0
