17

C	-0.463423	0.000752	-1.472686
C	0.0	0.0	0.0
Br	0.700613	-1.040669	-2.562219
H	1.094435	0.0	0.0
N	-1.905951	-0.491572	-1.620671
O	-2.229002	-1.086321	-2.63928
O	-2.654958	-0.18958	-0.696162
N	-0.469276	1.42162	-2.023033
O	0.55148	2.062373	-1.833505
O	-1.47512	1.796027	-2.616045
N	-0.423885	-1.250795	0.577569
H	-1.353809	-1.178047	0.972063
H	0.246865	-1.537995	1.278128
N	-0.488404	1.222366	0.653449
H	-0.842488	0.964384	1.568434
H	0.317005	1.83016	0.793423
Cl	3.31036	0.0	0.0
