17

C	-0.538829	0.021323	-1.433101
C	0.0	0.0	0.0
Br	0.401894	-1.187605	-2.566808
H	1.096582	0.0	0.0
N	-2.03842	-0.300272	-1.454346
O	-2.655147	-0.029967	-0.428298
O	-2.529813	-0.748994	-2.478655
N	-0.434737	1.432872	-2.006852
O	-1.486971	2.032593	-2.203283
O	0.694204	1.850823	-2.182256
N	-0.387302	-1.287814	0.572063
H	-1.142483	-1.175249	1.235017
H	0.419474	-1.69094	1.031617
N	-0.39071	1.220793	0.673728
H	0.303714	1.440383	1.375886
H	-1.309862	1.147673	1.086265
Cl	3.321506	0.0	0.0
