17

C	-0.467675	-0.069592	-1.463675
C	0.0	0.0	0.0
Br	0.512022	-1.378385	-2.455586
H	1.090591	0.0	0.0
N	-1.965454	-0.360497	-1.602196
O	-2.390747	-0.708138	-2.694192
O	-2.645161	-0.178203	-0.594811
N	-0.301604	1.305247	-2.116206
O	0.843979	1.676522	-2.288444
O	-1.331295	1.928018	-2.35014
N	-0.342449	-1.182853	0.770403
H	0.399109	-1.866055	0.691099
H	-1.232563	-1.590721	0.52865
N	-0.45831	1.25905	0.551443
H	-1.312234	1.109619	1.071278
H	0.258819	1.585137	1.185811
Cl	3.341551	0.0	0.0
