17

C	-0.493978	-0.08707	-1.450425
C	0.0	0.0	0.0
Br	0.370777	-1.496413	-2.424754
H	1.101978	0.0	0.0
N	-2.006777	-0.277336	-1.449784
O	-2.443267	-1.420218	-1.517932
O	-2.662188	0.743326	-1.278578
N	-0.229981	1.18712	-2.236782
O	-0.866854	1.308168	-3.278472
O	0.624083	1.94415	-1.805727
N	-0.520244	-1.163715	0.732917
H	0.160608	-1.351503	1.460979
H	-0.524089	-1.986583	0.142185
N	-0.498225	1.215505	0.603904
H	-1.132899	0.970709	1.351305
H	0.279909	1.75983	0.953536
Cl	3.356732	0.0	0.0
