17

C	-0.572916	0.059011	-1.413143
C	0.0	0.0	0.0
Br	-2.489999	0.293937	-1.392188
H	1.096556	0.0	0.0
N	0.006318	1.184998	-2.257894
O	0.742671	1.985722	-1.704771
O	-0.3231	1.178211	-3.439379
N	-0.202623	-1.211602	-2.170632
O	-1.049769	-2.066323	-2.36688
O	0.980307	-1.250862	-2.481714
N	-0.389556	-1.282401	0.544979
H	-1.322472	-1.265023	0.93912
H	0.284031	-1.558995	1.246716
N	-0.426339	1.197998	0.719847
H	0.4009	1.657333	1.081748
H	-1.024565	0.939223	1.49435
Cl	3.316233	0.0	0.0
