17

C	-0.541662	0.107429	-1.426449
C	0.0	0.0	0.0
Br	0.274585	-1.148985	-2.605121
H	1.103918	0.0	0.0
N	-2.063841	-0.070599	-1.467117
O	-2.65742	0.076971	-0.402373
O	-2.589496	-0.288666	-2.547821
N	-0.317213	1.527741	-1.950852
O	-1.297149	2.265324	-1.975372
O	0.829086	1.813297	-2.245794
N	-0.404415	-1.296558	0.527734
H	0.360816	-1.668098	1.076506
H	-1.227361	-1.204069	1.10767
N	-0.353012	1.207429	0.72298
H	-1.256232	1.137416	1.17
H	0.371835	1.404453	1.400147
Cl	3.331945	0.0	0.0
