16

C	-0.682315	-0.044636	-1.51864
C	0.139954	-0.116876	-0.239781
Cl	-0.307948	-1.452994	-2.580888
H	1.20282	-0.141577	-0.493755
H	-0.105549	-1.081406	0.23154
C	-2.169273	0.008202	-1.278154
H	-2.725119	0.050081	-2.214009
H	-2.457973	-0.888378	-0.725008
H	-2.386231	0.894879	-0.684765
N	-0.237772	1.184403	-2.304961
O	0.958625	1.289801	-2.535311
O	-1.104997	1.978033	-2.663342
N	-0.125477	1.061487	0.551368
H	-0.779694	0.829717	1.291821
H	0.797842	1.284836	1.051917
H	2.153089	1.273571	1.754014
