16

C	-0.674303	-0.067507	-1.527032
C	0.14969	-0.124996	-0.248487
Cl	-0.267048	-1.462676	-2.5945
H	1.212627	-0.123374	-0.502827
H	-0.072553	-1.09702	0.219005
C	-2.16204	-0.050593	-1.286141
H	-2.429453	-0.955748	-0.736271
H	-2.719035	-0.018381	-2.221684
H	-2.399575	0.828599	-0.689475
N	-0.25909	1.174588	-2.308832
O	0.934543	1.309306	-2.538395
O	-1.144871	1.948545	-2.664822
N	-0.143357	1.04386	0.546922
H	0.773667	1.285943	1.050135
H	-0.79339	0.794433	1.285354
H	2.127436	1.302957	1.755988
