16

C	-0.626563	0.072327	-1.559801
C	0.192505	0.116617	-0.256381
Cl	-0.053297	-1.235253	-2.620562
H	1.255959	0.101582	-0.51373
H	-0.030317	1.102551	0.185652
C	-2.103428	-0.102295	-1.317611
H	-2.663881	-0.102509	-2.253508
H	-2.213452	-1.055229	-0.80232
H	-2.474863	0.699598	-0.678007
N	-0.353003	1.383357	-2.281146
O	0.773382	1.562749	-2.731487
O	-1.252347	2.227217	-2.282513
N	-0.118102	-1.006208	0.585942
H	-0.612146	-0.68326	1.409969
H	0.828114	-1.380746	0.930205
H	2.267038	-1.601144	1.346732
