16

C	-0.488061	0.026968	-1.508184
C	-0.075679	0.190256	-0.056805
Cl	-0.39459	1.616029	-2.355985
H	0.969243	0.51901	-0.05491
H	-0.702315	0.96269	0.393895
C	0.336337	-0.994934	-2.242785
H	0.189282	-1.958412	-1.75795
H	0.056923	-1.051533	-3.294227
H	1.38749	-0.725145	-2.130583
N	-1.969079	-0.346923	-1.554212
O	-2.72951	0.286435	-0.829851
O	-2.315241	-1.2391	-2.324119
N	-0.198879	-1.107821	0.578802
H	-0.615619	-0.989997	1.494912
H	0.80626	-1.408797	0.724185
H	2.418157	-1.316905	0.691416
