16

C	-0.727097	-0.045085	-1.487611
C	0.142287	-0.135194	-0.241335
Cl	-0.466197	-1.488958	-2.53583
H	1.195571	-0.217554	-0.538157
H	-0.130406	-1.078031	0.257969
C	-2.19848	0.085852	-1.188217
H	-2.346333	0.992381	-0.603622
H	-2.790102	0.139497	-2.101252
H	-2.507732	-0.785531	-0.606649
N	-0.256017	1.146189	-2.315539
O	-1.097479	1.975495	-2.653972
O	0.933491	1.187751	-2.596401
N	-0.032344	1.068458	0.536409
H	0.922828	1.259221	0.988558
H	-0.661039	0.881437	1.310775
H	2.307732	1.200841	1.624173
