13
Coordinates from ORCA-job run
  C   0.30298105684602     -0.14164876194440     -0.01771145409443
  C   -0.67366821661612      0.80800056141805     -0.00870165053861
  H   -0.46199436628728      1.86365023996373      0.05786989771234
  C   1.73683542941231      0.29912388066716      0.05274069220100
  H   2.22696597050383     -0.14530509485008      0.92414517389497
  H   2.27382429724810     -0.03061334004741     -0.84027332865295
  H   1.81981651141901      1.38203898499534      0.13008208972022
  N   0.11044704699684     -1.47557453244546     -0.16324528652043
  H   0.86292992762660     -2.09042288267076      0.09393273912254
  H   -0.83630372462160     -1.81275669734687     -0.07745474081826
  N   -2.07071134001730      0.52098303593632     -0.04263546041135
  O   -2.84133703254305      1.48122483305531      0.01037376184777
  O   -2.44778555996737     -0.66070022673092     -0.11812243346281
