13
Coordinates from ORCA-job run
  C   0.31912733719846     -0.08286583308254      0.07161597014510
  C   -0.72650384714238      0.67853907221806     -0.36061095350085
  H   -0.61411716307888      1.49037499772687     -1.06235545657647
  C   1.69964953540713      0.20868303486963     -0.44606275253061
  H   1.73390061843791      1.18236640696999     -0.93545055586242
  H   2.43945260169497      0.20839301497765      0.35764916017360
  H   1.96553527148225     -0.55264080540055     -1.18301024575608
  N   0.22086104738619     -1.15739703743440      0.88106383665321
  H   -0.67642020496089     -1.48187682116966      1.20011049738957
  H   1.03449780678060     -1.66424491341775      1.17850558055332
  N   -2.09566173042984      0.43615364586187     -0.01265945478645
  O   -2.91360115392943      1.28880948126990     -0.36271657032440
  O   -2.38572011884611     -0.55429424338906      0.67592094442247
