13
Coordinates from ORCA-job run
  C   0.19747029087423     -0.44042740089600      0.05537980520510
  C   -1.10139954817210     -0.11392269199345     -0.16236525519203
  H   -1.88572335883694     -0.85015601696781     -0.27982937920294
  C   1.33065806868913      0.53131870201745      0.21517558705042
  H   1.38474343785997      1.21376514536108     -0.63141000397593
  H   1.17854849716394      1.14896930856851      1.10021059246501
  H   2.27677627838686     -0.00363438933060      0.31850956312604
  N   0.54091983318383     -1.76166609646125      0.22855062367554
  H   1.48414457451181     -2.01296839126800     -0.01672372073343
  H   -0.14665520034843     -2.45178152694262     -0.03137678881893
  N   -1.60509478151006      1.22474191702780     -0.24099105939903
  O   -0.84236049609862      2.18247291792682     -0.08050881282233
  O   -2.81202759570363      1.33128852295806     -0.47562115137749
