13
Coordinates from ORCA-job run
  C   0.17856183045136     -0.44647923660054     -0.06968810056264
  C   -1.08221307242501      0.00748052496127     -0.28369642838939
  H   -1.88810439957543     -0.62572242325199     -0.63095389897946
  C   1.33614710115985      0.37856350258008      0.41330992135478
  H   2.22027701049351     -0.24856352058252      0.54403960018205
  H   1.09720141499435      0.87615701190764      1.35182574072514
  H   1.56743128276205      1.16620505970028     -0.30352242711709
  N   0.48776651896694     -1.74998746626336     -0.38190805152321
  H   -0.28239831192580     -2.37864104407062     -0.54904200912384
  H   1.24980268328948     -2.16383241813702      0.12872154746686
  N   -1.50148469865318      1.36666560940078     -0.11578973898082
  O   -2.69191834683591      1.59393645926908     -0.34955630325299
  O   -0.69006901270221      2.22421794108691      0.24626014820062
