13
Coordinates from ORCA-job run
  C   0.18656784728984     -0.44814508759397     -0.01159246380363
  C   -1.11479211877976     -0.06887041966446     -0.07298123991725
  H   -1.93489486993491     -0.77330030886631     -0.12001792476877
  C   1.36635924572289      0.47689306416068      0.06779692375233
  H   1.42815112854976      1.09154163463831     -0.83012881301830
  H   2.29075938792871     -0.09571022606184      0.16601558600667
  H   1.26953073400793      1.16450941152192      0.90637871320755
  N   0.50478406051428     -1.78344775489891     -0.10704877062721
  H   1.36547724800391     -2.06947607455261      0.32922551656875
  H   -0.24872586456330     -2.44420001472138      0.00307703186204
  N   -1.56922854413960      1.28918290628060     -0.10259020177883
  O   -2.79326244148383      1.44531219733341     -0.12876964396255
  O   -0.75172581311592      2.21471067242455     -0.09836471352081
