13
Coordinates from ORCA-job run
  C   0.31449772739923     -0.09664269771710     -0.04731727540388
  C   -0.72250993891699      0.75100457978584      0.15591586556831
  H   -0.58227039811337      1.80420591216403      0.34745897783705
  C   1.72335911823194      0.40750634042230      0.05373593298159
  H   1.76270052421057      1.49101243756085      0.15851736006344
  H   2.28446652416613      0.11144082597895     -0.83505605143832
  H   2.21068299467279     -0.03545943126634      0.92839648675134
  N   0.20300413026697     -1.41963009732712     -0.39186130486092
  H   -0.71681443128228     -1.81410962503236     -0.25935486228138
  H   0.94402680345417     -2.02043621825225     -0.06729548488756
  N   -2.10343078389618      0.37042655167413      0.02879571618467
  O   -2.89891418972329      1.26952370320726     -0.24603987480980
  O   -2.41979808046967     -0.81784228119819      0.17310451429546
