13
Coordinates from ORCA-job run
  C   0.30901984726032     -0.13977274997830      0.02312488107163
  C   -0.69745557940440      0.77197215687970     -0.10082557311197
  H   -0.52132475709965      1.83669370188128     -0.09157904320948
  C   1.72404614410377      0.37195413008922      0.08346509359450
  H   1.78769246956610      1.27737469378842      0.68711092799988
  H   2.39695286197213     -0.37495579171785      0.50926094067124
  H   2.08061064301017      0.60754440197193     -0.92177662421819
  N   0.16161644734963     -1.48384347245552     -0.01319944621421
  H   0.91733167064745     -2.05660385060071      0.31754902055383
  H   -0.78013300933912     -1.84423298303057      0.02430142734937
  N   -2.07930951267923      0.43371467405146     -0.16128028816864
  O   -2.41303979388428     -0.76428742388785     -0.17115863091161
  O   -2.88600743150291      1.36544251300878     -0.18599268540636
