13
Coordinates from ORCA-job run
  C   0.31351012941502     -0.10514537148450      0.05163577588915
  C   -0.76827870107279      0.46321177247835     -0.55024363457979
  H   -0.68737630559942      1.09937941891148     -1.41768239471358
  C   1.67581025778596      0.14648688243746     -0.52813939593443
  H   1.62748382690922      0.80378030309257     -1.39487737170537
  H   2.32485134125649      0.61220092922966      0.21953922467347
  H   2.13409147002887     -0.79860221442542     -0.83015993130657
  N   0.27721122615834     -0.95953512675683      1.10377248970842
  H   -0.59936414760067     -1.04000278679328      1.59630861884826
  H   1.12884866541480     -1.11122721230017      1.61584413436264
  N   -2.10880558285365      0.32927960031783     -0.08098580628169
  O   -2.98275471309169      0.93790268343101     -0.70109147001404
  O   -2.33722746675047     -0.37772887813816      0.91507976105353
