13
Coordinates from ORCA-job run
  C   0.20418435962412     -0.39769539648785      0.18999792981890
  C   -1.11305455130036     -0.10322522359138      0.05113071102112
  H   -1.90544996333660     -0.75105638809487      0.40245015530734
  C   1.34728498528142      0.46214896352561     -0.26613283997988
  H   1.27468419498325      1.46487646352475      0.15184632258135
  H   2.29883138608403      0.01102679531176      0.02204165325689
  H   1.32723715996626      0.57740688811122     -1.34971340501548
  N   0.57116434622157     -1.61327735451482      0.71993360201003
  H   1.46738152685193     -1.64925176449079      1.17644212470208
  H   -0.14681317269218     -2.14639840017769      1.18555571662078
  N   -1.62422084935396      1.06983395939307     -0.59271672183512
  O   -0.84700219282123      1.89330452668124     -1.08535647576252
  O   -2.85322722950826      1.18230693080975     -0.60647877272549
