13
Coordinates from ORCA-job run
  C   0.29505330800327     -0.14962109337014      0.05034904420556
  C   -0.62611741662461      0.80591438088951     -0.25621440527139
  H   -0.37164912059437      1.84809868172574     -0.36924153855582
  C   1.72954096737686      0.26094576676746      0.22035432262600
  H   2.08491527423222     -0.00959010741015      1.21919315534492
  H   1.85703738901262      1.33466881799379      0.09208268947701
  H   2.35565608937080     -0.25606888658304     -0.51120052200308
  N   0.05520547983672     -1.48039651737983      0.14560890662753
  H   -0.91045467939103     -1.77052046266785      0.17066863745654
  H   0.73823040511591     -2.04963391263263      0.61449730664086
  N   -2.02102478013924      0.55244091218362     -0.41522388356824
  O   -2.74280569023395      1.52240146943188     -0.65366832032887
  O   -2.44458722596522     -0.61063904894836     -0.30620539265102
