13
Coordinates from ORCA-job run
  C   0.30627041709685     -0.11284479502451      0.07485988917348
  C   -0.68754484001857      0.68179330004863     -0.41128551001956
  H   -0.50262338496569      1.49944445009681     -1.09023333748896
  C   1.72290098916470      0.17477323542959     -0.33179033358848
  H   1.77801103350612      1.00925954371303     -1.02908014157228
  H   2.16411644941485     -0.70358663152151     -0.81236923353083
  H   2.32394676334220      0.41419756319274      0.54904732417955
  N   0.15065633016285     -1.11483237460580      0.97480426175226
  H   0.89479599150128     -1.78443400799972      1.06632476716196
  H   -0.79295619877517     -1.41765238320018      1.16269829462482
  N   -2.07300894425348      0.49802798549713     -0.12549432841008
  O   -2.42008990173720     -0.41473769749616      0.64301438710924
  O   -2.86447470443873      1.26959181186994     -0.67049603939113
