13
Coordinates from ORCA-job run
  C   0.17415107748476     -0.44798817436575      0.06994026082240
  C   -1.10626234602503     -0.06189339137130     -0.16008569327601
  H   -1.93987080880935     -0.75171870860438     -0.17515080248683
  C   1.36899013741693      0.45981842623170      0.11614306321454
  H   1.22296747499063      1.26430756893835      0.83510954176838
  H   1.52183731096351      0.93575939226285     -0.85236765354279
  H   2.26556453102087     -0.10732168684532      0.37400309001710
  N   0.46162440305971     -1.78778436907838      0.19765752645270
  H   1.27321198315776     -2.01892806074558      0.74620562637400
  H   -0.31730603895940     -2.41246803664244      0.33778283593302
  N   -1.51786111040375      1.28431340625712     -0.42527009005698
  O   -0.67784458329608      2.18774155118954     -0.48165586156868
  O   -2.73020203060056      1.45416208277359     -0.58231184365085
