13
Coordinates from ORCA-job run
  C   0.30971909431784     -0.11987482349320      0.03852609167378
  C   -0.73604834404853      0.60862484509335     -0.44232262962046
  H   -0.60760264170224      1.44167672916166     -1.11553856645637
  C   1.70099807370201      0.24339172778301     -0.39484685944251
  H   1.70111662075594      1.10168071038838     -1.06489352090201
  H   2.16515175086850     -0.60215984636361     -0.90873843270396
  H   2.31653345030623      0.48803063038665      0.47603102096536
  N   0.21480028861155     -1.21596478364276      0.83071718206148
  H   -0.68452543751913     -1.40262815845428      1.24748662349990
  H   1.03990846780220     -1.51466170166258      1.32112605373887
  N   -2.09978350685889      0.38147935070146     -0.09050846882703
  O   -2.93817314128383      1.14095518397306     -0.57950342986369
  O   -2.38209467495165     -0.54954986387114      0.68246493587664
