15
Coordinates from ORCA-job run
  C   -0.78993307011700     -0.12227058486062     -0.06525336660823
  C   0.56187478233926     -0.26464673540399     -0.18620920896832
  C   -1.60015115747492     -1.04251807983491     -0.79681690248870
  N   -2.24151104947817     -1.81174238067781     -1.41811907856715
  C   -1.52928900716261      0.90808597945133      0.74918787136351
  H   -2.07730610371670      1.60160394233852      0.10477297208512
  H   -0.85842140368227      1.48803601657212      1.38055158005051
  H   -2.25970439536400      0.42341691003276      1.40256571557503
  N   1.13597659939479     -1.33364714607458     -0.85318147840794
  H   0.51958024718485     -1.86296038231211     -1.45400945116231
  H   2.03068723500445     -1.14222623534063     -1.27601324818424
  C   1.56955822953532      0.62414804781458      0.48091147623001
  H   2.29090807000640      0.98937488132220     -0.25739908586233
  H   1.12114892946800      1.49016045063760      0.95957388552352
  H   2.12758209406259      0.05518531633555      1.22943831942153
