15
Coordinates from ORCA-job run
  C   -0.75210892382220      0.19546242370881     -0.10372521533142
  C   0.58384212926287     -0.04709774680480     -0.00310918939955
  C   -1.23616594032645      1.06062044168565     -1.12448939272385
  N   -1.66736372671266      1.77013956903061     -1.96044223635613
  C   -1.74801517443292     -0.42411314940173      0.84605051649478
  H   -2.75297419914259     -0.04699220403522      0.65735541580983
  H   -1.78215309853259     -1.51501286022228      0.73985186866155
  H   -1.49222615126659     -0.19275603770358      1.88535346655713
  N   1.09187192976291     -0.82975777498397      1.01846070269428
  H   2.00101250163957     -1.22773356487449      0.84351916457027
  H   0.45273326094488     -1.48343317529715      1.44311664475007
  C   1.61924188820551      0.56995659683909     -0.89296084286821
  H   2.34730740000908      1.11986697274108     -0.28934550400634
  H   1.17457394605264      1.25500632749283     -1.61316220230450
  H   2.16042415835855     -0.20615581817483     -1.44447319654789
