15
Coordinates from ORCA-job run
  C   -0.75144843164870      0.19936011139865     -0.10324685822193
  C   0.58365648271930     -0.04737713823568     -0.00004740462187
  C   -1.22661372144245      1.10696276836980     -1.09057531940759
  N   -1.65123197051176      1.85046543466386     -1.90006493234133
  C   -1.75596832908990     -0.46301815655438      0.80791629592343
  H   -1.79901291528378     -1.54593464732166      0.64210973227361
  H   -2.75695754119233     -0.06775931489944      0.63723044241306
  H   -1.50146297945708     -0.29035008426137      1.85870823695190
  N   1.08073046775155     -0.87674807458596      0.98926132385706
  H   0.43967187825522     -1.55235753198712      1.37439540232421
  H   1.99621082649277     -1.25859531248706      0.81220383832463
  C   1.62760580151890      0.61324509902131     -0.84752236442668
  H   1.18641445760752      1.31371489533759     -1.55488144519214
  H   2.33397119438778      1.15608109995080     -0.21269142239724
  H   2.19343477989298     -0.13568914840935     -1.41179552545912
