15
Coordinates from ORCA-job run
  C   -0.74974190618064      0.01040829111746      0.23039536415261
  C   0.58337289457380      0.01992157834519     -0.04603885222944
  C   -1.18859043532023     -0.06493287281636      1.58167857335277
  N   -1.58183480392087     -0.13164117496368      2.69033647693518
  C   -1.78935638321839      0.08807496760380     -0.86071915738613
  H   -1.64824016392968      0.98732831223448     -1.46953421284328
  H   -2.79404362992359      0.12306087286810     -0.44043456897874
  H   -1.74250155628342     -0.78240315384025     -1.52612821431836
  N   1.04200284146721      0.16007349421409     -1.34382816945452
  H   1.98049841749581     -0.16974113201312     -1.50561350168782
  H   0.40166244115846     -0.10492167861796     -2.07603947474002
  C   1.65817160481502     -0.02518083757779      0.99666316263990
  H   2.25090052231633     -0.94009688743150      0.89301133798210
  H   1.24383296080251      0.00214522207586      2.00333297088060
  H   2.33286719614768      0.82690499880168      0.87291826569515
