15
Coordinates from ORCA-job run
  C   -0.76406904622108      0.15012704170446     -0.09347736623334
  C   0.58567099651027     -0.00105408198594      0.00170275361756
  C   -1.30590115751455      1.06107674073199     -1.04259366811184
  N   -1.78372138020135      1.80414782183691     -1.82218858896218
  C   -1.71523774829110     -0.61788082905239      0.79137718036843
  H   -2.74701869049295     -0.32150763413719      0.60466458232920
  H   -1.49857046817360     -0.43284969244980      1.84874461910311
  H   -1.64749191900271     -1.69826771813655      0.61558582335091
  N   1.14526021685596     -0.82794829094897      0.95948853581168
  H   2.08165294505459     -1.14311689066169      0.76061613477751
  H   0.55342697950801     -1.56027210143641      1.31981990507089
  C   1.57668872432064      0.75546841893824     -0.82896613111377
  H   1.08877960723008      1.48905664479572     -1.46895516223703
  H   2.28695495218354      1.27529117223272     -0.17947021631197
  H   2.14457598823426      0.06772939856890     -1.46434840145914
