15
Coordinates from ORCA-job run
  C   -0.74708054156297      0.20393799525195     -0.15761513078339
  C   0.57486177416459     -0.14145439314080     -0.10677272014592
  C   -1.07566224781616      1.57997197178168     -0.31217260441955
  N   -1.40748121195425      2.71048706961313     -0.34386745190332
  C   -1.84079341353033     -0.71429532984456      0.33227660484393
  H   -2.79126741184872     -0.47107739270149     -0.14599711358524
  H   -1.98292015932185     -0.63547607957078      1.41659908310203
  H   -1.61036527103552     -1.75470930254490      0.08737406798478
  N   1.03346195526070     -1.23016667523352      0.63163333108856
  H   0.42021460883746     -2.03586955789202      0.64845531968506
  H   1.96712458472773     -1.51774184862616      0.36434748672735
  C   1.65359501388435      0.81959078955822     -0.52518780202821
  H   1.27236408808872      1.55545992281494     -1.23181720145650
  H   2.05594162272372      1.34610306612240      0.34590551055825
  H   2.48000660938253      0.28423976441188     -1.00416137966782
