15
Coordinates from ORCA-job run
  C   -0.79402275442624     -0.08312304418371     -0.11297734591953
  C   0.55356307072420     -0.26901045275793     -0.21641737784432
  C   -1.63005850007894     -1.00689538432980     -0.80762900955288
  N   -2.29089614784527     -1.79107000555974     -1.38881194209821
  C   -1.48363152834522      0.99098680553987      0.69210305494282
  H   -1.78927629981170      0.62655209559392      1.67775908728774
  H   -0.84704022205870      1.86485108572181      0.82926114479199
  H   -2.38487040271218      1.32454234807136      0.17369397350013
  N   1.11349790776371     -1.18900888295765     -1.08448852323939
  H   0.48139386769562     -1.88080805710001     -1.46281065122498
  H   1.99427996416711     -1.57869316888375     -0.78739267839463
  C   1.56253006823910      0.58841922175781      0.48899417219381
  H   2.34672824114398     -0.03672535285814      0.92739443406385
  H   1.12127969583168      1.17409907933686      1.29190407054777
  H   2.04452303971287      1.26588371260908     -0.22158240905415
