15
Coordinates from ORCA-job run
  C   -0.75916539613476      0.16003261852884     -0.11494942003623
  C   0.58518364949707     -0.01755603397474      0.00864090859509
  C   -1.26321250018526      1.06077051172971     -1.09434869055440
  N   -1.70938712919374      1.79635359583631     -1.89938445554613
  C   -1.74270798400299     -0.56976794763218      0.76662449638787
  H   -1.53731359104654     -0.37715098223262      1.82490473784263
  H   -1.70156912480388     -1.65353414361906      0.60571202146962
  H   -2.76354405249386     -0.24886370167653      0.56105126434282
  N   1.10875499166403     -0.83347606698050      0.99567095054949
  H   2.04180920895580     -1.17255566064933      0.82246938239833
  H   0.49502638480333     -1.54190738316459      1.36635299236875
  C   1.60737701127523      0.71179175169617     -0.80812837707729
  H   2.24226887188409      0.00195270592135     -1.34856283144109
  H   1.14231181386722      1.37647878892102     -1.53408442421028
  H   2.25316784591427      1.30443194729616     -0.15396855508918
