15
Coordinates from ORCA-job run
  C   -0.74170457322023      0.25368895551081     -0.01755396375617
  C   0.56867090472873     -0.10964852056757     -0.08683457525832
  C   -1.19600596494308      1.39256458954214     -0.73933930510097
  N   -1.60052736185148      2.33295984130520     -1.32266755333332
  C   -1.73923687449261     -0.51750268577126      0.81164178920218
  H   -1.52612282227629     -0.42978285369140      1.88361172189792
  H   -1.72645402877738     -1.58017103833555      0.54834597196480
  H   -2.75072467586872     -0.14594820295870      0.64940214173969
  N   1.02892550339396     -1.24486548595796      0.55685835924872
  H   2.02149791722912     -1.26759174590421      0.72937871222363
  H   0.48715776438137     -1.56408861655508      1.34476029427173
  C   1.59067439547552      0.59113865785672     -0.92881532454852
  H   2.00553698748159     -0.10382203545845     -1.66490186897464
  H   1.16190366814294      1.44200149156633     -1.45584658490070
  H   2.41740916059653      0.95106764941900     -0.30703981467603
