15
Coordinates from ORCA-job run
  C   -0.75956256390946      0.17843212139128     -0.07986518278567
  C   0.57899780450704     -0.06924449386237     -0.05217190131110
  C   -1.27814534867492      1.14612304258050     -0.98501534405226
  N   -1.73585126749933      1.94450708091769     -1.72076730761755
  C   -1.72298560632999     -0.54814607900350      0.82642333599621
  H   -2.75368721248828     -0.28321983617775      0.59186303822891
  H   -1.62153648851911     -1.63254883632472      0.71457890844971
  H   -1.55221229755958     -0.29799322541701      1.88015385185016
  N   1.10648021714430     -1.04659221008206      0.77272458905175
  H   0.55761467056290     -1.29785836705287      1.57993999031558
  H   2.08823949623765     -0.95180961682926      0.97896257232753
  C   1.57437686774629      0.59192677957990     -0.95596877509136
  H   2.10293189247275     -0.16414128290130     -1.54382914010751
  H   2.31935466644837      1.13891689890501     -0.36848721818847
  H   1.09498516986139      1.29164802427648     -1.63854141706593
