15
Coordinates from ORCA-job run
  C   -0.76397027433511      0.12660892121443     -0.12582666808825
  C   0.58374050021118      0.02054562305617      0.03569317601897
  C   -1.29008249540334      1.08571184958150     -1.03605057704070
  N   -1.75284620600332      1.86684382473863     -1.78697801107737
  C   -1.72914772214267     -0.75105499597023      0.63270247235526
  H   -1.54666606765124     -0.68975235230585      1.71050878948260
  H   -2.75915220103273     -0.44531445832106      0.45071127006194
  H   -1.64141207657176     -1.80189752213731      0.33267104158164
  N   1.12499788640264     -0.86291842442686      0.95294744887834
  H   2.08639811682863     -1.11632566021733      0.78866903605747
  H   0.55040798375811     -1.65054896646909      1.20931482828937
  C   1.58442000584099      0.89110676604549     -0.66114554717890
  H   1.10092246377151      1.63464389016444     -1.29224699987662
  H   2.24655563162631      0.28548324437914     -1.28856044584562
  H   2.20483445470081      1.40786826066793      0.07659018638187
