15
Coordinates from ORCA-job run
  C   -0.73576108301231      0.25860200956830     -0.08120505421395
  C   0.57868556808883     -0.08970944601984     -0.01118077670059
  C   -1.16846192381701      1.17296639627154     -1.08244693193679
  N   -1.55195004239692      1.92244571107661     -1.90681897892434
  C   -1.76272211398522     -0.31696083338765      0.86173330720526
  H   -2.72460504266172      0.18372531860248      0.74943818825834
  H   -1.92878954043110     -1.38418398133681      0.67349478982033
  H   -1.44399581536697     -0.20307480004510      1.90301866243423
  N   1.03836288180862     -0.94046606527812      0.97937724500386
  H   1.91487176454499     -1.39541281608664      0.77834948406716
  H   0.35689387740383     -1.56942420405205      1.37359748684203
  C   1.64466999459448      0.48372699633195     -0.89420510322721
  H   2.20124769304963     -0.31650272828962     -1.39335295740446
  H   1.22519667196687      1.13756791080420     -1.65624999184333
  H   2.35835711021399      1.05570053184075     -0.29454936938053
