15
Coordinates from ORCA-job run
  C   -0.76238585385825      0.12991953190211     -0.12673951264487
  C   0.58589647048485      0.00251674474362      0.01428297488489
  C   -1.28785489743383      0.97201773817866     -1.14612130066418
  N   -1.75266813326998      1.65878134320808     -1.98313455144085
  C   -1.72993313666234     -0.59488289014337      0.77679863543110
  H   -2.75749298355322     -0.30526829058956      0.55862813811279
  H   -1.66155532363670     -1.68186057214412      0.65103101095042
  H   -1.53240735540107     -0.36236285266731      1.82832912943355
  N   1.12760805525335     -0.75410174714890      1.03774808548215
  H   0.53438021542752     -1.46679697883103      1.43266257495916
  H   2.07325984876303     -1.06797420125702      0.88774067441187
  C   1.59066359049812      0.73071745161779     -0.82544203652700
  H   2.24180643222519      0.02015583372139     -1.34549520074218
  H   1.10949840681832      1.36258708536994     -1.57006241269650
  H   2.22218466434502      1.35755180403973     -0.18922620895033
