15
Coordinates from ORCA-job run
  C   -0.74349596415824      0.24880177014552     -0.02131616973851
  C   0.57851086882305     -0.07627135850474     -0.04869458487192
  C   -1.22796252843203      1.29833077543074     -0.85104028237004
  N   -1.65827566807119      2.16059458269712     -1.52894711329869
  C   -1.72324585841224     -0.47413168944610      0.87014416691780
  H   -1.38698725154586     -0.45805957487077      1.91198658817158
  H   -1.84668888165215     -1.52123749945202      0.56915098712417
  H   -2.70630562848067     -0.00564606908835      0.82938813072071
  N   1.09075294817300     -1.05082648870039      0.78943403404159
  H   1.96592159436055     -1.45389848348818      0.49452124534051
  H   0.43745105699520     -1.73849932263487      1.13052405399850
  C   1.60155824292410      0.63567582188598     -0.87995480173729
  H   1.15559858245417      1.43560404373103     -1.46855957719529
  H   2.09144982282496     -0.06398827174910     -1.56521393805343
  H   2.37271866419734      1.06455176404414     -0.23342273904968
