15
Coordinates from ORCA-job run
  C   -0.75878380110378      0.14666761480486     -0.13357164505441
  C   0.58468170728886     -0.00252718403376      0.02899646442457
  C   -1.25387092004325      1.02229640178208     -1.13980747224470
  N   -1.69354392384529      1.73678667250684     -1.96713460068891
  C   -1.75275471513268     -0.59773925181598      0.72387783799290
  H   -1.54218247435129     -0.44295411613192      1.78712711976953
  H   -2.76841387033305     -0.25250790757442      0.53144251633051
  H   -1.72971379754357     -1.67599111275108      0.52594347816256
  N   1.09663065112601     -0.80650088273439      1.03207500474135
  H   0.49268378546110     -1.53849789363615      1.37183982578595
  H   2.04616438936244     -1.11413005220717      0.89377159917636
  C   1.61448187869537      0.74155863804830     -0.76498604425053
  H   2.26113053765169      1.31338845849010     -0.09302775075379
  H   2.24660057730891      0.04187351548433     -1.32187492670346
  H   1.15588997545854      1.42827709976835     -1.47467140668793
