15
Coordinates from ORCA-job run
  C   -0.75770606196129      0.14991147216884     -0.13637915716519
  C   0.58465483137424     -0.03054383632875      0.00298613202232
  C   -1.24496111313770      1.21591997661573     -0.94310526354499
  N   -1.67739020046183      2.09243280283713     -1.60116519098831
  C   -1.75747249468240     -0.75425185880208      0.54225082489381
  H   -1.71027559482205     -0.66063736044683      1.63361830610776
  H   -2.77460499718831     -0.50846899425215      0.23814437681477
  H   -1.57384364722124     -1.80219908475771      0.28360950701230
  N   1.08953497869379     -1.09415061771974      0.72969665912446
  H   2.03616729905014     -0.98073575687136      1.05604561522632
  H   0.47907274922697     -1.49209597282977      1.42613666018414
  C   1.62043041044922      0.80929466276551     -0.67995850893497
  H   2.25407454087212      0.17847538857589     -1.31017112218116
  H   2.26496823497793      1.29721674543588      0.05879895280082
  H   1.16735106483042      1.57983243360942     -1.30150779137210
