15
Coordinates from ORCA-job run
  C   -0.73123440136394     -0.27565525561283      0.19116904688113
  C   0.58092782560437     -0.22143336711627     -0.17989992303399
  C   -1.32250969739817     -1.57272555402908      0.26612914312870
  N   -1.78244084558549     -2.65720896277247      0.30545937286604
  C   -1.60978342315441      0.88388439033317      0.58783499200544
  H   -1.70553209462479      0.95795558321045      1.67539875223109
  H   -2.61414590030886      0.75074366964894      0.17922387246505
  H   -1.22829416588687      1.83339367219591      0.21436074164396
  N   1.34084940312543     -1.35993975681241     -0.38584325721522
  H   2.09044110721048     -1.25892891827565     -1.05217515508700
  H   0.82573984906269     -2.22222658219264     -0.49571865391551
  C   1.37259996853313      1.04698475893735     -0.29985320589831
  H   2.22169005635579      1.01171230974141      0.38813493640742
  H   1.77510248299957      1.14687483305686     -1.31355769270895
  H   0.78758983543108      1.93556917968728     -0.07966296976987
