15
Coordinates from ORCA-job run
  C   -0.71253265973722     -0.36718851947467      0.07438817862734
  C   0.53693756335648     -0.04134258812056     -0.36651597865674
  C   -1.31598803797480     -1.52778184436862     -0.49533555272715
  N   -1.78204923044632     -2.49547767588999     -0.98082918323263
  C   -1.50890197357898      0.36354069118894      1.12647882101988
  H   -1.46543494548149     -0.14855704501555      2.09266478011764
  H   -2.55956569354607      0.41667203280502      0.83218226337382
  H   -1.15828737511383      1.38605455337040      1.26233325523981
  N   1.13833611639023     -0.68262345708922     -1.43449766901502
  H   0.71482154453478     -1.55298227763197     -1.72446484338961
  H   2.14467786611971     -0.72245131955268     -1.40221139473349
  C   1.32787768486431      1.12006395559399      0.15964041472462
  H   0.93956107614914      1.49636497249331      1.10275191838086
  H   1.33480357472741      1.93303605685283     -0.57204449678112
  H   2.36774448973668      0.82167246483876      0.32545948705178
