15
Coordinates from ORCA-job run
  C   -0.76274953126819      0.10559724904173     -0.14742916783977
  C   0.58562443734437     -0.00745028182098      0.00444345823575
  C   -1.29027839926783      1.02237188106342     -1.09920058339177
  N   -1.75582917606846      1.77559711252891     -1.87646000011377
  C   -1.72765919127563     -0.72745051177728      0.66055452864127
  H   -1.51504735298827     -1.79488224144622      0.54202076821993
  H   -2.75476043609977     -0.55446500164284      0.34051492638554
  H   -1.67153549085033     -0.48643261350373      1.72847715876132
  N   1.12992651694997     -0.93837111031570      0.87100454083003
  H   2.07187674497502     -0.74610146898569      1.17271736051151
  H   0.53457788729151     -1.25747021016467      1.61932825840607
  C   1.58868405761515      0.75905662041640     -0.80219536475648
  H   2.22812432354079      1.35961263796221     -0.14671788898323
  H   2.23229690292366      0.06522477610939     -1.35094994224870
  H   1.10674870717800      1.42616316253505     -1.51510805265768
