15

C	-0.560731	-0.100479	-1.412916
C	0.0	0.0	0.0
F	-1.894859	-0.349915	-1.381439
H	1.091497	0.0	0.0
N	-0.37895	1.288405	-2.071681
O	-1.380133	1.983353	-2.148938
O	0.758202	1.549504	-2.430702
C	0.098312	-1.06761	-2.291951
N	0.502743	-1.843418	-3.076421
N	-0.365899	-1.246879	0.762962
O	-0.521329	-1.134334	1.971146
O	-0.407564	-2.288496	0.116968
C	-0.523523	1.164438	0.692671
N	-0.91333	2.1277	1.241386
Cl	3.056412	0.0	0.0
