15

C	-0.563716	0.011332	-1.415305
C	0.0	0.0	0.0
F	-0.134821	1.150584	-2.025919
H	1.094286	0.0	0.0
N	-0.030164	-1.13571	-2.283349
O	0.913215	-1.783031	-1.862362
O	-0.585298	-1.230482	-3.373273
C	-2.031421	-0.026507	-1.462368
N	-3.205504	0.018769	-1.464131
N	-0.460454	-1.213078	0.752015
O	-1.046146	-2.085701	0.109478
O	-0.19666	-1.245176	1.945388
C	-0.467346	1.183806	0.706497
N	-0.847262	2.152536	1.252104
Cl	3.087978	0.0	0.0
