15

C	-0.557471	-0.100173	-1.415679
C	0.0	0.0	0.0
F	-1.890674	-0.355027	-1.387667
H	1.091574	0.0	0.0
N	-0.380474	1.290145	-2.071817
O	0.758489	1.563706	-2.414094
O	-1.387702	1.974292	-2.164085
C	0.10779	-1.061743	-2.295023
N	0.529866	-1.812991	-3.093187
N	-0.374499	-1.249917	0.755226
O	-0.394646	-2.28936	0.104587
O	-0.56874	-1.142449	1.95877
C	-0.526885	1.164548	0.690801
N	-0.925684	2.128205	1.232403
Cl	3.058677	0.0	0.0
