15

C	-0.511851	-0.012978	-1.428483
C	0.0	0.0	0.0
F	-1.868096	-0.076054	-1.477853
H	1.093845	0.0	0.0
N	-0.104413	1.348421	-2.064054
O	-1.018025	2.095693	-2.383331
O	1.100504	1.494797	-2.251329
C	0.07406	-1.056018	-2.273418
N	0.551644	-1.885886	-2.954567
N	-0.414627	-1.236795	0.725858
O	-0.267732	-1.224212	1.942797
O	-0.806814	-2.195096	0.053087
C	-0.501722	1.159988	0.715633
N	-0.899225	2.125577	1.253539
Cl	2.984581	0.0	0.0
