15

C	-0.426606	-0.003449	-1.465939
C	0.0	0.0	0.0
F	0.378697	-0.76018	-2.222481
H	1.096872	0.0	0.0
N	-1.864387	-0.56757	-1.619972
O	-2.070944	-1.29844	-2.572052
O	-2.663487	-0.179422	-0.779478
C	-0.490957	1.358711	-2.012747
N	-0.569383	2.428489	-2.492996
N	-0.383921	-1.289074	0.666878
O	-0.513944	-2.265065	-0.067003
O	-0.46901	-1.278088	1.88733
C	-0.513031	1.127768	0.752486
N	-0.891061	2.065099	1.351773
Cl	3.062202	0.0	0.0
