15

C	-0.465611	-0.015592	-1.449439
C	0.0	0.0	0.0
F	-0.042229	1.147326	-2.024282
H	1.094159	0.0	0.0
N	0.197917	-1.138652	-2.276336
O	1.356197	-1.38875	-1.995839
O	-0.460871	-1.607292	-3.195139
C	-1.914964	-0.132988	-1.606679
N	-3.086498	-0.163046	-1.697856
N	-0.434696	-1.251351	0.695505
O	-0.787224	-2.187554	-0.026051
O	-0.257176	-1.289842	1.906062
C	-0.519328	1.146308	0.705712
N	-0.945583	2.093974	1.26007
Cl	2.671064	0.0	0.0
