15

C	-0.387871	0.011864	-1.479422
C	0.0	0.0	0.0
Cl	-2.18794	-0.148477	-1.740546
H	1.10141	0.0	0.0
C	0.017747	1.270367	-2.110414
N	0.352047	2.287469	-2.594398
C	0.250946	-1.112953	-2.164721
N	0.737483	-2.027891	-2.717148
N	-0.472276	-1.223907	0.584926
H	0.19584	-1.528409	1.281433
H	-1.391125	-1.100915	0.997274
N	-0.560701	1.201006	0.64705
H	0.027611	1.983844	0.367517
H	-0.361919	1.076186	1.635132
F	2.593228	0.0	0.0
