15

C	-0.504457	0.005797	-1.458627
C	0.0	0.0	0.0
Cl	0.010785	-1.486326	-2.329717
H	1.10021	0.0	0.0
C	-1.968865	0.073501	-1.510044
N	-3.141405	0.148372	-1.533608
C	0.057555	1.161317	-2.161485
N	0.477091	2.091046	-2.745113
N	-0.584879	-1.166602	0.683354
H	-0.123292	-1.991	0.311304
H	-0.241633	-1.093866	1.639218
N	-0.472009	1.234918	0.580296
H	-1.322478	1.089344	1.113363
H	0.258744	1.621961	1.16292
F	2.609345	0.0	0.0
