18

C	-0.390955	-0.001935	-1.457071
C	0.0	0.0	0.0
Br	0.544928	1.347572	-2.459775
H	1.094181	0.0	0.0
N	-0.053435	-1.375283	-2.059661
O	-1.002154	-2.089638	-2.36729
O	1.127892	-1.647341	-2.148232
N	-1.898956	0.146626	-1.736684
O	-2.264086	0.466957	-2.860035
O	-2.641976	-0.116994	-0.794567
N	-0.399953	-1.270288	0.588434
H	0.334894	-1.547794	1.22753
H	-1.283858	-1.200229	1.07671
C	-0.451589	1.245654	0.748045
H	-0.122453	2.157953	0.245467
H	0.032157	1.226798	1.728534
H	-1.537132	1.283425	0.889222
F	2.586717	0.0	0.0
