18

C	-0.441521	-0.009204	-1.440914
C	0.0	0.0	0.0
Br	0.506609	-1.330292	-2.459701
H	1.094305	0.0	0.0
N	-1.946876	-0.251792	-1.663803
O	-2.663192	-0.249929	-0.668197
O	-2.332879	-0.387935	-2.81798
N	-0.221196	1.372915	-2.054129
O	-1.187877	2.132301	-2.000603
O	0.895584	1.650505	-2.457264
N	-0.389272	-1.275846	0.590929
H	0.403236	-1.596161	1.134191
H	-1.199002	-1.172472	1.189076
C	-0.414181	1.239336	0.784037
H	0.012458	1.123714	1.78385
H	0.031244	2.142814	0.361346
H	-1.496932	1.373252	0.865062
F	2.579836	0.0	0.0
