18

C	-0.492432	0.032913	-1.416829
C	0.0	0.0	0.0
Br	-2.385929	0.513338	-1.633586
H	1.093116	0.0	0.0
N	0.248226	1.018801	-2.318087
O	0.688344	2.031383	-1.794953
O	0.295822	0.738101	-3.5106
N	-0.243548	-1.337835	-2.051827
O	-1.188913	-2.038276	-2.371773
O	0.942842	-1.608878	-2.150078
N	-0.37575	-1.300123	0.558524
H	-1.116045	-1.207623	1.245576
H	0.45528	-1.667107	1.010509
C	-0.441695	1.167654	0.863995
H	-0.276447	2.125957	0.374302
H	-1.4987	1.091488	1.149521
H	0.175878	1.142295	1.765436
F	2.553806	0.0	0.0
