18

C	-0.357848	-0.052564	-1.476212
C	0.0	0.0	0.0
Br	0.222186	-1.686789	-2.315022
H	1.093174	0.0	0.0
N	-1.865711	0.099823	-1.654108
O	-2.561134	-0.895164	-1.469608
O	-2.283242	1.245698	-1.802929
N	0.227797	1.092637	-2.314882
O	-0.036397	1.066687	-3.513043
O	0.888057	1.940896	-1.735178
N	-0.376447	-1.205971	0.726932
H	-1.254601	-1.60066	0.403967
H	0.361808	-1.889071	0.597332
C	-0.601492	1.206634	0.704692
H	-0.107286	1.265311	1.675305
H	-0.435596	2.142258	0.174856
H	-1.67778	1.077091	0.877663
F	2.567261	0.0	0.0
