18

C	-0.493494	0.004493	-1.428061
C	0.0	0.0	0.0
Br	0.423619	-1.314893	-2.481063
H	1.097058	0.0	0.0
N	-2.002055	-0.227781	-1.48485
O	-2.451201	-1.305137	-1.84089
O	-2.656394	0.724751	-1.060821
N	-0.296733	1.319461	-2.173483
O	0.560822	2.08132	-1.750208
O	-0.984212	1.483314	-3.177832
N	-0.36432	-1.31903	0.546919
H	0.507791	-1.746269	0.834691
H	-0.942988	-1.210744	1.36799
C	-0.506797	1.129496	0.87933
H	0.103368	1.10526	1.785774
H	-0.379448	2.111419	0.426822
H	-1.56039	1.004206	1.152905
F	2.58002	0.0	0.0
