14
Coordinates from ORCA-job run
  C   0.60063991537061      0.43992933244541     -0.29628110653798
  C   -0.85760106147806      0.06783423384856     -0.56204570145764
  F   1.04494608744034      1.17872766706628     -1.34248022938590
  H   -0.89148555905533     -0.55381493769564     -1.46845492351644
  H   -1.35956841157264      1.01219926675223     -0.78964302967191
  N   0.90007890728714      1.11494464797953      0.91426101683408
  H   0.37542777697692      0.67164462507616      1.66009300879719
  H   0.59356007628654      2.07660288248180      0.82711035577637
  N   1.40260688833116     -0.86231262295480     -0.29426798048328
  O   1.26625973620146     -1.54929300743129      0.71505151905967
  O   2.05833809005149     -1.14283812676004     -1.28633863384587
  N   -1.46266188697200     -0.51162454988894      0.62679960487936
  H   -2.47008302052472     -0.45766926738777      0.56796481638538
  H   -1.20145753834290     -1.48333014353150      0.72823128316698
