14
Coordinates from ORCA-job run
  C   0.49844722485750      0.37936157196235     -0.21619444588750
  C   -0.94621919497220      0.09359145016221      0.14994376843390
  F   0.55550772113302      0.60417563794055     -1.55724848616161
  H   -1.50902362137793      1.01551284993104     -0.06850591981357
  H   -0.98550789881480     -0.08396270023427      1.22583094764800
  N   1.17115076851516      1.43882320427704      0.45170281823684
  H   0.65492896913314      2.30334657197272      0.35077086329611
  H   1.28629284173948      1.21518084085565      1.43129739997626
  N   1.30031320702341     -0.88184064932803      0.07555192031857
  O   1.39224020474861     -1.15193114783465      1.27057092502051
  O   1.76749557154413     -1.50784699787119     -0.85880115981444
  N   -1.39453175429860     -1.09694615846393     -0.54769266159671
  H   -1.51494090514258     -0.90409212494061     -1.53303459134419
  H   -2.27515313408834     -1.42237234842889     -0.17419137831217
