14
Coordinates from ORCA-job run
  C   0.50605231632717      0.43737763850975     -0.22090696528545
  C   -0.94539748220627      0.12533550651716      0.11862886877921
  F   0.58513934877729      0.87404981782421     -1.49721599590444
  H   -1.50904983901021      1.03005974455670     -0.12988821578033
  H   -1.01669486873509     -0.02856418555636      1.19911336177093
  N   1.20798696224527      1.36177924802642      0.60877729723073
  H   0.87533533557388      2.30165050606211      0.43797184695310
  H   1.10092902457001      1.12389384928480      1.58561838643483
  N   1.27851561336325     -0.87191618090923     -0.12787088700430
  O   1.19227870165446     -1.41848645589129      0.97158622346521
  O   1.91396257770923     -1.25902150333098     -1.09151710352148
  N   -1.40491217944242     -1.01231634193143     -0.65942695311435
  H   -2.28574109899882     -0.82938092398099     -1.11408516344190
  H   -1.49840441182776     -1.83546071918087     -0.08278470058178
