14
Coordinates from ORCA-job run
  C   0.55833467746385      0.24383195440055     -0.21135447012074
  C   -0.75477734589957     -0.52967685231180     -0.15828626362157
  F   0.62236305330517      0.84161432410242     -1.43646109658994
  H   -0.76781159864797     -1.10193500047917      0.77150252811823
  H   -0.77886220908926     -1.22980850318776     -1.00416758825775
  N   0.78247027645574      1.20398070889723      0.79853714671340
  H   1.13075812305329      0.75472926253298      1.63465728522034
  H   -0.10286785875948      1.65968464741154      0.99094257245008
  N   1.69053523884410     -0.77512738250088     -0.15136790770109
  O   1.94626470947136     -1.21879303909784      0.96633560947162
  O   2.20711821082129     -1.11581602988267     -1.20507223860764
  N   -1.83183030996498      0.45065550028534     -0.14194615405649
  H   -2.02163480442919      0.77368820473143     -1.08149952346144
  H   -2.67906016262435      0.04297220509864      0.22818010044297
