14
Coordinates from ORCA-job run
  C   0.54018542172445      0.27757746626261     -0.21339940619504
  C   -0.74294845286940     -0.54475500623214     -0.16514932222084
  F   0.53172652377949      0.96470623227698     -1.39263904591323
  H   -0.69932616545632     -1.17943930278486      0.72220797366021
  H   -0.77782234001725     -1.18560538543410     -1.05649006216842
  N   0.77493248284886      1.17056113137668      0.85461753693598
  H   1.16922467091220      0.67363855246721      1.64202704232074
  H   -0.11634605495325      1.57981599151420      1.11307500841343
  N   1.70756309584532     -0.70043482838937     -0.27384918684875
  O   2.01874362372604     -1.21916666168317      0.79652084421623
  O   2.19646834687685     -0.93918597799567     -1.36786083722723
  N   -1.84991308660650      0.39317297659169     -0.03910459465279
  H   -2.67036849081498     -0.07022216652452      0.32576309371030
  H   -2.08211957499551      0.77933697855447     -0.94471904403059
