14
Coordinates from ORCA-job run
  C   0.50724152911568      0.15363202840421     -0.14007961897652
  C   -0.79104569960974     -0.62212132959419     -0.08267265315940
  F   0.54749957461292      0.81832033098293     -1.37341699301825
  H   -0.84283301254207     -1.27166777761746     -0.96152810032952
  H   -0.77392240164746     -1.24969798059908      0.80778187340530
  N   0.67604333892482      0.99142288699336      0.95639972043734
  H   1.46783654791147      1.60974566256861      0.84470582297919
  H   -0.18942772245412      1.48729683452312      1.12982036551912
  N   1.71930223257201     -0.76030797118367     -0.21128004492334
  O   2.80647096360348     -0.19475501110969     -0.22950268154792
  O   1.52867402147357     -1.97222172201233     -0.25169358853327
  N   -1.87089995806825      0.35624506498666      0.02692398923293
  H   -2.07471654061375      0.74347153352543     -0.88554632300606
  H   -2.71022287327855     -0.08936254986791      0.37108823192038
