14
Coordinates from ORCA-job run
  C   0.39371668851350      0.48813987736729     -0.06087169118347
  C   -1.04271559815762      0.02279556176113      0.01158926183507
  F   0.67067732040165      0.94517708171253     -1.31042194350904
  H   -1.65879089256431      0.91277444215009     -0.17198626119613
  H   -1.23558298043149     -0.32935703925341      1.02621477447925
  N   0.70485379848584      1.50255939188357      0.87196044140292
  H   0.62310958214370      1.15077064075295      1.81655602796188
  H   1.64321201128876      1.85203394752795      0.71746609683049
  N   1.28150464707356     -0.76222263070604      0.13339404820558
  O   1.18371783330038     -1.26500921592860      1.25018023088559
  O   2.00450665602349     -1.13415204891525     -0.77634059754076
  N   -1.22339970258040     -1.07887547631027     -0.91722146157739
  H   -2.08368373283458     -1.57118283637864     -0.72290373650698
  H   -1.26112563066250     -0.73545169566330     -1.86761519008702
