14
Coordinates from ORCA-job run
  C   0.39829755037156      0.44958895274296     -0.19178393975273
  C   -1.03235838636680      0.07847232178077      0.12567270512914
  F   0.53549970619674      0.66800339632262     -1.52597914213120
  H   -1.63835136697816      0.95334723738424     -0.14391664664486
  H   -1.11266008445705     -0.08013182511563      1.20219922294958
  N   0.85121164344709      1.59309749923742      0.50344263358832
  H   1.77296726849403      1.86322879870008      0.18111198255547
  H   0.87644236109020      1.41457697977460      1.49853186065126
  N   1.26433866743385     -0.79219671404723      0.12015907206246
  O   1.28486238675543     -1.08942896188504      1.31208045008682
  O   1.86236545823405     -1.35161939061094     -0.78426356067576
  N   -1.35775265971351     -1.15724603183075     -0.56442372035757
  H   -1.50791898181497     -0.98172126673118     -1.54887693481409
  H   -2.19794356269247     -1.56797099572192     -0.18295398264685
