14
Coordinates from ORCA-job run
  C   0.39946754044462      0.50695744022495     -0.21314934362195
  C   -1.03991381515617      0.13430445139672      0.07955166314130
  F   0.54593476033120      0.90784839738239     -1.49541949896216
  H   -1.62644571955699      0.99268882139508     -0.25478349910866
  H   -1.16854284461526      0.04061122729911      1.16244419669355
  N   0.89106233284014      1.52339286711242      0.63708687199334
  H   1.82820613301210      1.79894258197440      0.36908740428221
  H   0.87399538763138      1.23373464696857      1.60540915824118
  N   1.24730080169731     -0.77934315625514     -0.08624312197969
  O   1.03778642087751     -1.42207799646861      0.94267849187881
  O   2.09196169184760     -1.02209106882771     -0.93413249603118
  N   -1.39692701540264     -1.05861092751802     -0.66862711676033
  H   -2.32050688706164     -0.98022843404261     -1.06593894903084
  H   -1.36437878688914     -1.87712885064156     -0.07796376073557
