14
Coordinates from ORCA-job run
  C   0.49633773251054      0.28352436457031     -0.21175863519820
  C   -0.73805813213558     -0.60243574837857     -0.24404875988525
  F   0.64804836343916      0.88035311411306     -1.46315058487975
  H   -0.76429284441792     -1.09101082328223     -1.22251572440022
  H   -0.62062183471461     -1.37588778847051      0.51931852745532
  N   0.48624429683548      1.21344385666849      0.80474066693856
  H   1.37653740114360      1.38530862652968      1.24184589124592
  H   -0.31368217294403      1.13815655758162      1.41235995627251
  N   1.74682698592185     -0.61859696855018     -0.15540029912523
  O   1.74815876945862     -1.58697791116562     -0.90700926394250
  O   2.65636280357275     -0.29192289004490      0.60148731432067
  N   -1.90777498230128      0.20091618789705      0.09297459634933
  H   -2.09378383334930      0.86167016505341     -0.65211191322255
  H   -2.71830255301927     -0.39754074252161      0.18326822807139
