14
Coordinates from ORCA-job run
  C   0.48790778307762      0.28137943497610     -0.23539379073717
  C   -0.73268502429525     -0.62377454316635     -0.20383153814195
  F   0.61050396003536      0.81956601142445     -1.51578712213058
  H   -0.58761869970025     -1.36152333886470      0.58949025160802
  H   -0.76977243308821     -1.15507413357914     -1.15946447666126
  N   0.47999216118661      1.25939960992864      0.73519709200235
  H   1.37543291664405      1.46455896905937      1.14696401129654
  H   -0.30572917148726      1.19766947284672      1.36264800054805
  N   1.75325041513605     -0.59889244477622     -0.15736666539599
  O   2.66890299169586     -0.22502987548936      0.56974111631429
  O   1.75808330254172     -1.60057726570707     -0.86406140973564
  N   -1.90869316344701      0.17473993969164      0.12174754984960
  H   -2.70674196511662     -0.43198513364163      0.25656911144416
  H   -2.12183307318267      0.79854329729755     -0.64745213026043
