14
Coordinates from ORCA-job run
  C   0.42178250406830      0.32972584941263     -0.22399427180273
  C   -0.75609267214571     -0.62570937958249     -0.26568097367166
  F   0.48967595980769      1.09176180116014     -1.33342585808960
  H   -0.67434266494826     -1.28088099263647      0.61482679367337
  H   -0.64391167147162     -1.24454832611182     -1.16018528195466
  N   0.39460557852579      1.17135370629991      0.91315205766969
  H   1.07272624435236      1.91727498930252      0.81380726543286
  H   0.59959054496882      0.63651010180724      1.74730275890242
  N   1.69423749782766     -0.56336772836782     -0.25056126231180
  O   1.98383795133380     -1.08037401863367      0.82757990873380
  O   2.27474161178947     -0.72393113625410     -1.31473828492197
  N   -1.97929172996361      0.14739683314658     -0.36773991421384
  H   -2.77185299103848     -0.47125621828230     -0.47479682731462
  H   -2.10470616310621      0.69604451873966      0.47245388986873
