14
Coordinates from ORCA-job run
  C   0.51552046009942      0.17242141185990     -0.06869014707132
  C   -0.77811759939940     -0.58978891030007     -0.25820007028376
  F   0.65050588348777      1.04981651474859     -1.15349756779033
  H   -0.82902831366401     -1.37020854677725      0.50037279298654
  H   -0.75492832437000     -1.06695244059773     -1.24246130626450
  N   0.59054066263189      0.79525304353592      1.17168549542175
  H   -0.28783446331747      1.26083245506507      1.36273390376231
  H   1.38725760152632      1.41349652562737      1.23999910556230
  N   1.73534445360402     -0.72355796643011     -0.20749279460292
  O   2.81663539495204     -0.17351811759985     -0.03323885786055
  O   1.55678112584587     -1.90561694299663     -0.48601967213953
  N   -1.86953252863780      0.36119557259170     -0.05814949674859
  H   -2.00378412644641      0.90846361241214     -0.89873368457696
  H   -2.73036022631225     -0.13283621113905      0.13269229960556
