14
Coordinates from ORCA-job run
  C   0.55511211449108      0.35408137578308     -0.26983406893904
  C   -0.90041139426767      0.05709141275491     -0.57570655797353
  F   1.07466988404383      1.06637586986411     -1.33523848076416
  H   -0.92765886934036     -0.65585428811269     -1.40754932914831
  H   -1.30859183590690      1.00573491805907     -0.93443046752557
  N   0.76096472509908      0.95928660825459      0.96419079948187
  H   1.59756549447759      1.51987696382389      1.01065806280271
  H   -0.06830091599608      1.37842356343660      1.35301826113462
  N   1.39718488527736     -0.93276426612718     -0.26987749566661
  O   2.61018449108471     -0.78883588951236     -0.32974648340040
  O   0.79603148063921     -1.99652821021589     -0.13578162399482
  N   -1.62551427561964     -0.33849008943457      0.62010779004451
  H   -2.61828976681140     -0.35475066983584      0.42681669596265
  H   -1.34194601717081     -1.27364729873771      0.88437289798608
