14
Coordinates from ORCA-job run
  C   0.45510285509101      0.32370607166993     -0.11363659546334
  C   -1.06732376517779      0.19226915007987      0.00303513658300
  F   0.83975014532151      0.28213221429426     -1.42972733512499
  H   -1.30206960511949     -0.12107791808045      1.02568589336580
  H   -1.45962934549510      1.20441499818929     -0.12950698454369
  N   0.93671327785254      1.48658451599992      0.48702308917453
  H   1.93422743917321      1.44781284804697      0.65103499699098
  H   0.45821595825261      1.68797293432186      1.35375119478814
  N   1.12421446716569     -0.96152990698751      0.46151575532622
  O   0.72709534564564     -2.03595540931382      0.02081183746967
  O   1.99441856224529     -0.81618314140046      1.31560704771215
  N   -1.73151991590970     -0.68687731909555     -0.93045419462557
  H   -1.36361096024988     -1.62425192776500     -0.83828346507790
  H   -1.54458445879555     -0.37901710995930     -1.87585637657500
