14
Coordinates from ORCA-job run
  C   0.54881072321975      0.23824030545740     -0.23844324227630
  C   -0.75149139948539     -0.54721479239027     -0.10667136747349
  F   0.57075717154882      0.76893262870829     -1.49565558633615
  H   -0.78746805884937     -1.29539369234235     -0.90991474698274
  H   -0.73281840337646     -1.06432884969850      0.85479409880807
  N   0.78756223443587      1.25572582859916      0.71053108641533
  H   1.16046355881201      0.85592205745031      1.56114607183504
  H   -0.09855252016439      1.71127645312753      0.90022282246810
  N   1.69634285919324     -0.76161028724430     -0.15483708686210
  O   2.18992185860586     -1.15221268522687     -1.20210115705133
  O   1.98705022249118     -1.14067946725485      0.97795565775066
  N   -1.84073964807491      0.41976863215656     -0.11820653285523
  H   -2.67472779884129      0.02171310059967      0.29057648017946
  H   -2.05411079951493      0.68986076805821     -1.06939649761930
