14
Coordinates from ORCA-job run
  C   0.45701665976098      0.49990199046810     -0.25627856624769
  C   -0.92228754533682      0.09343339114786     -0.74760600384969
  F   1.08211752749324      1.24188883691307     -1.22314508269623
  H   -1.45442536890401      1.03081827078454     -0.92474390276563
  H   -0.79147103019676     -0.40062683057510     -1.71013618112794
  N   0.45278668801468      1.22071991010509      0.94296247886892
  H   1.39465525715306      1.35829839522900      1.28820174788999
  H   -0.10991235506928      0.76031627675615      1.64385128680118
  N   1.38601068751445     -0.75148572704020     -0.16105493328246
  O   1.02473602509982     -1.79359952897654     -0.70251184150649
  O   2.44198188861988     -0.58439744861209      0.44185080731901
  N   -1.71105080742295     -0.75200490490196      0.11956302070025
  H   -2.00166616127945     -0.29594074770622      0.97146390111777
  H   -1.24949146544685     -1.62732188359171      0.31758326877902
