14
Coordinates from ORCA-job run
  C   0.51511742472574      0.18411722546881     -0.20581248204258
  C   -0.81131628583676     -0.58141865084768     -0.22446749896516
  F   0.59293578172275      0.90851041071632     -1.35456231765929
  H   -0.84403084216042     -1.23113377333948      0.65300556543898
  H   -0.81211795216912     -1.21681315167063     -1.11556724874184
  N   0.80219138881148      1.05156689346102      0.88281482184252
  H   0.09029811854679      1.76564477707012      0.95809800014277
  H   0.87640204892020      0.52961407498402      1.74534093323796
  N   1.62588443648538     -0.85432855948772     -0.22946072242833
  O   1.81190496010882     -1.43066302605339      0.84046737802494
  O   2.19309131422525     -1.07251608268789     -1.28908205466361
  N   -1.98776746529877      0.26105282710973     -0.24941091786660
  H   -2.10267119376610      0.77553636368954      0.61287271616643
  H   -1.95092173431524      0.90983067158723     -1.02423617248618
