14
Coordinates from ORCA-job run
  C   0.40290704033153      0.54376306549457     -0.06677097064957
  C   -1.04592455015932      0.09971700874634     -0.05762024631877
  F   0.71509734128472      1.15712268254329     -1.23003800513339
  H   -1.32764692188089     -0.17113861095773      0.96487754741657
  H   -1.61404741639194      0.98937005785785     -0.33745342238747
  N   0.72104103094980      1.41314359308944      1.00157793418317
  H   0.57954780645554      0.96363587542190      1.89595294929752
  H   1.67362714340952      1.74885315448885      0.92425928506437
  N   1.27941146734284     -0.72809728307433     -0.02505349891074
  O   0.95386997042963     -1.53513726745896      0.84594347402116
  O   2.24530608336238     -0.81148245001003     -0.76744197645987
  N   -1.23727502939981     -0.96105552934733     -1.03157223840497
  H   -2.10264626338252     -0.84338187415790     -1.53603506699304
  H   -1.24326770235149     -1.86531242263597     -0.58162576472498
