14
Coordinates from ORCA-job run
  C   0.52992223446217      0.26902473927649     -0.24639842500959
  C   -0.73821961581809     -0.56582680704169     -0.10455821687819
  F   0.47445951353511      0.87639949649866     -1.46717002600930
  H   -0.66179462214969     -1.13540142289833      0.82375091980684
  H   -0.78630061629203     -1.26922901853972     -0.94685993226346
  N   0.78333758652242      1.23557915995003      0.75168598025228
  H   1.19355289575948      0.79395761595133      1.56372041504559
  H   -0.10523062282192      1.65749126061619      0.99941299836165
  N   1.71036169490766     -0.69361509409835     -0.27679676832320
  O   2.17920625901961     -0.98980716611488     -1.36550707354023
  O   2.05308267539062     -1.14238724623995      0.81539211630214
  N   -1.85577821201655      0.36323575416393     -0.01442511875852
  H   -2.65849327022299     -0.08247769688748      0.40719178724830
  H   -2.11910590027580      0.68205642536378     -0.93743865623432
