14
Coordinates from ORCA-job run
  C   0.51572696068574      0.40397153958616     -0.17828699600348
  C   -0.85082590096727      0.04020152213735     -0.70454336285838
  F   1.18385551519287      1.15239524450221     -1.14338662791170
  H   -1.40547950894872      0.98263525699133     -0.83777655295145
  H   -0.72131521577019     -0.41712141549227     -1.68476919883860
  N   0.45820844429622      1.02936500380197      1.07543097458994
  H   1.36089577004720      1.04038433871503      1.53139191098975
  H   0.08995332763940      1.96652862493941      0.97926918662632
  N   1.36393142602720     -0.86040515184798     -0.05816695749571
  O   1.34835365021545     -1.60088436176454     -1.03096464547902
  O   2.04126375003101     -1.00402462789044      0.95428566720079
  N   -1.43757804236794     -0.92010740997695      0.21037866209987
  H   -1.68714228139680     -0.46919394217713      1.07980176304856
  H   -2.26084789468418     -1.34474462152414     -0.19266382301690
