14
Coordinates from ORCA-job run
  C   0.51851252056874      0.19978731203382     -0.18039660219203
  C   -0.79692459313450     -0.57860799785481     -0.27700529623165
  F   0.62162623908382      0.98084605202347     -1.28915248889972
  H   -0.76322865315250     -1.16926543474648     -1.19777351377475
  H   -0.84834473119861     -1.27146508490080      0.56585685909330
  N   0.76189304831357      1.01542181488048      0.95786882356986
  H   0.81639733048568      0.45228228583895      1.79560265601230
  H   0.03997957359948      1.71776508858904      1.04657026613518
  N   1.64249210216314     -0.82365301156505     -0.22077567034886
  O   2.24565923274990     -0.98174571003235     -1.27112628954909
  O   1.80159688830867     -1.45151390583203      0.82422180505036
  N   -1.98291107193830      0.25101792056884     -0.29718273951125
  H   -2.12699955416318      0.72456044235036      0.58406996966606
  H   -1.93074833168591      0.93557022864657     -1.03977777901970
