14
Coordinates from ORCA-job run
  C   0.39232074428783      0.25548566812415     -0.14697383500296
  C   -0.81603573193729     -0.67218824008698     -0.22140279876619
  F   0.43762497701114      1.05858914396938     -1.24116400023502
  H   -0.68990051668388     -1.31154750031431     -1.09957021220123
  H   -0.80745077606555     -1.31580032450177      0.66239186590601
  N   0.39060100866598      1.06848390239740      1.00801575991054
  H   1.12311158139990      1.76643035468038      0.95667556323920
  H   0.51883902334073      0.50293248323821      1.83674845922228
  N   1.64793774227246     -0.64144671576614     -0.23068253202629
  O   2.23737109789224     -0.74052862641028     -1.29797414830107
  O   1.91148511987950     -1.23877250053283      0.81228049257173
  N   -2.07945302907982      0.02626188305446     -0.31406385879573
  H   -2.15643760584336      0.68398095769215      0.45197672000792
  H   -2.10901363513987      0.55911951445619     -1.17425747552918
