14
Coordinates from ORCA-job run
  C   0.46396361006208      0.38941152835589      0.01489699010200
  C   -1.01719567394356      0.07368608742990     -0.03282468187859
  F   0.85967689193390      0.93536286990081     -1.18406977723722
  H   -1.31072533257478     -0.30063876428112      0.95238883476158
  H   -1.51402307621560      1.03599401126475     -0.19211911454428
  N   0.82602202577580      1.17285377907780      1.12738100595922
  H   0.25583585571126      2.00600613673466      1.18650819218240
  H   1.80526620756658      1.42790986351637      1.07589905593189
  N   1.28712838222522     -0.88861463309496      0.14607984865150
  O   2.49020622187024     -0.76625628907831     -0.04882261324300
  O   0.70634681282351     -1.91467388973572      0.48461977154316
  N   -1.31599635798256     -0.81133222022655     -1.14325941661519
  H   -2.21046420770129     -0.58785997726940     -1.55256715755164
  H   -1.32604135955082     -1.77184850259413     -0.83311093806185
