14
Coordinates from ORCA-job run
  C   0.52312491443565      0.39622132248334     -0.27434748984579
  C   -0.92686565114536      0.03621505995738     -0.53559351074624
  F   0.95906975053385      1.18304407534174     -1.32546787470780
  H   -0.95244048869441     -0.63624751791800     -1.40051573729191
  H   -1.39874288306978      0.97757441245113     -0.82947942268642
  N   0.74967286422928      0.95465582280388      0.97721867381802
  H   -0.08124201519147      1.31237754201865      1.41982386462097
  H   1.56207178305351      1.54974514693994      1.02159030465955
  N   1.43068369965802     -0.84163921936890     -0.37032698209472
  O   2.63160790387559     -0.62851542206895     -0.46076143120223
  O   0.89168880630875     -1.94229975777556     -0.27547214545142
  N   -1.57825506347838     -0.45584075231563      0.66661551772976
  H   -2.57612896316726     -0.51798332179815      0.51301297086156
  H   -1.23424465734800     -1.38530739075086      0.87270326233666
