14
Coordinates from ORCA-job run
  C   0.50184181561591      0.38763924895737     -0.19359979458348
  C   -0.94940974661908      0.08496510365556      0.13010518367222
  F   0.58940343559122      0.65307607288355     -1.52538066986677
  H   -1.51176932308907      1.01023261516612     -0.07472815902556
  H   -1.01275264820625     -0.12361505772460      1.19927119961123
  N   1.15381534432103      1.42967186757650      0.52115274427398
  H   1.24055462533119      1.18046995238710      1.49752708611148
  H   0.63842923188330      2.29562888514486      0.42805404392981
  N   1.30281422545931     -0.87837302444592      0.07939610734057
  O   1.36763338944238     -1.18365614256222      1.26755675308075
  O   1.79611334681606     -1.47337128783596     -0.86169054148046
  N   -1.37557344324803     -1.08703082633185     -0.61134821355103
  H   -2.26059569357856     -1.42954638640315     -0.26457628738168
  H   -1.47850455971941     -0.86609102046735     -1.59273945213104
