14
Coordinates from ORCA-job run
  C   0.50707986444811      0.40046694970985     -0.29713687464830
  C   -0.93793904635492     -0.00444972749690     -0.51681507909294
  F   0.90077646993666      1.16630807109418     -1.37985348827038
  H   -0.96301979681135     -0.70533525254637     -1.35890831642364
  H   -1.44008627094709      0.91424951097849     -0.83143711633708
  N   0.74457831912234      1.00152510123425      0.93257658893695
  H   -0.08613240433494      1.35292711855764      1.38063752374057
  H   1.54199816443991      1.61815032427727      0.94128224353870
  N   1.44452254290359     -0.81634127621452     -0.37543629233832
  O   2.63715222454806     -0.57585740384118     -0.50053293153586
  O   0.93665618738293     -1.92658355182046     -0.23234259512547
  N   -1.55236276328363     -0.47357669812093      0.71364124317631
  H   -2.55140698664064     -0.56371153218763      0.58339631552829
  H   -1.18181650440901     -1.38777163362368      0.94092877885119
