14
Coordinates from ORCA-job run
  C   0.50982130941276      0.52458444569942     -0.25121423486578
  C   -0.89167061260476      0.12185635651134     -0.64953442696530
  F   1.10639554199307      1.22085793845921     -1.26970226034922
  H   -1.43589499568120      1.05899024186512     -0.78153136045488
  H   -0.84387163058919     -0.39170667468062     -1.61306858868303
  N   0.53994409336696      1.25862967971226      0.93137408805308
  H   1.47845618438939      1.33538555340852      1.30108896693445
  H   -0.09150734612685      0.82978793978260      1.59722463296875
  N   1.40737270471717     -0.74884942965349     -0.16424082076125
  O   2.48420893963883     -0.60482850057821      0.40522102961795
  O   1.00287508511539     -1.78717899810632     -0.68328878286390
  N   -1.48943790445607     -0.64976729299650      0.43379825636765
  H   -2.49322943776201     -0.53564466531716      0.43919129667176
  H   -1.28446193141348     -1.63211659410618      0.30468220432971
