14
Coordinates from ORCA-job run
  C   0.41804209399360      0.30366616621529     -0.00173774668983
  C   -1.08767578690594      0.14952146370368     -0.14807402993007
  F   0.99303888013559      0.22113061997571     -1.27001543323030
  H   -1.44353684831074      1.09293241537201     -0.57720754889551
  H   -1.51726736612665      0.06121276393329      0.84956635176969
  N   0.79276369551485      1.44872559150575      0.70860823491564
  H   0.36763681164013      2.28124495812920      0.32526810358200
  H   1.79989123458731      1.54360597622225      0.75048746216804
  N   1.05478561024361     -0.86671960658339      0.74158232546664
  O   0.32351004863364     -1.75166881490306      1.17600032848650
  O   2.27478029827736     -0.81868691422874      0.85184134821363
  N   -1.55026764760425     -0.93857032770203     -0.97975681279381
  H   -1.09802561987890     -0.90339566351478     -1.88356388731692
  H   -1.32667540419961     -1.82199862812519     -0.54299869574570
