14
Coordinates from ORCA-job run
  C   0.60391696454129      0.44066287232090     -0.28028366368106
  C   -0.85096134406708      0.07966408134135     -0.56817283900178
  F   1.07748258985373      1.18147608582549     -1.31160786580703
  H   -1.35543066672882      1.02755583179113     -0.77394099595600
  H   -0.88244359226788     -0.52227616388566     -1.48774968764598
  N   0.88237595031803      1.10217786443936      0.94124670270440
  H   0.26722043447862      0.72852468861757      1.65505850179239
  H   0.70261289760331      2.09108994570712      0.82146552385698
  N   1.38781270953700     -0.87623254830316     -0.28240478785222
  O   1.29823036469159     -1.53810833715687      0.74788208688012
  O   1.97123950554876     -1.19673338812863     -1.30841165881848
  N   -1.45890978082511     -0.52860755440950      0.60512873245007
  H   -2.46647495714568     -0.49315255033094      0.53997042249814
  H   -1.17767107553776     -1.49504082782817      0.70281952858046
