14
Coordinates from ORCA-job run
  C   0.48721788423803      0.38978570584678     -0.15500697117887
  C   -0.88111294436750      0.14792712262294     -0.76610965239832
  F   1.24582400854221      1.12450903356428     -1.06568680605356
  H   -0.73675500696200     -0.26859393911620     -1.76231794630208
  H   -1.33235539175410      1.13835921131270     -0.89433018658592
  N   0.42752183562256      0.96363778770590      1.12034807488889
  H   -0.04147795374223      1.85899853316850      1.08888413956263
  H   1.34832072270116      1.05342209192843      1.53041800972847
  N   1.28634389697053     -0.90518400663280     -0.02241453660464
  O   0.93571414419570     -1.86292409150108     -0.70457944891256
  O   2.26387085240783     -0.86711674738312      0.71766156305009
  N   -1.77116721246132     -0.70131293569244     -0.00529790573341
  H   -1.78399471787194     -0.41292602279436      0.96438691545695
  H   -1.44895011751894     -1.65858174302952     -0.04695524891767
