14
Coordinates from ORCA-job run
  C   0.44511193684472      0.49151830839516     -0.30628286293438
  C   -0.94080579702245     -0.00778652092115     -0.71554763338422
  F   0.94977428264455      1.28334797232648     -1.28424771144405
  H   -0.81580799899291     -0.64991601097661     -1.59246976617458
  H   -1.47744413646488      0.88820600160923     -1.03629791642827
  N   0.44665764344325      1.20091283521327      0.91238119915140
  H   1.34997859856513      1.63225169651691      1.06895257894853
  H   0.23621008027565      0.57869335669012      1.68021678438380
  N   1.37643280112877     -0.74683280351799     -0.26096971602611
  O   1.25749778237841     -1.43742945664911      0.75292606615266
  O   2.09070638418396     -0.98910487692840     -1.22298162615674
  N   -1.71843674386417     -0.69280997028908      0.29084885205175
  H   -1.97789383059699     -0.06636731891694      1.04006428847773
  H   -1.22198100252305     -1.48668321255189      0.67240746338248
