16

C	0.0	0.0	0.0
C	-0.360084	0.159246	-1.518385
Cl	1.7901	0.0	0.0
H	0.505544	-0.163216	-2.107464
C	-0.263079	1.2776	0.852799
H	0.310702	2.118648	0.458402
H	-1.325269	1.51412	0.875435
H	0.089006	1.054678	1.8624
C	-0.857221	-1.093618	0.538789
N	-0.837044	-2.14914	1.103938
N	-0.527616	1.609141	-1.887862
O	-1.646133	2.095426	-1.922996
O	0.519854	2.220689	-2.092699
C	-1.536416	-0.582118	-1.978416
N	-2.297928	-1.175029	-2.653956
H	-2.069397	0.0	0.0
