17

C	-0.42247	-0.060995	-1.485734
C	0.0	0.0	0.0
Br	-2.357047	-0.302286	-1.63341
H	1.095105	0.0	0.0
N	-0.051018	1.264492	-2.148015
O	1.147689	1.37484	-2.386599
O	-0.914397	2.107875	-2.361699
C	0.288315	-1.178145	-2.214761
H	-0.054279	-2.135967	-1.827538
H	1.359052	-1.074684	-2.040555
H	0.070156	-1.138165	-3.283242
N	-0.380707	-1.153766	0.78868
H	-1.321077	-1.468429	0.574403
H	0.292112	-1.897677	0.644389
C	-0.508661	1.222453	0.624663
N	-0.927197	2.198428	1.125906
Cl	3.305128	0.0	0.0
