17

C	-0.536993	-0.016755	-1.446716
C	0.0	0.0	0.0
Br	0.256257	1.450918	-2.443703
H	1.091858	0.0	0.0
N	-0.040268	-1.289661	-2.146706
O	1.088318	-1.673449	-1.865819
O	-0.811015	-1.81304	-2.96591
C	-2.04287	0.070245	-1.550007
H	-2.384033	0.998477	-1.084988
H	-2.351921	0.051093	-2.593798
H	-2.482784	-0.79202	-1.043234
N	-0.449529	-1.227482	0.655726
H	-1.238503	-1.056748	1.274738
H	0.327505	-1.595866	1.198603
C	-0.476637	1.209614	0.677121
N	-0.906032	2.12866	1.271256
Cl	3.277982	0.0	0.0
