17

C	-0.426489	0.001462	-1.462121
C	0.0	0.0	0.0
Br	-2.398282	-0.046267	-1.575673
H	1.093021	0.0	0.0
N	0.078119	1.29182	-2.134848
O	1.233225	1.580115	-1.857096
O	-0.631764	1.884966	-2.940239
C	0.163011	-1.161556	-2.237615
H	-0.146291	-1.112959	-3.284637
H	-0.185671	-2.089228	-1.787281
H	1.251619	-1.108798	-2.148907
N	-0.453719	-1.221926	0.635292
H	-1.436471	-1.15174	0.883194
H	0.087292	-1.359516	1.48315
C	-0.446585	1.225845	0.666221
N	-0.815035	2.180831	1.247324
Cl	2.862487	0.0	0.0
