17

C	-0.383038	-0.002033	-1.481585
C	0.0	0.0	0.0
Br	0.170096	-1.680051	-2.286225
H	1.09594	0.0	0.0
N	-1.897585	0.053878	-1.663607
O	-2.600223	-0.086967	-0.662656
O	-2.3204	0.237866	-2.799996
C	0.250563	1.15863	-2.22278
H	-0.153576	2.102221	-1.84216
H	1.327319	1.124884	-2.03288
H	0.048536	1.087589	-3.290009
N	-0.43362	-1.169985	0.735565
H	-1.342492	-1.027735	1.151737
H	0.253397	-1.369708	1.450788
C	-0.429353	1.274816	0.601304
N	-0.759779	2.284702	1.105031
Cl	3.284115	0.0	0.0
