17

C	-0.409632	0.012453	-1.479227
C	0.0	0.0	0.0
Br	0.364794	-1.543821	-2.345693
H	1.101125	0.0	0.0
N	-1.934607	-0.086322	-1.55648
O	-2.47695	-1.135725	-1.871503
O	-2.515278	0.952721	-1.24166
C	0.071733	1.261109	-2.186856
H	-0.179135	1.219339	-3.248709
H	-0.389859	2.1399	-1.737415
H	1.156044	1.313781	-2.066299
N	-0.590298	-1.154985	0.688396
H	-0.413657	-1.040035	1.681476
H	-0.054167	-1.969211	0.402592
C	-0.436398	1.227104	0.670929
N	-0.732923	2.208225	1.245148
Cl	3.302619	0.0	0.0
