17

C	-0.454233	-0.043981	-1.462689
C	0.0	0.0	0.0
Br	-2.382568	-0.391006	-1.54717
H	1.093289	0.0	0.0
N	-0.212965	1.290599	-2.155047
O	0.590067	2.041046	-1.610723
O	-0.759358	1.484445	-3.236238
C	0.320656	-1.083466	-2.240172
H	0.164608	-2.053645	-1.771349
H	-0.006754	-1.100375	-3.280515
H	1.383519	-0.825372	-2.16537
N	-0.354249	-1.26614	0.639374
H	0.351459	-1.463247	1.339468
H	-1.261484	-1.209681	1.084653
C	-0.526406	1.166766	0.715896
N	-0.996184	2.036592	1.351952
Cl	3.277801	0.0	0.0
