17

C	-0.379859	-0.096069	-1.495828
C	0.0	0.0	0.0
Br	-2.315753	-0.359625	-1.711356
H	1.095025	0.0	0.0
N	-0.030661	1.228995	-2.172936
O	1.062959	1.267465	-2.728783
O	-0.819253	2.161879	-2.068623
C	0.36598	-1.223262	-2.172517
H	0.179764	-1.215887	-3.247098
H	1.433181	-1.098878	-1.973868
H	0.024744	-2.173761	-1.762886
N	-0.36637	-1.164905	0.784331
H	-1.262557	-1.545759	0.510552
H	0.362746	-1.860531	0.706061
C	-0.533558	1.208815	0.631859
N	-0.965894	2.155081	1.176998
Cl	3.252159	0.0	0.0
