11
Coordinates from ORCA-job run
  C   1.15743560038510     -0.32916936971647     -0.34405601504777
  C   -0.08349337644282     -0.30229374822805      0.51801423949948
  F   2.11576588602280     -1.16400261702805      0.22140984552475
  H   0.19710737160324      0.03726105716888      1.51901393164428
  H   1.59929235796504      0.66762017705643     -0.43275165272073
  H   0.93586896914230     -0.71161659087922     -1.34472302615645
  H   -0.45802417978519     -1.32487588437665      0.61842526967361
  C   -1.15731468415341      0.60600285795471     -0.07459207718855
  H   -1.45807678730865      0.26733584497256     -1.06937442333449
  H   -2.04937375413317      0.61966281456284      0.55384898781751
  H   -0.80018740329524      1.63507545851301     -0.16521507971162
