11
Coordinates from ORCA-job run
  C   1.19988942897755     -0.35375736885269     -0.24329646309251
  C   -0.10579497619262     -0.34514185913522      0.51811633854062
  F   0.97250484873193     -0.72707013111935     -1.56625889353432
  H   -0.51840677593499     -1.35867511409742      0.50902833124456
  H   1.90926589103075     -1.06925860897242      0.18052156105526
  H   1.65681526150109      0.64030090907395     -0.25956674250276
  H   0.11389323661119     -0.09824843410171      1.56298805739695
  C   -1.11491739483620      0.63929898370944     -0.06284101606269
  H   -0.72645544974311      1.66095653090253     -0.03324952294871
  H   -2.05224070603466      0.62065726521237      0.49675326391367
  H   -1.33455336411092      0.39293782738050     -1.10219491401006
