15

C	0.0	0.0	0.0
C	-0.255893	-0.193754	-1.512751
F	1.388509	0.0	0.0
H	0.157219	0.684767	-2.013763
H	-0.357263	-0.863748	0.560524
C	-0.50297	1.307379	0.540533
H	-0.176976	1.412419	1.578268
H	-0.087845	2.135125	-0.041616
H	-1.593794	1.309902	0.500465
C	-1.544907	-0.516718	-2.124586
N	-2.301395	-0.889745	-2.94474
N	0.65963	-1.326376	-1.956661
O	1.458754	-1.076005	-2.853332
O	0.520807	-2.402746	-1.391266
Cl	-3.556447	0.0	0.0
