15

C	0.0	0.0	0.0
C	-0.266065	-0.181413	-1.508944
F	1.388578	0.0	0.0
H	0.116845	0.709522	-2.013148
H	-0.35074	-0.868935	0.55618
C	-0.508031	1.299924	0.552542
H	-0.159869	1.40916	1.582128
H	-1.598936	1.28655	0.534841
H	-0.120222	2.13483	-0.038031
C	-1.556808	-0.532647	-2.105268
N	-2.302187	-0.882359	-2.947381
N	0.669951	-1.290753	-1.974827
O	1.465257	-1.01061	-2.866272
O	0.550122	-2.380089	-1.429301
Cl	-3.5646	0.0	0.0
