15

C	0.0	0.0	0.0
C	-0.540092	-0.078277	-1.426871
F	1.381367	0.0	0.0
H	-1.642517	-0.046864	-1.34049
H	-0.345025	-0.905721	0.505733
C	-0.461675	1.238156	0.734671
H	-1.546444	1.328556	0.676347
H	-0.160034	1.152741	1.780316
H	0.018077	2.121816	0.308972
C	-0.079754	-1.276584	-2.117863
N	0.23657	-2.264746	-2.667006
N	-0.086396	1.130832	-2.199937
O	-0.81912	2.114376	-2.15791
O	1.000176	1.067105	-2.773959
Cl	-3.58975	0.0	0.0
