15

C	0.0	0.0	0.0
C	-0.434088	0.172202	-1.466718
F	1.386402	0.0	0.0
H	0.499001	0.176172	-2.044307
H	-0.349385	-0.969711	0.347208
C	-0.416837	1.121471	0.923827
H	-1.501504	1.194296	0.956542
H	0.019543	2.062424	0.579179
H	-0.028371	0.903348	1.921382
C	-1.127594	1.411359	-1.794953
N	-1.485588	2.492913	-2.080943
N	-1.153573	-1.028227	-2.052458
O	-1.818419	-0.827645	-3.057597
O	-0.886193	-2.118902	-1.566725
Cl	-3.361665	0.0	0.0
