15

C	-0.485609	0.024835	-1.441659
C	0.0	0.0	0.0
Cl	0.114124	-1.344492	-2.37255
H	1.092778	0.0	0.0
H	-0.346039	0.931931	0.455961
C	-1.947076	0.054202	-1.532277
N	-3.121463	0.035692	-1.576715
N	-0.001745	1.350405	-2.088716
O	-0.51087	2.346333	-1.585819
O	0.807754	1.313865	-2.995012
C	-0.517092	-1.203437	0.775527
H	-1.610166	-1.239166	0.815175
H	-0.135964	-1.145536	1.796883
H	-0.146833	-2.133823	0.343411
Br	3.55162	0.0	0.0
