15

C	-0.500749	-0.010118	-1.439466
C	0.0	0.0	0.0
Cl	0.115369	-1.386249	-2.351297
H	1.094166	0.0	0.0
H	-0.350065	0.937604	0.442562
C	-1.96362	-0.008301	-1.517663
N	-3.138503	-0.048218	-1.535878
N	-0.028949	1.307205	-2.106109
O	0.899014	1.279931	-2.892842
O	-0.64352	2.293395	-1.717013
C	-0.509528	-1.195789	0.791403
H	-1.602128	-1.232511	0.840299
H	-0.141836	-2.129248	0.364141
H	-0.119045	-1.129256	1.808847
Br	3.586465	0.0	0.0
