15

C	-0.466171	-0.005768	-1.450149
C	0.0	0.0	0.0
Cl	0.226857	1.320259	-2.375796
H	1.093068	0.0	0.0
H	-0.339984	-0.940671	0.444014
C	-0.175258	-1.268256	-2.124714
N	0.039721	-2.284157	-2.672518
N	-2.008436	0.127202	-1.432531
O	-2.515147	1.207566	-1.690071
O	-2.595168	-0.882	-1.056938
C	-0.518509	1.194358	0.788522
H	-0.031375	1.195106	1.765525
H	-1.600963	1.158975	0.943357
H	-0.264887	2.133818	0.294821
Br	3.546994	0.0	0.0
