16

C	0.0	0.0	0.0
C	-0.563109	0.23598	-1.401259
Cl	1.790835	0.0	0.0
H	-1.653702	0.293504	-1.240509
H	-0.311515	-0.999455	0.309035
C	-0.488794	1.031435	0.99739
H	-1.580591	0.998038	1.004907
H	-0.144528	2.029147	0.713755
H	-0.10799	0.805219	1.995988
C	-0.268634	-0.905442	-2.374609
H	-0.733852	-0.70771	-3.342438
H	0.805526	-1.038114	-2.519512
H	-0.696342	-1.828194	-1.97572
C	-0.105952	1.514617	-1.945945
N	0.269057	2.525291	-2.413421
Cl	-3.721607	0.0	0.0
