16

C	0.0	0.0	0.0
C	-0.420543	0.193547	-1.469051
Cl	1.794263	0.0	0.0
H	0.109964	1.084079	-1.829947
H	-0.300327	-0.995193	0.334312
C	-0.561023	1.062092	0.918883
H	-0.300315	2.061094	0.559285
H	-0.161274	0.940641	1.927292
H	-1.649744	0.964766	0.959936
C	-1.926218	0.376096	-1.666194
H	-2.267535	1.313685	-1.231232
H	-2.160172	0.391088	-2.733051
H	-2.522742	-0.403357	-1.194203
C	0.063856	-0.934657	-2.271169
N	0.428349	-1.869576	-2.881444
Cl	-4.805948	0.0	0.0
