16

C	0.0	0.0	0.0
C	-0.418614	0.165794	-1.472798
Cl	1.793989	0.0	0.0
H	0.065411	1.082461	-1.83458
H	-0.298244	-0.991307	0.347989
C	-0.57151	1.071801	0.901081
H	-0.331561	2.067145	0.517846
H	-0.162522	0.978772	1.90861
H	-1.658275	0.956885	0.952698
C	-1.930315	0.263582	-1.679324
H	-2.476835	-0.56494	-1.232105
H	-2.337639	1.162081	-1.221614
H	-2.156123	0.291686	-2.747327
C	0.130299	-0.92806	-2.283466
N	0.541521	-1.774963	-2.985319
Cl	-4.782959	0.0	0.0
