14
Coordinates from ORCA-job run
  C   0.44966074391939     -0.20199617983911      0.08969390849593
  C   -0.82829320765163      0.25125873477734      0.15867891218086
  N   1.42883649278851      0.34776252149745      0.99787726515372
  O   1.14259748756409      1.43262098787898      1.55077324833563
  O   2.45978846267950     -0.27831067308605      1.19979552140614
  C   0.95711262315952     -1.11323631171289     -0.97320881960421
  H   1.70274027579329     -1.79683934401068     -0.56369995707214
  H   1.45186319085893     -0.53282646096032     -1.76019837999656
  H   0.14077011719192     -1.68834158842385     -1.40575828471023
  N   -1.39133362026758      1.21348158912973      0.96455516015909
  H   -2.31081889678121      1.50678284736864      0.66992432384892
  H   -0.75133989826103      1.94765513641365      1.25968278125195
  C   -1.78622587251057     -0.35499869111137     -0.74847330498868
  N   -2.66535789848313     -0.73201256792151     -1.43864237446042
