14
Coordinates from ORCA-job run
  C   0.44411504086368     -0.10962172960908     -0.00372065276134
  C   -0.84310936391597      0.35597503560305      0.10675886745866
  N   1.38091946684641      0.11409097553595      1.07269451723711
  O   1.03176883907497      0.79649243139156      2.04933552435059
  O   2.49798764151200     -0.39395181258213      0.95848287905448
  C   0.98077737029617     -0.90179149627459     -1.15086030823703
  H   0.22585575524971     -1.02517569063104     -1.92701947723211
  H   1.30774538448245     -1.88816301031521     -0.81534645299781
  H   1.85114668124323     -0.40311735945791     -1.58257992064623
  N   -1.39243303054803      1.14862633175682      1.07151962280996
  H   -2.39658558237019      1.15655046991238      1.14017212782347
  H   -0.85566814722593      1.25198277300325      1.91902230291138
  C   -1.73564498913118      0.06298586958611     -0.98479681696822
  N   -2.49587506637731     -0.16488278791916     -1.85366221280293
