14
Coordinates from ORCA-job run
  C   0.43755954281081     -0.13409443994439      0.00840651209403
  C   -0.87636049351945      0.23725026458911      0.15520474458752
  N   1.36284003674269      0.05753908589937      1.09978329842449
  O   2.54225814646223     -0.23467599420263      0.89284295857364
  O   0.94421464575040      0.50399428651607      2.17982507217189
  C   1.04052894050133     -0.70075445291817     -1.23629560442971
  H   0.28494222379314     -0.83504155805953     -2.00940692008336
  H   1.50659412842314     -1.66541712730053     -1.02516239105424
  H   1.82317523286095     -0.04114484209812     -1.61673951681399
  N   -1.52411369224457      0.68479373578519      1.26892066838316
  H   -2.39924936448504      1.16226112914419      1.13047459471737
  H   -0.94019795625524      0.97183056188201      2.03929869459943
  C   -1.73600251834113      0.05579646586513     -0.98547538994593
  N   -2.46518887249925     -0.06133711515771     -1.90167672122429
