14
Coordinates from ORCA-job run
  C   0.48272588980869     -0.01068924801049      0.15953281985297
  C   -0.79149615087332      0.42598557434799     -0.03196860690792
  N   1.54602638114118      0.94733259617765      0.42502138651880
  O   1.25229863909998      2.05252370268066      0.87817173357737
  O   2.69121227455053      0.56926257520596      0.16843618348781
  C   0.87777703378124     -1.44177102862640      0.01456472384067
  H   0.09515087922814     -2.08803395636268      0.42081137390029
  H   1.05423444277298     -1.71348994250415     -1.03172265534491
  H   1.80112236526774     -1.63401527652517      0.55775352747655
  N   -1.82800275869349     -0.44847161361834     -0.31991736494040
  H   -1.57343943256910     -1.28659173945891     -0.81880906199346
  H   -2.66571183116453     -0.01337621448357     -0.67310784943875
  C   -1.21479795507232      1.79126877142436      0.10340183621827
  N   -1.72709977727772      2.85006579975310      0.14583195375270
