14
Coordinates from ORCA-job run
  C   0.42338915737685     -0.17280489688070     -0.02652990542251
  C   -0.85294389653948      0.32742254825887     -0.10450372833067
  N   1.25203597790097     -0.20774986283640     -1.20959046250237
  O   2.39626565083830     -0.64621814863729     -1.07867465203375
  O   0.78857250863375      0.19401564025396     -2.28867827821200
  C   1.07473702605110     -0.69177167119682      1.21414109010360
  H   1.36053711115852     -1.73730232795354      1.08299798566891
  H   1.98605842713228     -0.13212415108799      1.42993361229332
  H   0.40417153546386     -0.61738105050460      2.06907620720667
  N   -1.55226717620193      0.73678636447724     -1.20148887063274
  H   -1.01708161675459      0.87854132617944     -2.04457721358859
  H   -2.36163808340995      1.31324828069567     -1.04243095107814
  C   -1.61895269679125      0.35214529338023      1.11495995436741
  N   -2.28288392485844      0.40319265585195      2.08536521216085
