14
Coordinates from ORCA-job run
  C   0.41864684980793     -0.17637421738541      0.05348358334755
  C   -0.84614157477900      0.35856037034352      0.07171519416796
  N   1.36100077005127      0.17668669352571      1.08920167819206
  O   2.50287420087595     -0.27603963572413      0.98618262028440
  O   0.99232132576003      0.90734960878501      2.02278974058360
  C   0.95692491131170     -1.08362142328553     -1.00500843457982
  H   1.80196995955373     -0.61835750642962     -1.51673917233068
  H   0.18876445590653     -1.32513577486267     -1.73866933089086
  H   1.32150503164156     -2.01105843674946     -0.55855400494146
  N   -1.44107317504962      1.12569260573187      1.03034031268631
  H   -2.25553026410463      1.64926192480239      0.75561178708264
  H   -0.82618446268405      1.52586893865480      1.72232909624371
  C   -1.71923819876877      0.00227790419193     -1.01648754813159
  N   -2.45683982952265     -0.25611105159840     -1.89619552171381
