14
Coordinates from ORCA-job run
  C   0.44799399780703     -0.09421150375846     -0.03126399360222
  C   -0.85449289267145      0.27881286593861      0.19487966348789
  N   1.40564595865447     -0.03567843784954      1.04649257840936
  O   1.03155557242159      0.34242081389162      2.16890300312473
  O   2.56276161723082     -0.37632322555289      0.79270059438922
  C   0.98837382008964     -0.59734673393048     -1.33059467298575
  H   0.19683849187354     -0.70618401600707     -2.07190995200976
  H   1.47641847850336     -1.56324938045771     -1.18413776499633
  H   1.74561550536141      0.08779311509026     -1.71963739364609
  N   -1.41361048722480      0.81864778317294      1.31479685903340
  H   -2.41708719850971      0.80367487000279      1.37915879855892
  H   -0.87255349365383      0.75162368689907      2.16295419069147
  C   -1.76020370195996      0.18467336161651     -0.92108493117182
  N   -2.53725566792210      0.10534680094434     -1.80125697928302
