14
Coordinates from ORCA-job run
  C   0.43977998671811     -0.10958773421224     -0.04752025742546
  C   -0.89430844201538      0.21275990498131     -0.07826297766853
  N   1.29507144862346      0.28471027261329     -1.14564333832433
  O   2.49198572054586      0.00962999374525     -1.04810894488016
  O   0.80009981718161      0.86361268595852     -2.12500711542927
  C   1.13475779039297     -0.82374752208512      1.06498395089201
  H   1.93732578101357     -0.20634507549592      1.47215825049785
  H   0.43953841393550     -1.07109749134958      1.86627086495328
  H   1.59006421001034     -1.74637269775728      0.69939441675106
  N   -1.62221169863928      0.78083754906579     -1.08333501855810
  H   -2.49977239989712      1.20108122442876     -0.82556728545515
  H   -1.08919752985434      1.21685344741923     -1.82017555859848
  C   -1.67806016260421     -0.16671990420962      1.06933561299464
  N   -2.34107293541111     -0.44561465310238      2.00047740025067
