14
Coordinates from ORCA-job run
  C   0.43674124230933     -0.12799713155047      0.02318039256652
  C   -0.83017275624312      0.39928648610855      0.01702526326646
  N   1.38005283519374      0.28087051497733      1.03930071378430
  O   1.05367038193077      1.15231681930665      1.86083542120721
  O   2.48140306900051     -0.27321242414280      1.03342097077092
  C   0.95286279138254     -1.15670582189250     -0.92937309681428
  H   0.19613456925470     -1.41863144394564     -1.66927422497283
  H   1.83834644996396     -0.78197832062841     -1.44518553838610
  H   1.25604130414508     -2.05541898302793     -0.38695274658313
  N   -1.34377581274878      1.40464720856433      0.78640068831608
  H   -0.80993073560070      1.63850977607584      1.60996198063001
  H   -2.34755562830718      1.45811146599563      0.84145753602612
  C   -1.73921506007565     -0.07806183014843     -0.98997488953889
  N   -2.52460265020521     -0.43973631569216     -1.78882247027240
