14
Coordinates from ORCA-job run
  C   0.44652773553198     -0.06334076961314     -0.06581279668441
  C   -0.87877444803197      0.28369078226441      0.03906322982677
  N   1.15668744585389      0.19023293573150     -1.29581217210894
  O   0.59309886842424      0.82126600044187     -2.20686370365338
  O   2.31249702980055     -0.23106154079640     -1.37365014118933
  C   1.23941571296524     -0.77380369938911      0.98200907399790
  H   1.56466337697364     -1.74938801893857      0.61340906054482
  H   0.65068346429062     -0.92753663890924      1.88704526656111
  H   2.13874963600328     -0.20857345552782      1.22851314871562
  N   -1.66343899618484      0.93451080458362     -0.86369661460054
  H   -1.27422136615193      1.10555348713154     -1.77706253868445
  H   -2.65973900859836      0.91152595388261     -0.73595250242140
  C   -1.53318785233734     -0.02576953457618      1.28146883492532
  N   -2.09396159853898     -0.26830630628509      2.28734185477094
