14
Coordinates from ORCA-job run
  C   0.50366993145340      0.01245233603914      0.06957757482664
  C   -0.79081502634755      0.42805415819416      0.01935728937392
  N   1.58263203225571      0.97906973295023     -0.06978522930493
  O   2.66864171276089      0.52810907871592     -0.44065688838949
  O   1.35856151662419      2.16200677718234      0.18287571007165
  C   0.88749016087507     -1.42586953251515      0.16618091496705
  H   0.20277680728269     -1.95023121258569      0.83794280880704
  H   0.87222119371113     -1.91961225691917     -0.81144238047864
  H   1.89809927356183     -1.51997104800446      0.55895585233315
  N   -1.84838837573773     -0.46275824638773      0.11424953421117
  H   -2.74293194106656     -0.09403181268727     -0.16776039093163
  H   -1.67482339486355     -1.39467991102961     -0.22825691359505
  C   -1.20331043044474      1.80065306967395     -0.06776854223149
  N   -1.71382346006481      2.85680886737335     -0.16346933965938
