14
Coordinates from ORCA-job run
  C   0.42536560898056     -0.15995734830780      0.05246629070464
  C   -0.85522992274239      0.33559896286524      0.07001415450943
  N   1.36948881785593      0.25826878889035      1.06294418912611
  O   0.99644388067206      1.03036062159479      1.96052207975753
  O   2.51697840110060     -0.18269920999391      0.97451795871464
  C   0.97789918002350     -1.09064778741122     -0.97766582500265
  H   1.36223324150366     -1.99631859431127     -0.50418997939513
  H   0.21284075650009     -1.36921078861325     -1.70154376790945
  H   1.81240330083145     -0.62501841659111     -1.50596468285100
  N   -1.46005451999205      1.12228614535748      1.00611782173251
  H   -0.84757903448139      1.57764399906661      1.66506563963821
  H   -2.29953108691809      1.60230053049595      0.72684541086007
  C   -1.73324941361961     -0.09347376530878     -0.98749236751351
  N   -2.47700920971432     -0.41013313773308     -1.84263692237140
