14
Coordinates from ORCA-job run
  C   0.40556829230478     -0.20289524420009      0.06892388323498
  C   -0.81245089782930      0.43112389916794      0.03212536403194
  N   1.36573643242852      0.15217671538171      1.08874875106511
  O   1.06088993777971      0.99882732802457      1.94341801399946
  O   2.45802573175689     -0.41778162042989      1.05189851296029
  C   0.87192374252667     -1.23461238855444     -0.90547860694634
  H   0.11282654920605     -1.42432869983078     -1.66325733106565
  H   1.09813625901682     -2.17048202654535     -0.38995423442429
  H   1.79061318129039     -0.91033206998725     -1.39862918984962
  N   -1.34613748010287      1.32043718383632      0.91683129651198
  H   -0.70644907393746      1.72710035002622      1.58220745363985
  H   -2.12620076249516      1.87258029493682      0.60088885129611
  C   -1.70903435673370      0.05958668403273     -1.03257755229065
  N   -2.46544755521134     -0.20240040585853     -1.89514521216319
