14
Coordinates from ORCA-job run
  C   0.50488905464005     -0.00526922030401      0.03513286267733
  C   -0.78413407832528      0.43020602789230      0.00764381842944
  N   1.59155741855417      0.96234205909184      0.17619781845018
  O   1.36212818242209      2.14074416768994     -0.09332271088623
  O   2.67766259562354      0.52680576276102      0.56130154478522
  C   0.86543608786947     -1.44813332467386     -0.06720159538068
  H   0.13248793960248     -2.05591538457693      0.47014395105741
  H   0.90748564213105     -1.78578874787568     -1.10864253399097
  H   1.84128286995186     -1.61689970254452      0.38406290049068
  N   -1.84618444101411     -0.45550322961015     -0.10625534075987
  H   -1.66173895224195     -1.28476094766875     -0.64985593169783
  H   -2.72765315967349     -0.02568185641706     -0.33969159904516
  C   -1.18835303866043      1.78555344895999      0.25314647595643
  N   -1.67786612087944      2.83230094727587      0.47834033991405
