14
Coordinates from ORCA-job run
  C   0.50818372054893      0.01136636044190      0.01309787468650
  C   -0.78169549246449      0.44410799276037      0.02492710074731
  N   1.57295038943913      0.91190595239483     -0.40302859061002
  O   1.38270126176765      2.12592201932814     -0.34617245638778
  O   2.61386791316178      0.37649560461955     -0.79060252544207
  C   0.89103083988024     -1.39736941598447      0.32044441821896
  H   0.78303373867016     -2.05073852297871     -0.55198182102459
  H   1.93307697463967     -1.44417669053965      0.63128556622021
  H   0.26900139920112     -1.78422189707749      1.13198807588083
  N   -1.82928099866481     -0.39124955329379      0.38011603526541
  H   -2.74608865201769     -0.05151993136559      0.13558332674484
  H   -1.70089606371638     -1.37139230435653      0.18277308968710
  C   -1.19225590533919      1.79143245715965     -0.25377864918689
  N   -1.70362912510612      2.82843792889180     -0.47365144479982
