14
Coordinates from ORCA-job run
  C   0.50831707570413      0.01001759733495      0.01789011848807
  C   -0.78028935820369      0.44630410219817      0.02642797216271
  N   1.57719406739665      0.91262514367116     -0.38321292553765
  O   2.61588660331272      0.37916541057627     -0.77933300983400
  O   1.39204916033272      2.12631789783213     -0.30582131619729
  C   0.88609363390790     -1.40269501679436      0.31238200781591
  H   1.92849992241712     -1.45696840488099      0.62067870254567
  H   0.77363465048765     -2.04779235318167     -0.56557966223037
  H   0.26397409712198     -1.79455798907589      1.12139390173839
  N   -1.83252516999123     -0.38778228548387      0.37132872806474
  H   -2.74635263018577     -0.04579672283902      0.11873448515929
  H   -1.70432344370123     -1.36729075231470      0.17073645294631
  C   -1.18595555598578      1.79551694780461     -0.25087586436613
  N   -1.69620305261315      2.83193642515319     -0.47574959075565
