14
Coordinates from ORCA-job run
  C   0.51314500396005     -0.00948540838115     -0.04176905733128
  C   -0.76229293084153      0.46500306372723     -0.01977693744068
  N   1.62873608853169      0.91683816386373     -0.17079771227335
  O   1.41451037946599      2.02233944262669     -0.66784200344702
  O   2.72679057684017      0.52336170950436      0.22619946764452
  C   0.81029807113302     -1.46001823260161      0.14262123794451
  H   1.88112829455821     -1.64148515156488      0.08953098712897
  H   0.44479654382528     -1.80622417369769      1.11594665186651
  H   0.31830739372382     -2.06278414449551     -0.62983438503534
  N   -1.83503495047348     -0.37921045845386      0.21295088339903
  H   -1.70133889251045     -1.34563303029804     -0.04167221126154
  H   -2.73508138519007     -0.01375069563060     -0.05666181289132
  C   -1.12299320341008      1.85273448482590     -0.07489164555479
  N   -1.57997098961263      2.93731443057543     -0.08600346274822
