14
Coordinates from ORCA-job run
  C   0.51462265076373      0.01481217412661      0.01335638220147
  C   -0.78155737863373      0.42801570195565     -0.04169828978128
  N   1.59487034551778      0.99347949374930     -0.02582690655369
  O   2.71158483483125      0.60901576613761      0.32493000390670
  O   1.33516475601269      2.13324985611153     -0.40925329979348
  C   0.87080856479250     -1.42659010313985      0.16083258629674
  H   1.92916658059156     -1.52683802989682      0.38775165167701
  H   0.66578986555624     -1.98340367998979     -0.76078636989730
  H   0.29576765530801     -1.88123628153456      0.97337685617268
  N   -1.82637706555015     -0.47586696816269      0.05114952990845
  H   -2.72683417602651     -0.12263273644349     -0.23178089451412
  H   -1.63559704172926     -1.40997074370551     -0.27662014703160
  C   -1.21066844047112      1.79762576791000     -0.07624714889402
  N   -1.73674115096300      2.85033978288203     -0.09018395369756
