14
Coordinates from ORCA-job run
  C   0.45618858771648     -0.04181602981979      0.00940515515567
  C   -0.88423788420198      0.22690668806022     -0.12064020297565
  N   1.35806719184681      0.27115611384938     -1.07409177985534
  O   2.53959218070792     -0.04848743409321     -0.93005218053068
  O   0.91793873425338      0.83917235584668     -2.08647361742738
  C   1.09259587191522     -0.70575711433336      1.18704670714695
  H   1.55021997716847     -1.65291706618199      0.89398609891930
  H   1.88737566835467     -0.07650465528633      1.59276198334177
  H   0.36000950590858     -0.89410429844338      1.97106713120172
  N   -1.53497732510777      0.89078919036131     -1.11863659442714
  H   -1.01357521218260      1.03522687428549     -1.96952807519414
  H   -2.53055620528463      0.75942782610692     -1.18431511495305
  C   -1.73416522821172     -0.14985849517321      0.97910285347021
  N   -2.46547586288281     -0.45423395517873      1.84936763612776
