14
Coordinates from ORCA-job run
  C   0.49891262418410      0.04074950015842     -0.06033330149420
  C   -0.82143963131434      0.36437423889198      0.02191974522964
  N   1.50969806555591      1.09231139275270     -0.10996950373020
  O   1.16197391898513      2.25822840159206      0.07168920104829
  O   2.66968074421801      0.73299153343980     -0.32200731773507
  C   0.99163819472066     -1.36689857117450     -0.07420240450954
  H   0.25419330987926     -2.03526983747540     -0.52201326275043
  H   1.90619748006631     -1.42405238111756     -0.65986064564280
  H   1.22251677984968     -1.71949480889794      0.93594207872093
  N   -1.80710425977005     -0.60557774435722      0.09044405822298
  H   -1.55550157521368     -1.46774257907334      0.54571447706498
  H   -2.72687168547143     -0.27174224977508      0.32954877220646
  C   -1.34782584788611      1.69837850033992     -0.08178807966270
  N   -1.95606811780346      2.70274460469616     -0.16408381696836
