14
Coordinates from ORCA-job run
  C   0.41212261434733     -0.18007701811160     -0.08573149738811
  C   -0.87040464659560      0.30079131220715      0.01031180212179
  N   1.06180788072554     -0.23473907626017     -1.37504437701973
  O   0.43147477572343      0.10741385902178     -2.38802352621588
  O   2.23025334218730     -0.62605136938109     -1.39770792343701
  C   1.25687146583579     -0.62125006429371      1.06505023107955
  H   1.60736943433940     -1.64347329828444      0.90720565188601
  H   2.14151292858088      0.01226000433909      1.15867596493070
  H   0.69461763094519     -0.58297962288890      1.99759859094569
  N   -1.73524016772158      0.64966692681476     -0.98540338660276
  H   -1.32924283919689      0.77557369382306     -1.90012121371112
  H   -2.51725147802999      1.22901485749945     -0.72902766680782
  C   -1.44288815525777      0.36777144516236      1.33002095817932
  N   -1.94100278588303      0.44607835035228      2.39319639203936
