14
Coordinates from ORCA-job run
  C   0.51410920269100      0.01029570259743     -0.02847824878445
  C   -0.78159127761133      0.42833797729596     -0.03535245434073
  N   1.58927819750149      0.96188044921418     -0.28315209329010
  O   2.73035332946206      0.61131504064620      0.02217297215774
  O   1.30155039862517      2.04606601748703     -0.78843827514087
  C   0.87854574868703     -1.40332653125199      0.27945491716192
  H   1.95089821259860     -1.48547872929905      0.43745878861164
  H   0.60350772108630     -2.07336490831885     -0.54326970662724
  H   0.36606407672028     -1.74165952675285      1.18524195038962
  N   -1.81719011285297     -0.44214432636813      0.25954191896602
  H   -1.65610117918872     -1.41345069145816      0.04280477594431
  H   -2.73674619906095     -0.11773345075597      0.00482522309099
  C   -1.20990989081981      1.78623601028781     -0.21956992872073
  N   -1.73376822783814      2.83402696667640     -0.33323983941814
