14
Coordinates from ORCA-job run
  C   0.51359446840838      0.00298831055570     -0.04182592261325
  C   -0.77718306177505      0.43614916020770     -0.03530416779410
  N   1.59271047310045      0.92929138668899     -0.36324769667658
  O   2.73734651059402      0.57662106931780     -0.07404695279941
  O   1.30472311351110      1.99596372663462     -0.90436452450155
  C   0.86934693652623     -1.40065371531390      0.31806249537736
  H   0.55933569600494     -2.10228280019973     -0.46494440689921
  H   1.94491637766074     -1.49103065906382      0.44649945844435
  H   0.38118812530432     -1.69116282680208      1.25345644986234
  N   -1.81461847376495     -0.40757459813447      0.32267478771571
  H   -1.66855464721447     -1.39007076539655      0.15084533323572
  H   -2.73706098268304     -0.08506394449129      0.07667534574413
  C   -1.19528468893051      1.78969461460045     -0.26874722701022
  N   -1.71145984674216      2.83713104139657     -0.41573297208530
