14

C	0.0	0.0	0.0
C	-0.318904	-0.026611	-1.523494
Br	1.901456	0.0	0.0
H	0.274841	0.7727	-1.989042
H	-1.377377	0.217785	-1.674615
N	-0.729205	1.065497	0.634679
O	-0.574223	1.077893	1.884217
O	-0.8826	2.136488	-0.075714
N	-0.335745	-1.439505	0.765627
O	0.595691	-2.081623	1.229511
O	-1.514965	-1.748556	0.900866
C	-0.047811	-1.309235	-2.161114
N	0.08781	-2.34572	-2.70065
H	-1.858402	0.0	0.0
