14

C	0.0	0.0	0.0
C	-0.349078	0.065942	-1.505041
Br	1.897431	0.0	0.0
H	-1.422402	0.256037	-1.573289
H	-0.14839	-0.928124	-1.9052
N	-0.494111	1.222353	0.717716
O	-0.607519	2.220402	-0.006109
O	-0.481147	1.240367	1.946287
N	-0.473174	-1.292315	0.604149
O	-0.482272	-1.392086	1.828925
O	-0.559255	-2.247205	-0.180296
C	0.384819	1.052356	-2.290544
N	0.896894	1.795219	-3.043215
H	-2.115666	0.0	0.0
