14

C	0.0	0.0	0.0
C	-0.379386	0.048975	-1.57645
Cl	1.785814	0.0	0.0
H	0.445994	0.635966	-1.993288
C	-0.448884	1.247672	0.608078
N	-0.682921	2.311502	1.048825
C	-0.471888	-1.18501	0.704515
N	-0.67522	-2.204458	1.254716
N	-1.594027	0.643743	-2.001889
H	-1.557788	1.643223	-1.844906
H	-2.416845	0.280255	-1.494437
C	-0.22469	-1.320295	-2.092979
N	-0.066777	-2.404063	-2.517965
Cl	-3.80604	0.0	0.0
