14

C	0.0	0.0	0.0
C	-0.446578	0.004745	-1.534321
Cl	1.78632	0.0	0.0
H	0.241187	0.727715	-1.989136
C	-0.443799	1.253565	0.607754
N	-0.715865	2.310166	1.044562
C	-0.485038	-1.164833	0.729668
N	-0.803	-2.138893	1.306081
N	-1.778814	0.376844	-1.847796
H	-1.92319	1.365015	-1.68152
H	-2.518461	-0.099588	-1.31132
C	-0.108427	-1.318821	-2.084291
N	0.175473	-2.36924	-2.525376
Cl	-4.22274	0.0	0.0
