14

C	0.0	0.0	0.0
C	-0.443669	-0.200551	-1.508729
Cl	1.782487	0.0	0.0
H	0.491912	-0.315557	-2.062109
C	-0.423094	1.293618	0.544576
N	-0.551099	2.35632	1.030252
C	-0.406971	-1.096045	0.883959
N	-0.606425	-1.996689	1.611966
N	-1.07794	0.990938	-2.017456
H	-2.007746	1.021506	-1.591711
H	-1.177677	0.902312	-3.021793
C	-1.144807	-1.48517	-1.716557
N	-1.552052	-2.536917	-2.045671
Cl	-3.130211	0.0	0.0
