13

C	-0.521435	0.030892	-1.45019
C	0.0	0.0	0.0
Cl	0.066562	-1.41165	-2.339601
H	1.093726	0.0	0.0
H	-0.349591	-0.939752	0.439582
C	-1.989532	-0.003493	-1.44219
N	-3.16178	-0.062348	-1.383281
C	-0.084718	1.241458	-2.150022
N	0.231562	2.208216	-2.737191
N	-0.51239	1.182296	0.674681
H	-1.147661	0.946294	1.422444
H	0.262482	1.710121	1.053242
Cl	3.378645	0.0	0.0
