13

C	-0.500624	-0.004684	-1.45124
C	0.0	0.0	0.0
Cl	-2.31569	-0.116096	-1.453451
H	1.093753	0.0	0.0
H	-0.345311	-0.93594	0.452936
C	-0.147646	1.233082	-2.147534
N	0.115335	2.227343	-2.71411
C	-0.006992	-1.16667	-2.193809
N	0.368464	-2.107862	-2.787662
N	-0.48225	1.195114	0.668016
H	0.300212	1.652848	1.114162
H	-1.179448	0.981741	1.364774
Cl	3.348901	0.0	0.0
