13

C	-0.49502	0.006515	-1.454257
C	0.0	0.0	0.0
Cl	-2.309232	-0.109653	-1.467334
H	1.094098	0.0	0.0
H	-0.346566	-0.939866	0.443578
C	-0.140824	1.251511	-2.137461
N	0.119748	2.245095	-2.706622
C	0.009613	-1.146965	-2.203739
N	0.407523	-2.078064	-2.800354
N	-0.485928	1.189449	0.674343
H	0.292987	1.643218	1.133054
H	-1.193139	0.971192	1.360334
Cl	3.355982	0.0	0.0
