13

C	-0.500042	0.016933	-1.452134
C	0.0	0.0	0.0
Cl	-2.314777	-0.092522	-1.457049
H	1.093665	0.0	0.0
H	-0.346369	-0.942565	0.438169
C	-0.14502	1.264539	-2.129912
N	0.118231	2.268832	-2.678776
C	-0.006557	-1.134077	-2.211094
N	0.375774	-2.061492	-2.822072
N	-0.481568	1.185338	0.684819
H	-1.186659	0.963761	1.37154
H	0.299457	1.63172	1.145049
Cl	3.349057	0.0	0.0
