17

C	0.0	0.0	0.0
C	-0.569995	0.102014	-1.443809
F	1.406416	0.0	0.0
H	-1.398098	0.808055	-1.402037
N	-0.399902	1.171938	0.717709
H	-0.165558	1.995623	0.174345
H	0.105013	1.207938	1.596394
N	-0.426335	-1.225675	0.595886
H	-0.090782	-1.241569	1.553903
H	-1.448541	-1.159221	0.63088
N	-1.011995	-1.09542	-2.062445
H	-1.992184	-1.190955	-1.809689
H	-0.508016	-1.885385	-1.681319
N	0.51481	0.771134	-2.26397
O	1.212167	0.086642	-3.000252
O	0.648766	1.985519	-2.089927
Cl	-3.612554	0.0	0.0
