17

C	0.0	0.0	0.0
C	-0.362744	0.150076	-1.491687
F	1.399513	0.0	0.0
H	-0.067491	1.153021	-1.799484
N	-0.476561	1.159455	0.689141
H	-0.242055	1.077361	1.673229
H	-1.494821	1.142182	0.620569
N	-0.502157	-1.217687	0.518857
H	-0.070895	-2.020424	0.082328
H	-0.456687	-1.258122	1.525929
N	-1.684745	-0.188161	-1.831532
H	-2.201265	-0.634387	-1.0778
H	-2.232241	0.599519	-2.140134
N	0.597392	-0.741983	-2.293841
O	0.618245	-1.944427	-2.040028
O	1.251694	-0.20469	-3.18469
Cl	-4.258674	0.0	0.0
