17

C	0.0	0.0	0.0
C	-0.47245	0.001711	-1.456556
F	1.40691	0.0	0.0
H	-1.566349	-0.011569	-1.450096
N	-0.433106	1.185586	0.661278
H	-0.079807	1.176006	1.612192
H	-1.455005	1.138094	0.692345
N	-0.45393	-1.209702	0.578871
H	-0.187462	-2.003677	0.012384
H	-0.141537	-1.303515	1.535237
N	0.09465	-1.110443	-2.150881
H	-0.341889	-1.219034	-3.056617
H	1.084654	-0.937632	-2.279911
N	-0.064107	1.327583	-2.088997
O	-0.887274	2.234181	-2.102046
O	1.072125	1.394585	-2.561856
Cl	-3.780006	0.0	0.0
