17

C	0.0	0.0	0.0
C	-0.42886	0.150839	-1.45585
F	1.43684	0.0	0.0
H	-1.520743	0.211459	-1.465982
N	-0.404646	1.177124	0.723971
H	0.388127	1.616954	1.197236
H	-1.206829	0.985311	1.317559
N	-0.446989	-1.256342	0.485266
H	-0.397022	-1.237025	1.499711
H	-1.432385	-1.348673	0.23487
N	0.046629	-0.903682	-2.290328
H	-0.228839	-0.743719	-3.248996
H	1.053156	-0.977861	-2.213145
N	0.021008	1.502939	-2.032488
O	-0.531768	1.794806	-3.097997
O	0.928138	2.159235	-1.524581
Cl	-3.569259	0.0	0.0
