20

C	-0.482253	-0.02568	-1.450798
C	0.0	0.0	0.0
Br	0.096262	1.68303	-2.324768
H	1.102816	0.0	0.0
C	0.216851	-1.132816	-2.224367
H	-0.166849	-2.104765	-1.896986
H	1.292637	-1.091764	-2.02978
H	0.026103	-1.0381	-3.296691
C	-1.994372	-0.061467	-1.598166
H	-2.285887	0.037592	-2.646824
H	-2.444929	0.741022	-1.014458
H	-2.372184	-1.019144	-1.22586
C	-0.425495	-1.254295	0.758354
H	-0.058279	-2.16497	0.281578
H	0.03688	-1.217541	1.750921
H	-1.510896	-1.311077	0.88821
N	-0.553179	1.16346	0.720565
H	-0.100762	1.985516	0.329226
H	-0.192546	1.095714	1.667923
H	3.053868	0.0	0.0
