20

C	-0.27988	0.000389	-1.496561
C	0.0	0.0	0.0
Br	-2.296379	0.073275	-1.850989
H	1.100607	0.0	0.0
C	0.315969	1.232083	-2.149614
H	0.176155	1.209763	-3.233505
H	-0.127798	2.149479	-1.76207
H	1.387994	1.222543	-1.907066
C	0.244827	-1.25556	-2.16391
H	0.15338	-1.187315	-3.251457
H	-0.28266	-2.148749	-1.829315
H	1.304848	-1.335423	-1.886393
C	-0.477293	-1.234578	0.746345
H	-0.176729	-1.120767	1.789294
H	-1.567479	-1.336713	0.706389
H	-0.017187	-2.147761	0.362286
N	-0.430219	1.201097	0.711555
H	-1.327785	1.517987	0.354538
H	0.256843	1.932469	0.562205
H	2.913374	0.0	0.0
