19

C	0.0	0.0	0.0
C	-0.252658	0.030944	-1.533722
Cl	1.898505	0.0	0.0
H	0.420813	0.805432	-1.926933
C	-0.567955	1.192455	0.720451
H	-0.252673	1.201139	1.768874
H	-1.659944	1.045365	0.652896
H	-0.255932	2.129823	0.254154
N	-0.477448	-1.184998	0.534915
H	-0.35279	-1.298682	1.526956
H	-0.238456	-1.984454	-0.032274
C	-1.686338	0.374407	-1.906559
H	-1.834551	0.134493	-2.969264
H	-2.462161	-0.082277	-1.240151
H	-1.84679	1.451406	-1.800353
N	0.118912	-1.291402	-2.068545
H	1.101695	-1.301326	-2.309739
H	-0.423067	-1.469502	-2.903243
F	-3.546969	0.0	0.0
