19

C	0.0	0.0	0.0
C	-0.468016	-0.064501	-1.466519
Cl	1.814481	0.0	0.0
H	-1.552468	0.070152	-1.328701
C	-0.435589	1.31867	0.619383
H	-0.047409	2.159627	0.047247
H	-0.078449	1.35717	1.650938
H	-1.529623	1.287042	0.58818
N	-0.538246	-1.055025	0.816217
H	-1.563485	-0.86854	0.705171
H	-0.333359	-1.950103	0.385496
C	-0.210968	-1.415709	-2.134227
H	-0.772584	-2.223074	-1.658119
H	0.85598	-1.669133	-2.12522
H	-0.539701	-1.367897	-3.177598
N	0.069373	1.059173	-2.242577
H	1.026159	0.847706	-2.510798
H	-0.474312	1.140966	-3.09454
F	-2.930623	0.0	0.0
