17
Coordinates from ORCA-job run
  C   -0.78906048953452     -0.55636741664058     -0.18563991326891
  C   0.68926016680896     -0.19895011650695     -0.33458089678929
  F   -1.01864847077919     -1.68665697895805     -0.96096906263285
  H   1.23438863052989     -1.14911963713304     -0.26911500527897
  N   -1.67019948835434      0.46729571950677     -0.49468686453479
  H   -2.32480135260395      0.69049727402201      0.23729052286741
  H   -1.20283201376143      1.25799446526244     -0.91244559088673
  N   -1.00769150949054     -1.06609560448910      1.24536172259423
  O   -1.74866287274882     -0.42464913386760      1.98563820652568
  O   -0.38182354159416     -2.07376349335799      1.55010272581503
  C   1.15862938084039      0.73717203629137      0.76753167477444
  H   1.11520756902771      0.25758197979427      1.74660535873166
  H   2.19880848977675      1.02226706892396      0.59066073265419
  H   0.55483358947932      1.64627617379880      0.78815731564051
  N   0.81500914726409      0.46806901869488     -1.62788718533669
  H   1.76518443442215      0.79481931524761     -1.75247175225017
  H   0.61239833071770     -0.18737067058878     -2.37455198862475
