17
Coordinates from ORCA-job run
  C   -0.80770477114761     -0.38778245127349      0.01327353465233
  C   0.67413277309085     -0.25782924329598     -0.30757978694917
  F   -1.31408461195998     -1.41846345617793     -0.80330596121879
  H   1.10825267358691     -1.25516672548292     -0.17813798551381
  N   -1.48719979443293      0.81390686149657     -0.10964943818719
  H   -2.48360905970240      0.71746270007507      0.02354543142221
  H   -1.24029775816472      1.24389115151039     -0.99222133654804
  N   -1.05971975690508     -0.95753944950592      1.40402107115488
  O   -2.16074760560492     -0.73241413044196      1.89447396451033
  O   -0.17942649370179     -1.65753623046221      1.89535041485804
  C   1.37684740426376      0.73399396955483      0.60322090060438
  H   1.30401544085741      0.43100380732029      1.64739739344840
  H   0.94267966737567      1.72735109051905      0.48857376975706
  H   2.43871787959479      0.77947560806585      0.34582547815411
  N   0.72339949948216      0.22005303453087     -1.69319485493684
  H   1.65966431027951      0.53999184396905     -1.90737587892697
  H   0.50308020308837     -0.54039838040155     -2.32521671628095
