17
Coordinates from ORCA-job run
  C   -0.71113230822255     -0.54546552772231      0.03128504386898
  C   0.64592243108478     -0.00104703499171     -0.40193538262734
  F   -0.56335775136249     -1.82563617708840      0.54250286084278
  H   0.87894022589334     -0.57637692930275     -1.31692032347857
  N   -1.63235985686103     -0.47807448670121     -1.03096049886931
  H   -1.41060161269747     -1.18480018533219     -1.72013596427351
  H   -2.58850439256472     -0.57185911800327     -0.71538146567920
  N   -1.26271502678916      0.26638835791439      1.20055180892742
  O   -2.29954547253630      0.89743261366456      1.03177253508177
  O   -0.61891897611787      0.19415852461015      2.23868482610462
  C   1.77991578630257     -0.21704939271962      0.58613435012107
  H   1.83093769341723     -1.25658082526556      0.90823583542958
  H   1.65389581778665      0.42033530883723      1.45929642932163
  H   2.72558924338004      0.03693583851451      0.09879037389912
  N   0.44863960457276      1.42049843489949     -0.63918715151504
  H   1.32827848156373      1.86163222383348     -0.87421278740096
  H   -0.20498388684952      1.56050837485319     -1.39952048975303
