17
Coordinates from ORCA-job run
  C   -0.63884520254889     -0.33828429464391      0.40069973912973
  C   0.47943352319426      0.29898625860100     -0.41008543568417
  F   -0.35438129205493     -0.26385640306331      1.72834931572330
  H   0.17408130518810      0.23461468467576     -1.45901154400953
  N   -0.89118941910070     -1.68920907594699      0.06869309087798
  H   -1.57740719903108     -2.08561250505094      0.70061997202095
  H   -1.22949778781984     -1.75524275262172     -0.88273450015342
  N   -1.89506254852740      0.53840394741862      0.19341231965161
  O   -2.37421608005821      1.13550398407311      1.14320055018806
  O   -2.32295104318789      0.51993829585822     -0.95799570007581
  C   1.78809958017749     -0.45621417802983     -0.19704906994977
  H   2.57699749554960      0.00736320673096     -0.79423916447169
  H   1.70002380940546     -1.50546286282152     -0.48083884890030
  H   2.08163726187106     -0.40957326556289      0.85422059888122
  N   0.50341943174524      1.71119003724123     -0.05414840335616
  H   0.91537243104522      1.82924829538988      0.86422793612881
  H   1.06448573415250      2.22920662775233     -0.71732085600080
