15

C	-0.005752	0.354852	-1.439391
C	0.04724	-0.051893	0.047008
Br	-1.932796	0.725306	-1.908377
H	1.14336	-0.18752	0.145812
N	0.804072	1.47228	-1.782856
H	0.504912	2.2619	-1.216213
H	1.750325	1.137444	-1.413205
C	0.374293	-0.806424	-2.254576
N	0.654146	-1.712093	-2.947704
N	-0.687206	-1.271393	0.321365
H	-1.674735	-1.077889	0.436914
H	-0.334309	-1.699105	1.167333
C	-0.349557	1.089412	0.885791
N	-0.683145	1.95759	1.605936
F	2.659853	0.198168	-0.568537
