15

C	-0.600844	0.068426	-1.484848
C	0.017576	0.110115	-0.059009
Br	0.617191	-1.116695	-2.605222
H	1.108853	0.211421	-0.111633
N	-1.910651	-0.434673	-1.386826
H	-1.839538	-1.245022	-0.767718
H	-2.299576	-0.679088	-2.287703
C	-0.563976	1.357427	-2.172765
N	-0.557402	2.396748	-2.722281
N	-0.24045	-1.164424	0.595265
H	0.787916	-1.471552	0.74787
H	-0.671091	-0.995838	1.496855
C	-0.571859	1.250933	0.650598
N	-1.038717	2.141356	1.259974
F	2.247398	-1.227162	0.690754
