15

C	-0.003987	0.063668	-1.48027
C	0.046391	-0.041338	0.057544
Br	-1.930861	0.332883	-2.015353
H	1.138769	-0.155414	0.184247
N	0.805948	1.09129	-2.036592
H	0.505869	1.977234	-1.637653
H	1.752229	0.836258	-1.606134
C	0.37743	-1.235788	-2.049015
N	0.65883	-2.260598	-2.548574
N	-0.689799	-1.182058	0.566276
H	-0.339921	-1.433081	1.48156
H	-1.677521	-0.969349	0.637889
C	-0.350917	1.243767	0.653197
N	-0.68233	2.238368	1.186569
F	2.660917	0.086593	-0.59402
