14

C	0.0	0.0	0.0
C	-0.329225	0.046166	-1.512859
F	1.382723	0.0	0.0
H	-0.018444	-0.944692	-1.886781
C	-0.421051	1.208572	0.722756
N	-0.556866	2.210087	1.321672
C	-0.45471	-1.235443	0.646751
N	-0.516648	-2.291731	1.161537
N	0.449274	1.138955	-2.100319
H	1.405638	0.84537	-2.241593
H	0.03475	1.37122	-2.992933
C	-1.741747	0.239725	-1.890221
N	-2.522222	0.457001	-2.753521
F	-2.326502	0.0	0.0
