14

C	0.0	0.0	0.0
C	-0.376042	-0.192684	-1.537678
F	1.374946	0.0	0.0
H	0.600683	-0.116057	-2.033567
C	-0.444062	1.32434	0.452297
N	-0.538261	2.452264	0.770048
C	-0.451564	-1.057027	0.909635
N	-0.547015	-1.94552	1.674353
N	-1.277468	0.755399	-2.146028
H	-2.075594	0.728486	-1.490732
H	-0.852091	1.676036	-2.109269
C	-0.862173	-1.559232	-1.768564
N	-1.17647	-2.665048	-2.008163
F	-2.355861	0.0	0.0
