14

C	0.0	0.0	0.0
C	-0.44207	0.115779	-1.468141
F	1.379401	0.0	0.0
H	-1.550665	0.095817	-1.335807
C	-0.449558	1.144354	0.809458
N	-0.5806	2.078964	1.509759
C	-0.454977	-1.26896	0.588273
N	-0.549614	-2.310898	1.123285
N	0.059574	-1.038521	-2.19682
H	-0.499126	-1.183709	-3.026101
H	1.023999	-0.90319	-2.472308
C	0.017558	1.394432	-2.027984
N	0.374858	2.373738	-2.573005
F	-2.460839	0.0	0.0
