14

C	0.0	0.0	0.0
C	-0.383866	0.13737	-1.535735
F	1.38199	0.0	0.0
H	0.590763	0.270271	-2.023336
C	-0.438892	1.185679	0.744859
N	-0.531254	2.204884	1.324317
C	-0.432439	-1.238626	0.657596
N	-0.559341	-2.27253	1.202155
N	-1.248813	1.226734	-1.922429
H	-2.049849	1.086564	-1.287905
H	-0.792256	2.102144	-1.689416
C	-0.935928	-1.126988	-2.043105
N	-1.289875	-2.110885	-2.576608
F	-2.34438	0.0	0.0
