14

C	0.0	0.0	0.0
C	-0.477655	0.331347	-1.45873
F	1.367636	0.0	0.0
H	-1.165411	1.175371	-1.363629
C	-0.428736	1.052332	0.938646
N	-0.567682	1.922985	1.714871
C	-0.442532	-1.321396	0.472592
N	-0.54412	-2.400045	0.927158
N	-1.123492	-0.838982	-2.042622
H	-1.973898	-0.863463	-1.458323
H	-1.385211	-0.611987	-2.997057
C	0.667975	0.736919	-2.290505
N	1.516535	1.090266	-3.020896
F	-2.417139	0.0	0.0
