14

C	0.0	0.0	0.0
C	-0.575189	0.128657	-1.42979
Cl	1.789258	0.0	0.0
H	-1.66378	0.238538	-1.239067
C	-0.404097	1.141433	0.830501
N	-0.623634	2.06599	1.52195
C	-0.42616	-1.268205	0.59835
N	-0.638999	-2.32465	1.066267
N	-0.322101	-1.080755	-2.181206
H	0.375638	-0.953695	-2.900268
H	-1.186552	-1.417823	-2.581915
C	-0.067543	1.342363	-2.070666
N	0.358633	2.279235	-2.639318
Br	-3.574516	0.0	0.0
