14

C	0.0	0.0	0.0
C	-0.524483	0.300406	-1.445405
Cl	1.78585	0.0	0.0
H	-1.595254	0.518002	-1.286725
C	-0.403223	1.048143	0.9432
N	-0.590255	1.901226	1.729909
C	-0.435619	-1.32818	0.437964
N	-0.581628	-2.448524	0.763874
N	-0.427226	-0.80215	-2.364948
H	0.464936	-1.276326	-2.298875
H	-1.176915	-1.452394	-2.159386
C	0.144018	1.494892	-1.968523
N	0.659356	2.454039	-2.409754
Br	-3.446123	0.0	0.0
