14

C	0.0	0.0	0.0
C	-0.529445	0.355596	-1.430138
Cl	1.786094	0.0	0.0
H	-1.603186	0.550935	-1.263404
C	-0.411174	1.009295	0.980701
N	-0.629478	1.839766	1.784064
C	-0.44117	-1.34293	0.380846
N	-0.599687	-2.474413	0.659713
N	-0.414703	-0.704618	-2.397782
H	0.493869	-1.151831	-2.364024
H	-1.142216	-1.385677	-2.211799
C	0.121674	1.579874	-1.901802
N	0.629949	2.561106	-2.30075
Br	-3.461479	0.0	0.0
