14

C	0.0	0.0	0.0
C	-0.44477	0.054347	-1.521202
Cl	1.782487	0.0	0.0
H	0.490551	0.041778	-2.086099
C	-0.41941	1.186297	0.752337
N	-0.567575	2.144686	1.416852
C	-0.41021	-1.227909	0.689604
N	-0.582989	-2.244069	1.255238
N	-1.088516	1.311609	-1.822776
H	-2.027383	1.262719	-1.417086
H	-1.172301	1.392256	-2.83117
C	-1.137677	-1.181057	-1.945856
N	-1.524833	-2.147434	-2.494331
Br	-3.358082	0.0	0.0
