16

C	-0.396202	-0.073513	-1.467742
C	0.0	0.0	0.0
F	0.226606	0.90394	-2.159891
H	1.095783	0.0	0.0
C	-0.152238	-1.37254	-2.103322
N	0.029809	-2.395163	-2.651751
N	-1.908241	0.201192	-1.592724
O	-2.640446	-0.709784	-1.223017
O	-2.244883	1.309818	-1.985708
C	-0.48264	-1.156313	0.742391
N	-0.849675	-2.068249	1.385539
C	-0.457766	1.31308	0.639013
H	-0.133697	2.151031	0.021567
H	-1.54161	1.355107	0.775618
H	0.027231	1.403609	1.611897
Cl	3.205195	0.0	0.0
