16

C	-0.396243	-0.03801	-1.469183
C	0.0	0.0	0.0
F	0.213468	0.966979	-2.133386
H	1.096875	0.0	0.0
C	-0.133551	-1.315986	-2.139147
N	0.052846	-2.339871	-2.684339
N	-1.911751	0.219802	-1.587905
O	-2.632403	-0.711112	-1.248214
O	-2.262687	1.335401	-1.946168
C	-0.479937	-1.175093	0.71372
N	-0.839487	-2.110439	1.326982
C	-0.459971	1.296821	0.670268
H	-1.543708	1.334988	0.806816
H	-0.136293	2.149628	0.073624
H	0.024383	1.363953	1.645339
Cl	3.208781	0.0	0.0
