16

C	-0.525864	0.045782	-1.424165
C	0.0	0.0	0.0
F	-0.06789	-1.00561	-2.152206
H	1.094813	0.0	0.0
C	-2.000096	0.052902	-1.47295
N	-3.17439	0.045296	-1.448124
N	-0.058562	1.293223	-2.192491
O	-0.582599	1.439446	-3.294884
O	0.806724	1.992878	-1.687871
C	-0.451447	-1.27044	0.560539
N	-0.83781	-2.265318	1.04998
C	-0.502229	1.151961	0.873844
H	-0.114409	2.096377	0.501112
H	-0.114912	1.012851	1.881352
H	-1.59417	1.183105	0.922187
Cl	3.251525	0.0	0.0
