16

C	-0.380133	0.0061	-1.469811
C	0.0	0.0	0.0
F	-0.087954	1.214017	-2.032222
H	1.097474	0.0	0.0
C	0.280229	-1.065208	-2.224988
N	0.79601	-1.923974	-2.837495
N	-1.900583	-0.150795	-1.707608
O	-2.633728	0.441313	-0.923843
O	-2.257297	-0.784661	-2.695652
C	-0.483753	-1.236746	0.598835
N	-0.908735	-2.216897	1.088514
C	-0.403702	1.237979	0.80766
H	-0.111906	2.133429	0.257981
H	0.174631	1.217433	1.733353
H	-1.467114	1.27293	1.034227
Cl	3.201538	0.0	0.0
