16

C	-0.462715	-0.029421	-1.453678
C	0.0	0.0	0.0
F	-0.085326	-1.184496	-2.049648
H	1.097707	0.0	0.0
C	-1.921146	0.124231	-1.589626
N	-3.091725	0.191418	-1.672213
N	0.169484	1.122299	-2.249615
O	-0.286728	2.234896	-2.001955
O	1.037716	0.83158	-3.050812
C	-0.488151	-1.228408	0.62295
N	-0.905908	-2.190499	1.152558
C	-0.465683	1.22013	0.80056
H	-0.127176	1.089353	1.829498
H	-1.553248	1.330377	0.794568
H	-0.004852	2.124282	0.407531
Cl	3.217508	0.0	0.0
