16

C	-0.391387	0.221423	-1.455262
C	0.0	0.0	0.0
F	0.178492	1.356628	-1.914142
H	1.097286	0.0	0.0
C	-0.070356	-0.897541	-2.347326
N	0.171908	-1.767714	-3.09844
N	-1.915665	0.434063	-1.540028
O	-2.598123	-0.580411	-1.457872
O	-2.31239	1.588572	-1.613347
C	-0.480889	-1.286654	0.485906
N	-0.872381	-2.299291	0.935372
C	-0.466467	1.14992	0.895369
H	-1.5506	1.159924	1.033638
H	-0.144332	2.098969	0.466477
H	0.015549	1.036756	1.867102
Cl	3.200541	0.0	0.0
