16

C	-0.522633	0.053356	-1.424816
C	0.0	0.0	0.0
F	-1.891082	0.069676	-1.44163
H	1.09499	0.0	0.0
C	-0.038759	1.223118	-2.166714
N	0.30576	2.195693	-2.727785
N	-0.097281	-1.202042	-2.201296
O	0.979298	-1.142192	-2.775144
O	-0.871851	-2.14806	-2.149201
C	-0.497733	-1.203331	0.660649
N	-0.925363	-2.134621	1.235146
C	-0.433017	1.251723	0.77548
H	0.011221	2.136662	0.315881
H	-1.519386	1.355694	0.812202
H	-0.043131	1.177176	1.791422
Cl	3.209508	0.0	0.0
