15

C	-0.489405	-0.005766	-1.40837
C	0.0	0.0	0.0
Cl	-0.229387	1.590293	-2.102715
H	1.088053	0.0	0.0
H	-0.285618	0.92182	0.499211
N	0.235661	-1.038421	-2.284648
O	0.176879	-0.873655	-3.497034
O	0.814887	-1.93485	-1.688804
N	-2.000487	-0.310785	-1.535629
O	-2.361123	-1.182208	-2.312481
O	-2.712403	0.382933	-0.822878
N	-0.504218	-1.095327	0.806569
O	-0.242557	-1.031741	2.012289
O	-1.103064	-2.033584	0.260426
H	2.504818	0.0	0.0
