15

C	-0.499958	0.003474	-1.403313
C	0.0	0.0	0.0
Cl	0.179803	1.392981	-2.228779
H	1.090769	0.0	0.0
H	-0.312009	0.908136	0.511338
N	-0.120923	-1.260841	-2.203354
O	-1.038758	-1.98186	-2.571197
O	1.071497	-1.414984	-2.394015
N	-2.042409	0.082397	-1.532949
O	-2.680178	-0.232557	-0.536065
O	-2.502133	0.424698	-2.613139
N	-0.411047	-1.132911	0.78711
O	-0.433608	-2.241619	0.232538
O	-0.569227	-0.948599	2.000374
H	2.477178	0.0	0.0
