15

C	-0.497959	0.022806	-1.404219
C	0.0	0.0	0.0
Cl	0.367164	1.104675	-2.453185
H	1.08616	0.0	0.0
H	-0.307165	-0.899269	0.523791
N	-0.393188	-1.38769	-2.00981
O	-0.900161	-1.519783	-3.117136
O	0.187759	-2.248164	-1.365464
N	-2.0279	0.281664	-1.491131
O	-2.67513	-0.494848	-0.797553
O	-2.471036	1.16169	-2.202484
N	-0.454393	1.141875	0.755085
O	-0.840137	2.152437	0.145996
O	-0.331788	1.067135	1.98312
H	2.473618	0.0	0.0
