15

C	-0.602729	-0.101381	-1.35609
C	0.0	0.0	0.0
Cl	-2.346034	-0.443225	-1.358311
H	1.089908	0.0	0.0
H	-0.253779	-0.885163	0.577663
N	-0.300823	1.105415	-2.252078
O	0.880388	1.411958	-2.257458
O	-1.204524	1.603062	-2.901037
N	0.044028	-1.290183	-2.086084
O	0.251526	-2.283382	-1.406211
O	0.246535	-1.165685	-3.286281
N	-0.461701	1.152461	0.719804
O	-0.363332	1.104431	1.955621
O	-0.808096	2.164157	0.082054
H	2.439506	0.0	0.0
