15

C	-0.529477	-0.016107	-1.391816
C	0.0	0.0	0.0
Cl	0.185384	-1.369901	-2.245219
H	1.090782	0.0	0.0
H	-0.30785	-0.907796	0.516056
N	-2.072011	-0.165308	-1.473835
O	-2.549375	-0.529989	-2.539178
O	-2.691267	0.12463	-0.457858
N	-0.241233	1.270584	-2.192193
O	-1.203951	1.970568	-2.474784
O	0.927267	1.466045	-2.467325
N	-0.408935	1.129312	0.79723
O	-0.40028	2.246201	0.259074
O	-0.594505	0.931263	2.004073
H	2.482565	0.0	0.0
