15

C	-0.500944	0.000143	-1.403706
C	0.0	0.0	0.0
Cl	0.420551	-0.993595	-2.496531
H	1.089125	0.0	0.0
H	-0.312276	0.886858	0.540725
N	-2.00864	-0.344286	-1.504474
O	-2.69682	0.344712	-0.75785
O	-2.399163	-1.198385	-2.276896
N	-0.47167	1.428115	-1.96093
O	0.15574	2.270775	-1.334224
O	-1.067037	1.592545	-3.020353
N	-0.440307	-1.159055	0.733754
O	-0.357171	-1.091776	1.966085
O	-0.762695	-2.180663	0.104184
H	2.466385	0.0	0.0
