15

C	-0.615637	0.104146	-1.350357
C	0.0	0.0	0.0
Cl	-2.372221	0.379514	-1.328672
H	1.087738	0.0	0.0
H	-0.265284	0.873882	0.589164
N	-0.026418	1.325688	-2.07124
O	0.234953	2.291104	-1.369313
O	0.076382	1.253169	-3.288915
N	-0.278785	-1.07534	-2.272064
O	0.920713	-1.289203	-2.346349
O	-1.178029	-1.644003	-2.86522
N	-0.441659	-1.168256	0.708411
O	-0.700912	-2.198017	0.058889
O	-0.402548	-1.113364	1.947139
H	2.443889	0.0	0.0
