16

C	-0.448366	0.038655	-1.457463
C	0.0	0.0	0.0
Cl	0.221293	1.447739	-2.287359
H	1.09521	0.0	0.0
N	0.081345	-1.241957	-2.13601
O	1.21373	-1.228315	-2.581023
O	-0.691339	-2.19767	-2.107353
C	-1.902241	0.042555	-1.626592
N	-3.074895	0.078443	-1.70735
C	-0.413571	-1.280704	0.726068
H	-0.134559	-1.165926	1.775036
H	0.160584	-2.120005	0.332303
H	-1.483551	-1.504077	0.663195
C	-0.521597	1.173463	0.670404
N	-0.950029	2.106107	1.246435
F	2.490235	0.0	0.0
