16

C	-0.395108	0.02749	-1.46666
C	0.0	0.0	0.0
Cl	0.441891	-1.242914	-2.368673
H	1.096122	0.0	0.0
N	-1.919299	-0.203844	-1.595629
O	-2.32249	-1.357793	-1.654494
O	-2.609512	0.808993	-1.511203
C	-0.106062	1.312114	-2.096806
N	0.134761	2.344732	-2.603131
C	-0.410558	-1.274249	0.732742
H	0.091116	-1.259013	1.701372
H	-0.046805	-2.143762	0.185054
H	-1.488891	-1.368637	0.886369
C	-0.499245	1.178664	0.678584
N	-0.88182	2.109364	1.289272
F	2.478109	0.0	0.0
