16

C	-0.373847	-0.135975	-1.454376
C	0.0	0.0	0.0
Cl	-2.130219	-0.409372	-1.7529
H	1.092313	0.0	0.0
N	0.018223	1.160292	-2.193034
O	-0.758653	2.099648	-2.110417
O	1.107424	1.147704	-2.750129
C	0.353644	-1.238269	-2.080717
N	0.851683	-2.175717	-2.584386
C	-0.330544	-1.259361	0.801085
H	0.071594	-1.125324	1.806523
H	-1.402004	-1.470383	0.86223
H	0.19219	-2.109395	0.357387
C	-0.564721	1.181631	0.611281
N	-0.993234	2.116724	1.183851
F	2.471694	0.0	0.0
