16

C	-0.328125	-0.076134	-1.466506
C	0.0	0.0	0.0
Cl	-2.096723	-0.033486	-1.846017
H	1.095817	0.0	0.0
N	0.294983	1.128148	-2.199191
O	1.17847	0.888302	-3.010627
O	-0.146683	2.225141	-1.89266
C	0.212712	-1.29241	-2.067921
N	0.569448	-2.309757	-2.535218
C	-0.375862	-1.279818	0.746865
H	-0.098416	-1.151118	1.794095
H	0.216456	-2.107614	0.354443
H	-1.441819	-1.520728	0.687577
C	-0.565878	1.161157	0.649607
N	-1.012142	2.04776	1.281634
F	2.473789	0.0	0.0
