16

C	-0.45846	0.097614	-1.450107
C	0.0	0.0	0.0
Cl	0.307822	1.466825	-2.264635
H	1.106965	0.0	0.0
N	-0.033552	-1.207183	-2.152767
O	-0.892723	-2.086351	-2.182457
O	1.111867	-1.289756	-2.555924
C	-1.909472	0.215461	-1.605227
N	-3.074725	0.358518	-1.676943
C	-0.424365	-1.301415	0.680475
H	0.140087	-2.131776	0.253351
H	-1.496852	-1.512351	0.61399
H	-0.140017	-1.22962	1.731784
C	-0.497757	1.15752	0.714383
N	-0.887461	2.082009	1.330048
F	2.487916	0.0	0.0
