16

C	-0.226516	-0.034225	-1.487708
C	0.0	0.0	0.0
Cl	-1.940331	0.227827	-2.012443
H	1.094324	0.0	0.0
N	0.578172	1.087593	-2.175188
O	0.515957	2.187587	-1.654845
O	1.168707	0.792826	-3.205513
C	0.211109	-1.304559	-2.060027
N	0.485223	-2.361263	-2.494858
C	-0.443526	-1.285187	0.696632
H	0.172667	-2.114731	0.347084
H	-0.263391	-1.171727	1.767163
H	-1.50275	-1.517176	0.541328
C	-0.582096	1.158496	0.63993
N	-1.07397	2.030474	1.258153
F	2.478354	0.0	0.0
