17

C	0.0	0.0	0.0
C	-0.459014	0.10525	-1.491341
Br	1.982478	0.0	0.0
H	-1.529337	0.333043	-1.433627
N	-0.410028	1.070957	0.863367
H	-1.430375	1.010694	0.910608
H	-0.177769	1.965572	0.446248
N	-0.462767	-1.273035	0.472802
H	-1.485843	-1.239664	0.390831
H	-0.253337	-1.30402	1.466116
N	-0.246669	-1.036209	-2.320239
H	-0.911868	-1.741398	-2.030501
H	0.684321	-1.404104	-2.159775
N	0.182748	1.305191	-2.134467
O	1.041207	1.123732	-2.990908
O	-0.182745	2.412364	-1.730443
Br	-3.680093	0.0	0.0
