17

C	0.0	0.0	0.0
C	-0.51673	0.044865	-1.458982
Br	1.94225	0.0	0.0
H	-1.570687	0.333336	-1.38209
N	-0.41167	1.20974	0.660257
H	-1.429683	1.261474	0.590502
H	-0.161756	1.152466	1.641512
N	-0.446084	-1.267722	0.553421
H	-0.115976	-1.336464	1.510001
H	-1.470867	-1.211633	0.573615
N	-0.284428	-1.177456	-2.155082
H	-1.104523	-1.408087	-2.699877
H	-0.147525	-1.90545	-1.461501
N	0.123705	1.209818	-2.208683
O	-0.410887	2.306902	-2.052116
O	1.09473	0.995347	-2.924162
Br	-3.712133	0.0	0.0
