17

C	0.0	0.0	0.0
C	-0.307119	-0.009116	-1.550204
Br	2.152515	0.0	0.0
H	0.505962	-0.570771	-2.006763
N	-0.287079	1.175085	0.637355
H	-0.180824	1.118792	1.639457
H	0.296629	1.912742	0.277613
N	-0.301823	-1.150761	0.648763
H	-0.088519	-1.172364	1.633095
H	0.048917	-1.972276	0.190029
N	-0.320549	1.330522	-2.002393
H	-1.207202	1.745315	-1.725104
H	-0.259702	1.341468	-3.011168
N	-1.487795	-0.853412	-2.215056
O	-1.459043	-2.075983	-1.982244
O	-2.133751	-0.24657	-3.108263
Br	-3.299075	0.0	0.0
