17

C	-0.391741	0.059664	-1.485248
C	0.0	0.0	0.0
Br	0.079133	-1.656772	-2.348765
H	1.096512	0.0	0.0
C	-1.832955	0.223303	-1.672483
N	-2.983897	0.430775	-1.801407
C	0.393141	1.162204	-2.193706
H	1.44815	1.031941	-1.931211
H	0.24791	1.102303	-3.27345
H	0.049737	2.140437	-1.84812
C	-0.547538	-1.167356	0.667996
N	-1.003453	-2.079198	1.25546
C	-0.401296	1.271735	0.755999
H	-1.470613	1.494413	0.684292
H	-0.139713	1.140597	1.808417
H	0.182449	2.116912	0.386982
H	2.721082	0.0	0.0
