17

C	-0.343377	0.000813	-1.476423
C	0.0	0.0	0.0
Br	-2.342776	-0.078487	-1.792944
H	1.099091	0.0	0.0
C	0.064806	1.260544	-2.094496
N	0.396333	2.273951	-2.58963
C	0.313793	-1.174015	-2.179119
H	1.385673	-1.10972	-1.94349
H	0.150941	-1.133952	-3.257351
H	-0.084566	-2.11005	-1.784949
C	-0.443451	-1.233759	0.623091
N	-0.778232	-2.229401	1.15318
C	-0.449022	1.221989	0.790079
H	-0.033831	2.122552	0.331084
H	-1.537333	1.308274	0.844151
H	-0.041111	1.150514	1.800994
H	2.636162	0.0	0.0
