17

C	-0.490398	0.004735	-1.463015
C	0.0	0.0	0.0
Br	0.297459	1.55201	-2.420481
H	1.095746	0.0	0.0
C	-0.019903	-1.187703	-2.176073
N	0.252575	-2.179868	-2.746777
C	-2.007305	0.103765	-1.612512
H	-2.289665	0.085983	-2.667146
H	-2.36588	1.033177	-1.168706
H	-2.472046	-0.744455	-1.101431
C	-0.470658	-1.222631	0.630005
N	-0.864035	-2.196032	1.163561
C	-0.424835	1.213926	0.82291
H	-0.10319	2.127847	0.321469
H	-1.499543	1.259659	1.019545
H	0.106373	1.16375	1.777226
H	2.657936	0.0	0.0
