16

C	-0.403316	0.041376	-1.464877
C	0.0	0.0	0.0
Br	-2.372171	0.11074	-1.634354
H	1.095576	0.0	0.0
H	-0.363419	-0.923014	0.454164
C	0.216314	1.199113	-2.198639
H	-0.086504	2.109222	-1.682029
H	-0.090133	1.229531	-3.242223
H	1.303112	1.092847	-2.126707
N	-0.027552	-1.279248	-2.127868
O	-0.187445	-2.303168	-1.470504
O	0.380794	-1.238723	-3.284487
N	-0.447811	1.217192	0.673549
H	-1.235402	1.022748	1.275146
H	0.314773	1.558657	1.243265
Cl	3.417365	0.0	0.0
