16

C	-0.431545	-0.029239	-1.45699
C	0.0	0.0	0.0
Br	-0.199297	1.743334	-2.251879
H	1.094296	0.0	0.0
H	-0.373738	0.901489	0.489007
C	0.321862	-1.057389	-2.261084
H	0.023837	-1.049944	-3.30795
H	1.387522	-0.83951	-2.158395
H	0.11735	-2.037267	-1.826681
N	-1.933959	-0.284102	-1.520247
O	-2.623228	0.211051	-0.631935
O	-2.369558	-0.949921	-2.455548
N	-0.4613	-1.243775	0.619973
H	0.292445	-1.628706	1.173983
H	-1.255189	-1.067705	1.219757
Cl	3.457851	0.0	0.0
