16

C	-0.429924	0.171193	-1.44527
C	0.0	0.0	0.0
Br	0.044584	1.945273	-2.070888
H	1.094105	0.0	0.0
H	-0.33579	-0.99594	0.297713
C	0.219362	-0.867476	-2.339154
H	-0.089209	-1.862515	-2.009591
H	1.302422	-0.775143	-2.231164
H	-0.065662	-0.722563	-3.382901
N	-1.949509	-0.001208	-1.530976
O	-2.652891	0.832404	-2.084132
O	-2.360956	-1.052738	-1.041687
N	-0.621499	1.001991	0.864744
H	-0.77984	0.588753	1.775549
H	0.042646	1.756715	1.000557
Cl	3.484662	0.0	0.0
