16

C	-0.40515	-0.100627	-1.459755
C	0.0	0.0	0.0
Br	-0.126304	1.589743	-2.383042
H	1.091528	0.0	0.0
H	-0.307177	-0.951401	0.457347
C	0.365933	-1.195981	-2.166288
H	0.132232	-2.157909	-1.696828
H	1.431771	-0.996616	-2.034078
H	0.106081	-1.240515	-3.222903
N	-1.898312	-0.398602	-1.59525
O	-2.576801	-0.403323	-0.568101
O	-2.331186	-0.64745	-2.716573
N	-0.520123	1.164223	0.6904
H	0.204245	1.537441	1.287951
H	-1.325171	0.919807	1.246903
Cl	3.466786	0.0	0.0
