16

C	-0.624114	-0.044205	-1.393719
C	0.0	0.0	0.0
Br	0.097018	-1.566674	-2.363957
H	1.100017	0.0	0.0
H	-0.329814	-0.916449	0.499427
C	-2.134706	-0.136174	-1.362624
H	-2.551254	-0.085706	-2.369755
H	-2.412546	-1.091457	-0.91318
H	-2.522573	0.679855	-0.756816
N	-0.212165	1.226578	-2.134345
O	-1.034766	2.145565	-2.112901
O	0.902847	1.284824	-2.630064
N	-0.544414	1.157386	0.730791
H	-0.455315	0.958876	1.720448
H	0.071689	1.945083	0.557583
Cl	3.50185	0.0	0.0
