16
Coordinates from ORCA-job run
  C   -0.74688808389667      0.16363919475543      0.19537673228772
  C   0.70842513345601     -0.17492372799339     -0.15956661836410
  Br  -1.15827357140147     -0.20112755416086      2.04557745789392
  H   0.82701885566503      0.00230292933458     -1.23006008085005
  N   -1.55618203884769     -0.85141272120552     -0.70199206235356
  O   -1.44215108299818     -0.59656003634261     -1.89864836028812
  O   -2.20999833037623     -1.75005694252167     -0.20642294400554
  N   -1.05629186332123      1.50112910875009     -0.09594932218633
  H   -0.81879959409300      1.74595786890275     -1.04907217340685
  H   -2.01624817045928      1.73622246010115      0.11768446618817
  N   1.02195105548529     -1.51072836092076      0.16248123716838
  H   1.89949787451506     -1.79811036446926     -0.24826301850312
  H   1.04876645935284     -1.65551555415354      1.16385598859171
  N   1.61120927625410      0.87828989244657      0.48522776169599
  O   1.82003376941226      1.89241591215931     -0.17412022415477
  O   2.06793031125314      0.61847789531773      1.59389116028656
