16
Coordinates from ORCA-job run
  C   -0.77723289908890      0.11635114782904      0.11017133552083
  C   0.76368626427357     -0.05597331364242     -0.08795375925080
  Br  -1.22070260378880     -0.01768121916826      1.97885767686692
  H   0.95851927453872      0.13415113366795     -1.14513069528755
  N   -1.33955427599992     -1.09101199410010     -0.66342198988095
  O   -1.15691053162065     -0.99620599432344     -1.87616088432648
  O   -1.85822623930726     -2.02586564667197     -0.07850210527590
  N   -1.41880936485448      1.25815251063527     -0.44682295260321
  H   -1.14903462037230      1.35855429570542     -1.41950188993241
  H   -1.15041088872771      2.09379728185788      0.05693535463724
  N   1.34107075886978     -1.28624517079200      0.29918348716089
  H   1.02994298771432     -1.61193709944761      1.20348335928034
  H   1.24171667803179     -1.99831595892942     -0.40843798706950
  N   1.43034848881150      1.08646935839706      0.64746519013194
  O   1.29861338672465      2.19795031350129      0.13297801112276
  O   2.00798358479569      0.83681035548132      1.69585784890591
