16
Coordinates from ORCA-job run
  C   -0.77956769806883      0.12893204864189     -0.14943450539706
  C   0.56175093635200      0.20118691041184      0.57914809463319
  Br  -1.84697180759113      1.72363346796686      0.57180766237529
  H   0.39906952997001      0.09385169742449      1.65664835925369
  N   -1.64112663285001     -1.03577480078679      0.31781440990632
  O   -2.34852826233842     -1.55685067687928     -0.53279821527063
  O   -1.58612773418990     -1.31606416349447      1.50493583773758
  N   -0.60266452891349      0.09780934303663     -1.50989217804264
  H   0.01181059685406      0.84097292809321     -1.81759469057169
  H   -1.45221058566890      0.00595959856286     -2.04745514235683
  N   1.27288826779265      1.37163724709206      0.13473240647267
  H   2.26522227440344      1.22735581700471      0.27692611257433
  H   0.97016845927792      2.17695883573088      0.66663003614772
  N   1.38841869200577     -1.01909511865861      0.19034169052475
  O   0.78645285471611     -2.07594228825237      0.06181891202587
  O   2.60141563824872     -0.86357084589391      0.09537120998745
