12

C	-0.522885	0.041198	-1.428437
C	0.0	0.0	0.0
Cl	0.047773	-1.496614	-2.257543
H	1.091723	0.0	0.0
H	-0.03367	0.841513	-1.984852
H	-0.330883	-0.922267	0.488763
N	-1.937621	0.203871	-1.485838
H	-2.399052	-0.557974	-1.000809
H	-2.259831	0.21569	-2.445596
C	-0.491667	1.145513	0.76118
N	-0.893443	2.063076	1.372424
Cl	3.393238	0.0	0.0
