12

C	-0.410057	0.120206	-1.477079
C	0.0	0.0	0.0
Cl	-0.220051	1.848813	-1.957265
H	1.092571	0.0	0.0
H	-1.469313	-0.101374	-1.619889
H	-0.377784	0.817773	0.616217
N	0.363723	-0.710402	-2.354998
H	0.046357	-1.667415	-2.262273
H	1.342801	-0.662633	-2.07735
C	-0.488619	-1.27697	0.509034
N	-0.958978	-2.292058	0.866366
Cl	3.356977	0.0	0.0
