12

C	-0.429741	-0.100927	-1.473555
C	0.0	0.0	0.0
Cl	-0.231598	1.530404	-2.216118
H	1.093894	0.0	0.0
H	-1.49349	-0.333586	-1.563856
H	-0.370316	0.903765	0.487808
N	0.325313	-1.060276	-2.230733
H	0.045599	-1.991315	-1.94499
H	1.312982	-0.946552	-2.010051
C	-0.491308	-1.180215	0.702195
N	-0.921185	-2.153499	1.19984
Cl	3.360647	0.0	0.0
