12

C	-0.466476	-0.040406	-1.443398
C	0.0	0.0	0.0
Cl	-2.259422	-0.659916	-1.459938
H	1.094959	0.0	0.0
H	0.055696	-0.835804	-1.971277
H	-0.324393	-0.904536	0.517645
N	-0.305255	1.180103	-2.105849
H	-0.768604	1.947983	-1.637962
H	-0.568293	1.140227	-3.079184
C	-0.533781	1.164724	0.693301
N	-0.964228	2.129717	1.205339
Cl	3.365392	0.0	0.0
