14

C	-0.391342	0.047933	-1.480083
C	0.0	0.0	0.0
Cl	0.041009	-1.504502	-2.270973
H	1.090924	0.0	0.0
H	0.201886	0.818231	-1.970708
C	-1.815645	0.290448	-1.699617
N	-2.966176	0.461521	-1.867024
N	-0.449571	-1.099119	0.772081
H	-1.213943	-1.60688	0.353719
H	0.335234	-1.719322	0.933452
N	-0.382839	1.301563	0.596022
O	-0.425391	2.271217	-0.182534
O	-0.48753	1.390345	1.817797
H	2.552655	0.0	0.0
