14

C	-0.643737	-0.03913	-1.383253
C	0.0	0.0	0.0
Cl	-0.339706	1.422667	-2.366495
H	1.090034	0.0	0.0
H	-1.729785	-0.102138	-1.257493
C	-0.207905	-1.225492	-2.116353
N	0.055644	-2.163397	-2.770768
N	-0.414815	-1.177199	0.696722
H	-1.284724	-1.028999	1.190691
H	0.32766	-1.442037	1.335229
N	-0.507881	1.256071	0.669982
O	0.197066	2.258234	0.653591
O	-1.630076	1.193943	1.192815
H	2.710507	0.0	0.0
