14

C	-0.516811	-0.067974	-1.432797
C	0.0	0.0	0.0
Cl	0.077187	1.310781	-2.409657
H	1.08988	0.0	0.0
H	-1.607439	0.006902	-1.442261
C	-0.117834	-1.318598	-2.06831
N	0.143191	-2.335148	-2.596735
N	-0.395386	-1.101038	0.820813
H	-1.19346	-1.616783	0.475791
H	0.407942	-1.710578	0.934267
N	-0.552118	1.260344	0.604351
O	-1.687312	1.619706	0.262416
O	0.135981	1.832643	1.440995
H	2.687014	0.0	0.0
