14

C	-0.464072	-0.013603	-1.453073
C	0.0	0.0	0.0
Cl	0.04543	-1.525109	-2.256264
H	1.091495	0.0	0.0
H	0.022446	0.803109	-1.983323
C	-1.915278	0.1178	-1.562293
N	-3.083221	0.228516	-1.626518
N	-0.447265	-1.108326	0.769072
H	-1.217429	-0.840165	1.371786
H	0.329381	-1.403074	1.35359
N	-0.352081	1.30577	0.567331
O	-0.274195	2.291541	-0.179775
O	-0.575727	1.377341	1.784135
H	2.510677	0.0	0.0
