17

C	0.0	0.0	0.0
C	-0.606362	0.02477	-1.408699
Br	1.965924	0.0	0.0
H	-1.716561	-0.029277	-1.178997
N	-0.334406	1.40574	0.694095
O	-0.421521	2.414542	0.010481
O	-0.444852	1.353457	1.909955
N	-0.543691	-1.034184	0.730465
H	-1.581855	-0.863553	0.626946
H	-0.24979	-0.951211	1.693895
N	-0.177184	-1.13701	-2.263038
O	-0.078997	-2.239277	-1.740287
O	-0.026885	-0.90834	-3.464416
N	-0.337957	1.23841	-2.243503
O	-1.327175	1.776509	-2.730507
O	0.825824	1.571165	-2.432321
F	-2.771305	0.0	0.0
