13
Coordinates from ORCA-job run
  C   1.08251990560212      0.21751504187671      0.12457840391982
  C   -0.38781643722527     -0.18870114187968      0.23732545981003
  H   1.21552544672497      0.84550652409109     -0.76334822006644
  H   -0.55812927639126     -0.77369182446781      1.14225813868010
  H   1.37317908046785      0.80544105456374      0.99842014612419
  C   1.94034398691299     -0.95862944702177      0.01897589570035
  N   2.64047796042052     -1.89738392271718     -0.04667385337623
  N   -0.83359083201393     -0.88238511317497     -0.90606653275441
  H   -1.77137179619756     -1.24157003250286     -0.79216653882420
  H   -0.80128716575698     -0.29945471011535     -1.73235756762125
  N   -1.13382290560889      1.13409322429373      0.50860402766893
  O   -1.05336588069074      1.57925407179576      1.64914580462698
  O   -1.71266208624382      1.65800627525860     -0.43869516388788
