13
Coordinates from ORCA-job run
  C   1.04674989919473      0.23523317537517      0.07809386882945
  C   -0.43932596691384     -0.08850277584252      0.31262145553216
  H   1.13472870385627      0.86965724149687     -0.80885235579252
  H   -0.57115552794215     -0.64663676332433      1.23914132448362
  H   1.46341878394502      0.78122191531921      0.93050450950231
  C   1.78665524250507     -1.00572562944919     -0.12519534267488
  N   2.33662688630026     -2.02981086773791     -0.28574558471363
  N   -1.13119441491714     -0.74190016750312     -0.75129417235569
  H   -0.88687959760639     -0.35766757851875     -1.65429194098605
  H   -0.96633267805251     -1.73842532299478     -0.73981836888407
  N   -1.10602339102496      1.24375908330895      0.54908429612441
  O   -1.21655916308649      1.96514121619160     -0.43825895122845
  O   -1.45370877625786      1.51465647367881      1.69401126216333
