13
Coordinates from ORCA-job run
  C   0.93051331811808     -0.52362045861420      0.55395970475349
  C   -0.52464946235768     -0.22135804695591      0.22399922700030
  H   1.15033201282572     -0.21527132430654      1.57640523337476
  H   -1.16645561410275     -0.68508719163966      0.99016014171985
  H   1.08320335097048     -1.60597501508758      0.49278476910006
  C   1.85119649642398      0.14446688542345     -0.36383396173693
  N   2.61201978221217      0.66882031859017     -1.08602114538950
  N   -0.82904726339117     -0.55200098118442     -1.13682806783198
  H   -1.78733940944331     -0.31973230927240     -1.36002779533025
  H   -0.66927501059070     -1.53623045785870     -1.30617210507064
  N   -0.79689223641771      1.26107781086481      0.40994852762499
  O   -0.12998441374091      1.85587488144017      1.24984431486296
  O   -1.72262155050622      1.73003588860080     -0.24221884307711
