14
Coordinates from ORCA-job run
  C   -0.01811028555403     -0.23826181540028     -0.22535408693441
  C   1.36271029697086      0.38908135581442     -0.33633848728889
  Br  -0.12721277666456     -1.67406319454738     -1.58296263583241
  H   1.45270650096304      1.19002830255909      0.40562290714477
  H   2.14608503382033     -0.34732102268575     -0.14736478976855
  H   1.52245803203367      0.81646405599455     -1.32805352351655
  C   -1.11331466927773      0.76900735960278     -0.53916339891299
  H   -2.10008878658055      0.30422941730889     -0.49518095227544
  H   -0.97867783628652      1.20023236059597     -1.53294007697353
  H   -1.07742258547214      1.57826815610831      0.19835338776476
  C   -0.22844898609650     -0.88225805257984      1.13610203642292
  H   0.53879977290079     -1.63154391595506      1.34000022080683
  H   -1.20624835281427     -1.36378565877906      1.19705505838319
  H   -0.17323535794241     -0.10907734803663      1.91022434098031
