17

C	0.0	0.0	0.0
C	-0.593506	-0.027137	-1.430286
Cl	1.79329	0.0	0.0
H	-1.643883	0.266294	-1.303913
C	-0.369162	1.243139	0.690428
N	-0.60845	2.222639	1.293186
C	-0.501185	-1.189254	0.807086
H	-0.127703	-1.116944	1.829738
H	-1.594824	-1.157367	0.805105
H	-0.139449	-2.117633	0.362709
N	-0.519022	-1.258586	-2.133021
H	-1.285128	-1.85184	-1.845752
H	0.37232	-1.722883	-2.025021
N	0.079499	1.051762	-2.243513
O	-0.281616	2.207161	-2.025906
O	0.957035	0.714009	-3.033786
Cl	-3.649396	0.0	0.0
