17

C	0.0	0.0	0.0
C	-0.395108	-0.085509	-1.517145
Cl	1.790629	0.0	0.0
H	0.238792	0.629973	-2.042214
C	-0.390309	1.352552	0.41938
N	-0.634906	2.452767	0.750316
C	-0.606564	-1.033977	0.924583
H	-0.302948	-2.037143	0.633434
H	-0.289478	-0.834511	1.949954
H	-1.696422	-0.944547	0.863833
N	-1.743493	0.090023	-1.880161
H	-1.939763	1.056162	-2.096731
H	-2.461186	-0.218517	-1.214324
N	0.078618	-1.426192	-2.055551
O	1.009905	-1.415923	-2.860646
O	-0.530382	-2.426693	-1.687092
Cl	-4.231668	0.0	0.0
