12

C	-0.12004	0.030096	-0.002664
C	-0.521652	-0.103937	-1.456665
Br	1.786917	-0.277073	0.263267
H	-1.61124	0.02593	-1.472071
H	-0.68578	-0.637677	0.644363
H	-0.03814	0.669031	-2.055729
N	-0.396765	1.425865	0.497362
O	-0.440143	1.564867	1.711524
O	-0.515709	2.318358	-0.337717
C	-0.1891	-1.420591	-1.987863
N	0.078139	-2.465657	-2.450176
Br	-3.371255	-0.511344	0.354844
