12

C	-0.098871	0.030907	0.000635
C	-0.479701	0.186097	-1.456714
Br	1.800826	-0.352021	0.224087
H	-1.566886	0.335618	-1.45991
H	-0.681081	-0.739935	0.501678
H	0.02389	1.052408	-1.888032
N	-0.362802	1.308537	0.757117
O	-0.454731	2.347453	0.108936
O	-0.424411	1.211084	1.974594
C	-0.157266	-1.007808	-2.228854
N	0.110906	-1.943878	-2.883971
Br	-3.364975	-0.510684	0.198323
