11

C	-0.250489	-0.046354	-1.489073
C	0.0	0.0	0.0
Cl	-1.998399	-0.158943	-1.986222
H	1.09444	0.0	0.0
H	0.231498	-0.934797	-1.899391
H	-0.378475	0.923733	0.441942
C	0.315854	1.132928	-2.143052
N	0.718297	2.087596	-2.694677
C	-0.537633	-1.157639	0.678614
N	-0.955394	-2.103964	1.237651
F	2.513403	0.0	0.0
