11

C	-0.470835	-0.05676	-1.450975
C	0.0	0.0	0.0
Cl	0.001813	1.455765	-2.297284
H	1.092665	0.0	0.0
H	-1.558908	-0.111939	-1.545373
H	-0.35253	0.934462	0.44617
C	0.092111	-1.20074	-2.169577
N	0.468259	-2.137239	-2.769746
C	-0.554221	-1.120098	0.734522
N	-1.008377	-2.029794	1.325821
F	2.529737	0.0	0.0
