11

C	-0.279152	-0.03425	-1.482741
C	0.0	0.0	0.0
Cl	-1.998818	-0.452094	-1.92114
H	1.094769	0.0	0.0
H	0.335789	-0.826865	-1.913393
H	-0.325106	-0.943765	0.447283
C	0.051614	1.222503	-2.15111
N	0.265309	2.240491	-2.692697
C	-0.616379	1.114128	0.684806
N	-1.100652	2.016541	1.263988
F	2.516711	0.0	0.0
