11

C	-0.475735	-0.036391	-1.449736
C	0.0	0.0	0.0
Cl	0.010534	1.479887	-2.283023
H	1.092683	0.0	0.0
H	-1.564508	-0.078297	-1.539546
H	-0.348226	0.930553	0.458668
C	0.072612	-1.178931	-2.182394
N	0.443868	-2.111498	-2.791352
C	-0.556545	-1.126768	0.722642
N	-1.009812	-2.04499	1.301038
F	2.531359	0.0	0.0
