11

C	-0.476348	0.051712	-1.449316
C	0.0	0.0	0.0
Cl	-0.008331	1.621135	-2.185053
H	1.094702	0.0	0.0
H	-1.564692	0.003992	-1.541302
H	-0.352909	0.897925	0.516465
C	0.08426	-1.034628	-2.254738
N	0.491922	-1.890824	-2.946677
C	-0.55166	-1.172282	0.650679
N	-0.997056	-2.12538	1.177032
F	2.527484	0.0	0.0
