11

C	-0.475231	-0.03787	-1.450235
C	0.0	0.0	0.0
Cl	0.006175	1.47907	-2.283122
H	1.092727	0.0	0.0
H	-1.563984	-0.083378	-1.541269
H	-0.350812	0.929519	0.458361
C	0.075644	-1.179098	-2.182342
N	0.441248	-2.113299	-2.792203
C	-0.554421	-1.127876	0.722921
N	-1.008015	-2.042771	1.306818
F	2.529432	0.0	0.0
