11

C	-0.470069	0.010727	-1.452336
C	0.0	0.0	0.0
Cl	-0.014703	1.566797	-2.223989
H	1.092608	0.0	0.0
H	-1.557422	-0.052524	-1.550224
H	-0.355893	0.910968	0.490438
C	0.105341	-1.091467	-2.225159
N	0.48754	-2.00154	-2.860556
C	-0.551666	-1.155358	0.680692
N	-1.002242	-2.091642	1.232122
F	2.527651	0.0	0.0
