11

C	-0.50756	0.023201	-1.435839
C	0.0	0.0	0.0
Cl	0.236253	1.369236	-2.360571
H	1.093905	0.0	0.0
H	-1.58548	0.19504	-1.502306
H	-0.31504	-0.945057	0.459065
C	-0.228827	-1.247069	-2.109296
N	-0.054205	-2.293173	-2.613994
C	-0.570459	1.094173	0.762541
N	-1.030216	1.983777	1.379638
F	2.529216	0.0	0.0
