12

C	-0.013634	0.001094	-0.019055
C	-0.510144	0.346947	-1.396892
Br	1.953041	0.032754	0.152094
H	-1.630113	0.281817	-1.13641
H	-0.432069	0.649011	0.739966
H	-0.197386	-0.401727	-2.125061
N	-0.42839	-1.391566	0.365539
O	-0.536127	-1.615198	1.563063
O	-0.542595	-2.218841	-0.531692
C	-0.108642	1.675372	-1.808292
N	0.186111	2.756837	-2.163305
F	-2.536806	0.03916	0.078314
