12

C	-0.021883	0.004999	-0.010142
C	-0.55995	-0.020397	-1.409458
Br	1.949886	0.081909	0.118668
H	-1.699722	-0.010672	-1.073375
H	-0.417754	0.830479	0.568712
H	-0.281255	-0.942554	-1.919576
N	-0.419371	-1.238336	0.738933
O	-0.510035	-2.281033	0.101849
O	-0.549064	-1.125426	1.950373
C	-0.177786	1.144787	-2.170549
N	0.098795	2.093807	-2.808717
F	-2.61117	-0.002841	0.028857
