12

C	-0.01177	0.00205	-0.020309
C	-0.492331	0.06998	-1.443629
Br	1.952231	0.091616	0.17079
H	-1.620981	0.051175	-1.180958
H	-0.44423	0.778878	0.596893
H	-0.176647	-0.810781	-2.003199
N	-0.417299	-1.296075	0.621138
O	-0.494056	-2.285613	-0.097799
O	-0.554074	-1.281832	1.836432
C	-0.084996	1.288293	-2.10823
N	0.215636	2.275627	-2.671911
F	-2.551763	-0.007557	0.007965
