17
Coordinates from ORCA-job run
  C   0.85074504756778     -0.17427007539153     -0.23204511590050
  C   -0.68299778546457     -0.10386573892878     -0.38694657106812
  Br  1.49276087363486     -1.36748538395064     -1.66301226839151
  H   -0.89998915808622      0.17610963156595     -1.41874617887846
  C   1.51771355104003      1.18690387607096     -0.41002841287984
  H   2.60182502657340      1.07411183430557     -0.41845390410053
  H   1.24369081710509      1.84355977810698      0.41911133132571
  H   1.19712486927048      1.63956621595565     -1.35009406344755
  C   1.24094927104269     -0.78330714151838      1.03575190324138
  N   1.56849352826130     -1.26303150626618      2.05784806483859
  N   -1.15975970068436      1.06563748513979      0.42952694373125
  O   -1.57144622291375      2.04724669555648     -0.18601885828215
  O   -1.08215801210238      0.95910195341858      1.65145457616311
  C   -1.43590151979307     -1.34630954699302      0.04196912042590
  H   -1.25500265871760     -1.55894472784458      1.09582877267344
  H   -1.11983146841046     -2.20022227080920     -0.55758785483148
  H   -2.50721645832321     -1.19680107841764     -0.10855748461924
