17
Coordinates from ORCA-job run
  C   0.78664340518424      0.08140314468803     -0.37056660579608
  C   -0.62102284407616     -0.39276234245587      0.05037612635335
  Br  0.66349698110257      1.57727126130162     -1.63967300996899
  H   -0.47539563609548     -1.32840587873498      0.59970438554155
  C   1.59037120504575      0.54555927110643      0.84481133014648
  H   2.60903964386222      0.78650334293958      0.54050963181170
  H   1.62602704300218     -0.25666725798798      1.58806469709738
  H   1.13997840916582      1.43379643405500      1.28619280739593
  C   1.52255695032532     -0.98796507181893     -1.04342815472077
  N   2.18450985541017     -1.83415220267981     -1.52111929289284
  N   -1.39591007245825     -0.81001721335395     -1.17372623440968
  O   -1.09774940060588     -1.90149290440297     -1.65450173784841
  O   -2.24624821532872     -0.03705147895175     -1.60491895560005
  C   -1.41580561966293      0.60232318151688      0.86791893232406
  H   -1.48325812375921      1.56629472873324      0.36588979044811
  H   -0.95858912979069      0.72974848149762      1.84974242808503
  H   -2.42864445132094      0.22561450454785      1.01472386203323
