17
Coordinates from ORCA-job run
  C   0.83648353479987     -0.06371375603347     -0.48920120098954
  C   -0.69423993882646     -0.27059773992517     -0.44601979255910
  Br  1.32123676783437      0.64026225312382     -2.26157292424696
  H   -0.96687593951159     -0.94774691149415     -1.25686059343314
  C   1.42859088824947      0.85071456178521      0.57975467189932
  H   2.51135550505006      0.88971591124048      0.45701851659314
  H   1.01773940855232      1.85406047371772      0.49225666116113
  H   1.20556909678037      0.45569689103684      1.57337727458427
  C   1.43296974013131     -1.39456751469380     -0.38944961473006
  N   1.88853581623873     -2.47144341035920     -0.26424317906237
  N   -1.41091212646492      1.00722375938252     -0.77440381664204
  O   -1.30405585463824      1.93272249879648      0.02798989214875
  O   -2.07160810134378      1.02443485754015     -1.80894496245972
  C   -1.19740674968179     -0.77873335452476      0.89480334788540
  H   -2.26627437144925     -0.99024704899838      0.82213941597201
  H   -1.04566735034280     -0.03494732084550      1.67591779565281
  H   -0.68544032537767     -1.70383414974881      1.16543850822610
