17
Coordinates from ORCA-job run
  C   0.81107708452154      0.08393022264963     -0.31320758964971
  C   -0.66539611108414     -0.30488849376864     -0.08327099364768
  Br  0.94166873207760      1.89250376083406     -1.07148509678995
  H   -0.66445923071533     -1.37238341776280      0.15916209149484
  C   1.59191516204973      0.05491279394291      1.00136484516576
  H   1.48716270430166     -0.92939363037206      1.46782679739011
  H   1.22604974302400      0.82309367060276      1.68170561892868
  H   2.64825395724500      0.23869401770857      0.80456118800751
  C   1.45190085047930     -0.82351131726786     -1.26389536215091
  N   2.03475425861320     -1.56804629083306     -1.96270769580996
  N   -1.41186261428986     -0.23240689217339     -1.39108610786921
  O   -2.13673112405712      0.73910757978035     -1.58412734585960
  O   -1.21897984518189     -1.16030395591139     -2.17416595433439
  C   -1.38164911393175      0.49684572473568      0.98174496618775
  H   -1.30458786637230      1.56663746870983      0.79363517335801
  H   -0.97010622618408      0.26525391350504      1.96470766383053
  H   -2.43901036049555      0.22995484562039      0.98823780174820
