17
Coordinates from ORCA-job run
  C   -0.72322089836962     -0.38511148953238      0.01357393789612
  C   0.79623623240412     -0.53534777250894     -0.21069649011530
  Cl  -1.30103959828081     -2.04001483193525      0.60159418166018
  H   0.93217015352804     -1.35637036611211     -0.92562645903676
  C   -1.08023964498333      0.61267889891688      1.09741732527792
  H   -0.78101996147569      1.61531948581128      0.78658892756098
  H   -0.59294658092366      0.35739664169616      2.03830823492539
  H   -2.15971181689598      0.60760978025601      1.26279110292859
  N   -1.33590898683785     -0.02335467781746     -1.21857643666906
  H   -2.32961586518282      0.12851040424616     -1.09478265758012
  H   -1.20934373799971     -0.74696493808430     -1.91724960458104
  C   1.46764006936541     -0.92765630375868      1.02951809100770
  N   2.04194480485988     -1.18488913025497      2.02075334388741
  C   1.44557544070417      0.73677611722761     -0.76915488771093
  H   2.49333286010755      0.54055741874396     -1.00442664317715
  H   0.92576241215310      1.05330712566563     -1.67188617187230
  H   1.41238511782719      1.54655363744041     -0.03914579440165
