17
Coordinates from ORCA-job run
  C   -0.69306703023906     -0.24374710729683     -0.05087098521492
  C   0.84516095249031     -0.33465126781755      0.09121039018448
  Cl  -1.24730219945532     -1.73608868047867     -0.89425289894218
  H   1.06224588960576     -1.22340871962602      0.69443725214530
  C   -1.37756839212426     -0.22734715143968      1.31093106132901
  H   -1.09419865512219      0.67654049359026      1.85643679223943
  H   -1.10393148237008     -1.10130050871504      1.90629281505346
  H   -2.46126094151447     -0.22840765529410      1.17766830223676
  N   -1.01846604816481      0.87496163482103     -0.90992596184536
  H   -2.01657952048106      0.89253921882052     -1.08653520343566
  H   -0.76731955860021      1.73934926532363     -0.43865575755164
  C   1.29499259789873      0.83917182373405      0.84652816781984
  N   1.62864596695513      1.80760458250534      1.42180603686076
  C   1.59944013467755     -0.41580616062469     -1.23837402725768
  H   1.31910744358755     -1.32409897580941     -1.77038324824093
  H   2.67508233522932     -0.43629898529999     -1.05355908932535
  H   1.35601850762711      0.44298819360714     -1.86175364605532
