17
Coordinates from ORCA-job run
  C   -0.71022297272279     -0.16181420315581      0.02958237194464
  C   0.81797555231135     -0.36341746249014      0.10205964277929
  Cl  -1.36910045684381     -1.73537646723319     -0.71533037714937
  H   0.99008100039248     -1.32223890393432      0.60228405141494
  C   -1.34189557837736     -0.05579222189171      1.40477323875929
  H   -2.43014103449899     -0.04196286114570      1.31484295998235
  H   -1.01134032512323      0.86595631114649      1.88686757445483
  H   -1.06500800274632     -0.91011751261252      2.02341066853446
  N   -1.02483082296554      0.97703671193926     -0.74895538261449
  H   -0.75090075688845      0.87061602072436     -1.71690854055960
  H   -2.01407587055488      1.18817827096319     -0.71105484666582
  C   1.39880488710329      0.68597650343546      0.94536722267229
  N   1.88429911742931      1.51864561006517      1.61575871721248
  C   1.51880266042290     -0.37507339783320     -1.25952056224908
  H   1.06160490075920     -1.11655358317968     -1.91553824163160
  H   1.47455646417466      0.60976295013004     -1.72752977249697
  H   2.57139123812819     -0.63182576492769     -1.13010872438767
