17
Coordinates from ORCA-job run
  C   -0.68538481308344     -0.26791104943472     -0.04495350417536
  C   0.85764535004811     -0.30846942663283      0.06286717974063
  Cl  -1.20444912757572     -1.75306165097425     -0.92329158328288
  H   1.11823234568739     -1.21068502541011      0.62755012528627
  C   -1.34095754494059     -0.31818370978469      1.33020092143337
  H   -2.42639357900650     -0.35773590305443      1.21868472110457
  H   -1.08101715368376      0.57976649517276      1.89668939912609
  H   -1.02125612351739     -1.19769949178920      1.89353995806254
  N   -1.06835884947945      0.86409029347937     -0.86150952481042
  H   -2.07086142975774      0.85429157458274     -1.01247052083492
  H   -0.83251143997224      1.72209917253219     -0.37090061737448
  C   1.28386436906155      0.85256044474748      0.85107705569683
  N   1.59643456282797      1.81070135453277      1.45459199269424
  C   1.58583029935250     -0.31430481893742     -1.28388593748422
  H   2.66517234109196     -0.31480128677692     -1.12100949655164
  H   1.30882394493465      0.56335803987394     -1.86545249827210
  H   1.31718684801269     -1.20601501212666     -1.84872767035853
