17
Coordinates from ORCA-job run
  C   -0.73372635523558     -0.36359713791501      0.01782570663895
  C   0.78129592193510     -0.55948614553182     -0.20075466136747
  Cl  -1.35879968973378     -1.99424856794039      0.62602504978208
  H   0.89501988305589     -1.39501977225549     -0.90265686365843
  C   -1.06561496914373      0.65731220604905      1.08799952772742
  H   -2.14531346130516      0.68502776517717      1.24955495168625
  H   -0.58883462465359      0.40002962946805      2.03366635518178
  H   -0.73728500362034      1.64711546352848      0.76571542323462
  N   -1.33332961883271     -0.00116736206674     -1.22049566146164
  H   -2.32379561543692      0.17540958641657     -1.10214549524851
  H   -1.22173053052278     -0.73587369887026     -1.91020629791372
  C   1.43923403611388     -0.95186119363985      1.04661778534179
  N   2.00343406946940     -1.21119441298082      2.04307415423242
  C   1.46706278840648      0.68445486202186     -0.77851957134092
  H   1.44447501725293      1.51080477540967     -0.06674117255027
  H   0.96538867752971      0.99386402179491     -1.69402458252355
  H   2.51251947472119      0.45842998133463     -0.99693464776082
