17
Coordinates from ORCA-job run
  C   -0.68631145011743     -0.26598186046685     -0.04486931017982
  C   0.85463661154412     -0.31094042407780      0.08580479654503
  Cl  -1.20196700302063     -1.77269073609919     -0.88637533971310
  H   1.10280402373500     -1.19484425153298      0.68426087425252
  C   -1.36052967666305     -0.27163897381293      1.32233681966662
  H   -2.44477605549506     -0.30504919243621      1.19789599006474
  H   -1.05574468555061     -1.13744759767024      1.91458641740590
  H   -1.10013572698946      0.63987680720565      1.86676843756269
  N   -1.05167002104729      0.84384470635207     -0.89942414728776
  H   -0.82450828643722      1.71502155662489     -0.42834117756528
  H   -2.05092234623528      0.83060586216614     -1.07011259859682
  C   1.27590688497070      0.87403817727518      0.84029068268005
  N   1.58893388598359      1.86412624853540      1.38985281106345
  C   1.60166111893056     -0.36484592584562     -1.24934027927287
  H   1.32807847840801      0.48867848133017     -1.86742550169510
  H   1.34484119473162     -1.27919734509451     -1.78281930814823
  H   2.67870305325241     -0.35355553245320     -1.07208916678204
