17
Coordinates from ORCA-job run
  C   -0.78236273238950     -0.44256899939292      0.07926845069543
  C   0.74377253258335     -0.58509493705706     -0.17751743810452
  Cl  -1.32341757558118     -2.06120133954995      0.67282269347306
  H   0.86694024393680     -1.44378047970443     -0.84880013710811
  C   -1.10857452610082      0.58696274879804      1.14463642160978
  H   -2.18556382577500      0.58816382518838      1.31202578483987
  H   -0.80627124854624      1.58541088883169      0.81546007508168
  H   -0.60139872143865      0.35687946852442      2.08146420292518
  N   -1.54570521526599     -0.15722192500779     -1.10639012084781
  H   -1.43331987043093      0.80863310833115     -1.38677482112443
  H   -1.29704669898400     -0.77035882338242     -1.87364781171596
  C   1.45991997089984     -0.89712764823212      1.06061701894940
  N   2.05563528650695     -1.09731014519500      2.05274613242921
  C   1.36547404682454      0.65357391823156     -0.83100735808280
  H   1.29797580489533      1.52594025974825     -0.17910663729107
  H   2.42195226199161      0.47215997283830     -1.03599188315037
  H   0.87299026687390      0.87494010702990     -1.77880457257851
