17
Coordinates from ORCA-job run
  C   -0.70130901957544     -0.47468524916461      0.01224735907362
  C   0.82791056787878     -0.57531302150190     -0.17290597344225
  Cl  -1.26941099236407     -2.10209202636752      0.52384187785067
  H   0.99244985813663     -1.43863099947119     -0.82518659009202
  C   -1.11420594557439      0.51693912337096      1.09048123493919
  H   -0.79147782141147      1.52473304934758      0.81296811477121
  H   -0.68197099301829      0.26431355483062      2.05967545224755
  H   -2.20176501147533      0.51919582540879      1.18378187983591
  N   -1.28506852119122     -0.21768814755086     -1.29792709689938
  H   -2.25298939382596     -0.51861930246227     -1.29773744893969
  H   -1.28127034039879      0.78289392112371     -1.46930063834192
  C   1.49212876778285     -0.83560166224910      1.10589037577910
  N   2.04309240472025     -1.00466225480418      2.12897959134505
  C   1.43482642327244      0.66546291617546     -0.83702877148925
  H   2.51064620937919      0.52817926636338     -0.95785522540943
  H   1.28117969769427      1.56324471512424     -0.23522187502259
  H   0.99923410997051      0.80433029182691     -1.82670226620571
