17
Coordinates from ORCA-job run
  C   -0.67993421301883     -0.30278452787208      0.26559611919707
  C   0.65283232622813     -0.05132439053978     -0.49265248020756
  Cl  -0.31259113666442     -1.33040237712711      1.69750212345548
  H   0.37425236185329      0.57364591700200     -1.35274823231416
  C   -1.29514637877883      0.99851373663023      0.74947462473953
  H   -1.46895928263321      1.66776646796340     -0.10007131159138
  H   -0.65635826499407      1.50436981139773      1.47178772349581
  H   -2.25129976716175      0.77310234772823      1.22118241020849
  N   -1.66207444749541     -1.01740336246789     -0.51367340276859
  H   -1.28839524671462     -1.89537289560574     -0.85735189675703
  H   -1.95772482154639     -0.45193089667950     -1.30200996934512
  C   1.14703397288873     -1.31641651724453     -1.04144401186490
  N   1.53810448936655     -2.33188907466124     -1.48274581170351
  C   1.75623598832780      0.66158381809565      0.29256100583875
  H   2.63604619525058      0.79365412704540     -0.33999442611457
  H   2.04386480025364      0.07904784359758      1.16739156126977
  H   1.42211342483880      1.64783997273763      0.61619597446193
