17
Coordinates from ORCA-job run
  C   -0.76225399210736     -0.25277988636461      0.03579527761561
  C   0.79215375292727     -0.34569908042511      0.07871100967676
  Cl  -1.33006427120175     -1.79304059301021     -0.71521017570118
  H   1.05248821238642     -1.24132525934009      0.65388247781941
  C   -1.34508684310350     -0.17838464967178      1.43601875621826
  H   -0.99639155178501     -1.01263894823027      2.04691816106535
  H   -2.43207302448135     -0.21298716292475      1.36773091095375
  H   -1.05064768189483      0.75740106422494      1.91851077868106
  N   -1.29260900465091      0.82767516058136     -0.75231281854912
  H   -1.06329978134164      1.71876476570416     -0.32626077266147
  H   -0.94776587204028      0.80711198189514     -1.70346317774275
  C   1.29024156306122      0.82539796002383      0.80510113568000
  N   1.66373240091659      1.80655017912047      1.33233383594973
  C   1.47171657838256     -0.41401221395893     -1.29152004776152
  H   2.55004687072768     -0.52372097027646     -1.16514612132060
  H   1.10076335707580     -1.26750478564865     -1.85828450962153
  H   1.29804928712906      0.50019243830093     -1.86180472030179
