13
Coordinates from ORCA-job run
  C   -0.72325683575571     -0.12798872437145     -0.46668829504158
  C   0.30053086511487      0.19103208664372      0.60619009951961
  Br  -0.11406307705561     -1.80076279298023     -1.45667213506035
  H   0.35070411538760     -0.65026013023948      1.30594670391920
  H   -0.71484443779490      0.61738267743835     -1.26229208926639
  H   -0.10989243967682      1.04539530661049      1.15547843686892
  N   -2.02576450516556     -0.24854998670402      0.06401004702390
  H   -2.07280229194417     -0.96723135561448      0.77510165382931
  H   -2.71429715504727     -0.44492157855363     -0.64997825254567
  C   1.68951595711481      0.52765786790916      0.08002322746522
  H   2.33935283196152      0.84097385811062      0.89994522820664
  H   1.64462502210845      1.34825360991629     -0.64103434608235
  H   2.15019195075280     -0.32998083816533     -0.41003027883647
