13
Coordinates from ORCA-job run
  C   -0.86959729396637     -0.00282769933022     -0.50988298322846
  C   0.59186750482668      0.40355959608794     -0.54392810977084
  Br  -1.57884455781071     -0.04304370245424     -2.33904345956745
  H   1.13130039865301     -0.32792209702450     -1.15110846837942
  H   -1.46789335309603      0.78101143149272     -0.02714919569918
  H   0.66818003757304      1.37219516129215     -1.04467351466056
  N   -1.03469854778716     -1.32371880125587      0.05431810017044
  H   -2.01242375599335     -1.58831918209346      0.04696650272265
  H   -0.72250282833403     -1.31385821158573      1.01888966462129
  C   1.19945736162442      0.48999329345149      0.85630706004780
  H   0.59775862627536      1.12349903798901      1.51488403501961
  H   1.29733773022962     -0.49576244683606      1.31589064959149
  H   2.20105867780553      0.92219362026677      0.80952971913262
