13
Coordinates from ORCA-job run
  C   -0.84385229210890     -0.07068254859641     -0.63042936485764
  C   0.38820345060777      0.77293586953690     -0.35303511958340
  Br  -0.27116663948757     -1.67597014908420     -1.76133683554537
  H   0.01689376439832      1.72542183381761      0.04251983288813
  H   -1.51799352379703      0.44010960671973     -1.31668299251121
  H   0.88464412358662      0.98234542946344     -1.30297962479155
  N   -1.54067322424659     -0.43305481035150      0.53932635399016
  H   -2.40312249273270     -0.91897463829034      0.33436307741270
  H   -0.98014561252392     -1.00450853895734      1.15692217879637
  C   1.37235650393416      0.15651854583330      0.63389641899320
  H   0.93718855270477      0.06738813616610      1.63197622669571
  H   1.69915102170222     -0.83031128657141      0.30128429468937
  H   2.25751636796285      0.78878255031411      0.72717555382352
