16

C	-0.435524	0.070892	-1.458393
C	0.0	0.0	0.0
F	-0.334894	-1.195695	-2.034748
H	1.097235	0.0	0.0
H	-1.492602	0.36608	-1.520099
N	0.346591	0.981177	-2.253713
H	1.326579	0.762943	-2.075199
H	0.191862	1.901444	-1.855235
C	-0.536134	-1.214802	0.737622
H	-1.634726	-1.22214	0.732798
H	-0.185818	-2.137089	0.273452
H	-0.193686	-1.200385	1.775986
N	-0.408489	1.284746	0.600629
H	0.318292	1.582665	1.239818
H	-1.258153	1.156892	1.139836
Cl	3.511117	0.0	0.0
