16

C	-0.449063	0.015454	-1.453165
C	0.0	0.0	0.0
F	-1.872393	0.304734	-1.469963
H	1.094969	0.0	0.0
H	-0.003889	0.865601	-1.975907
N	-0.179956	-1.171849	-2.160321
H	-0.494194	-1.110486	-3.117831
H	-0.600939	-1.97281	-1.713411
C	-0.51039	-1.226317	0.745282
H	-1.600691	-1.307252	0.67498
H	-0.23824	-1.119801	1.795118
H	-0.050183	-2.145244	0.372893
N	-0.428566	1.214832	0.702169
H	-1.349752	1.480372	0.368169
H	0.217401	1.964503	0.47596
Cl	3.622237	0.0	0.0
