16

C	-0.434509	0.014028	-1.456608
C	0.0	0.0	0.0
F	-0.097692	1.231076	-2.038756
H	1.096274	0.0	0.0
H	0.11528	-0.748144	-2.027241
N	-1.881247	-0.08259	-1.585489
H	-2.118591	0.016187	-2.567276
H	-2.176142	-1.006685	-1.2915
C	-0.473142	-1.275514	0.687577
H	-1.557088	-1.261485	0.847417
H	0.007731	-1.341317	1.663675
H	-0.202802	-2.169593	0.114821
N	-0.482279	1.167687	0.734731
H	0.121838	1.94802	0.501717
H	-1.410418	1.391191	0.384934
Cl	3.60039	0.0	0.0
