16

C	-0.471698	0.036489	-1.442277
C	0.0	0.0	0.0
F	-0.153498	-1.177866	-2.050568
H	1.104152	0.0	0.0
H	-1.564349	0.135613	-1.470401
N	0.107639	1.092072	-2.228199
H	-0.364042	1.959985	-2.007532
H	1.092607	1.179273	-1.988782
C	-0.528071	-1.208834	0.745523
H	-0.205158	-2.125662	0.253598
H	-1.623651	-1.189278	0.788186
H	-0.138474	-1.221993	1.767992
N	-0.510662	1.24335	0.62512
H	-0.488841	1.108765	1.630613
H	0.177872	1.968136	0.446091
Cl	3.54271	0.0	0.0
