10
Coordinates from ORCA-job run
  C   0.48821459740879     -0.53247759032525      0.18091308489164
  C   -0.45290649589182      0.59676362609421     -0.26154558816591
  Br  -0.04406991630623     -1.23705492464683      1.91681604175199
  H   -0.45855516958999      1.38758442734806      0.49256706921127
  H   0.43188936299541     -1.37258584464504     -0.51397137598824
  H   -0.07506790579294      1.02549362083514     -1.19565146908137
  C   1.86072564789922     -0.04818788665144      0.24730577551318
  N   2.95877238203886      0.36864256325020      0.27449163783741
  C   -1.81243598894585      0.10792997010311     -0.47537227372464
  N   -2.89756651381543     -0.29610796136216     -0.66355290224532
