10
Coordinates from ORCA-job run
  C   0.65272188431744     -0.51344318765798     -0.04897353629182
  C   -0.85084862957110     -0.23050996449276     -0.17549070081873
  Br  0.91408037840761     -2.36336951915272      0.50868163586698
  H   -1.29575056772333     -0.95714716639368     -0.85948133808149
  H   1.14122905603410     -0.41941772983610     -1.02042060148872
  H   -1.33093319263974     -0.34676104137552      0.79911810644854
  C   1.29194097525205      0.38185654953483      0.90580747194113
  N   1.78848195233260      1.11825648435695      1.67478894115510
  C   -1.07638783631398      1.12239085091349     -0.68286550959310
  N   -1.23653402009564      2.20714472410350     -1.10116446913788
