10
Coordinates from ORCA-job run
  C   0.63688023986075     -0.38507426778598      0.05520568835554
  C   -0.61755376684732      0.48720362266823     -0.09210909908099
  Br  0.25261198465159     -1.97973983731494      1.10530266053177
  H   -0.34596292044065      1.41058132081003     -0.61443719723562
  H   0.97279323334256     -0.74181462637718     -0.92033757067935
  H   -0.99389558978146      0.75960098220109      0.89704822488601
  C   1.70594098099440      0.37433425077901      0.69005818085722
  N   2.55212808668591      1.01897791949739      1.18854495523438
  C   -1.66447376094964     -0.19866106951435     -0.84505202331549
  N   -2.49746848751615     -0.74540829496330     -1.46422381955348
