10
Coordinates from ORCA-job run
  C   0.53661498773095     -0.66343931942999      0.20160486639110
  C   -0.67252589673823     -0.17713003461466     -0.60645005606820
  Br  -0.00220816456955     -1.19593613422749      1.99601061327771
  H   -0.34557530114545      0.03651141547175     -1.62966880857726
  H   0.94249282327704     -1.56256440754794     -0.26644231070305
  H   -1.41718783072536     -0.97595762360971     -0.64823700469229
  C   1.57995611329411      0.35058981327379      0.27638098672537
  N   2.42101099969313      1.17044880145045      0.30150673896215
  C   -1.27864232799752      1.02365710304965     -0.03735505075640
  N   -1.76393540281913      1.99282038618415      0.41165002544088
