10
Coordinates from ORCA-job run
  C   0.60798809410133     -0.56569050119863     -0.04110889573669
  C   -0.87758632339723     -0.17929520482214     -0.06888476223040
  Br  0.79333184724544     -2.35315190844229      0.71579595787880
  H   -1.26627947628071     -0.13698275492382      0.95138578891281
  H   1.00572664096026     -0.62469509495730     -1.05572665768148
  H   -1.43653752483984     -0.94536913761546     -0.61147294010445
  C   1.39644342165898      0.38067124428220      0.73678396311582
  N   2.01308510270492      1.15987920036145      1.36340980184771
  C   -1.05678938457652      1.11554559116639     -0.72442713825997
  N   -1.17938239757662      2.15008856614958     -1.26475511774214
