10
Coordinates from ORCA-job run
  C   0.56306434497225     -0.65629974468683      0.15006835766398
  C   -0.69484522958460     -0.17092732971905     -0.58059458648536
  Br  0.12490943132701     -1.27191241026455      1.94465264794898
  H   -0.42115231842471      0.09492848281000     -1.60744944324606
  H   0.96780313865020     -1.52529702134082     -0.37245891597531
  H   -1.41961722334630     -0.98800522959384     -0.62364403047780
  C   1.58278264864728      0.38204076333627      0.21522207504933
  N   2.40057480074574      1.22536874361989      0.23104371239704
  C   -1.30576391278715      0.98756007266184      0.06602877264151
  N   -1.79775568019972      1.92254367317709      0.57613141048369
