13

C	-0.4184	-0.055862	-1.454034
C	0.0	0.0	0.0
Cl	-2.21417	0.051029	-1.677101
H	1.096037	0.0	0.0
H	0.00245	0.800366	-1.987559
C	0.040972	-1.28914	-2.08953
N	0.411066	-2.269473	-2.619558
N	-0.394436	-1.190256	0.727391
H	0.388121	-1.460612	1.315759
H	-1.215063	-1.040739	1.298085
C	-0.441141	1.251294	0.608121
N	-0.796728	2.239989	1.137765
H	2.631665	0.0	0.0
