13

C	-0.316033	-0.035503	-1.502665
C	0.0	0.0	0.0
Cl	-0.021171	1.538712	-2.297053
H	1.095322	0.0	0.0
H	0.400524	-0.74145	-1.939368
C	-1.683491	-0.467877	-1.782633
N	-2.783498	-0.844363	-1.958563
N	-0.326876	-1.240935	0.673618
H	-1.17711	-1.678486	0.339762
H	0.467103	-1.86427	0.571484
C	-0.600077	1.146874	0.663086
N	-1.063803	2.085191	1.200205
H	2.605001	0.0	0.0
