13

C	-0.554798	0.041481	-1.42626
C	0.0	0.0	0.0
Cl	0.132267	-1.288252	-2.410706
H	1.100736	0.0	0.0
H	-1.633644	-0.133514	-1.405777
C	-0.305377	1.315386	-2.100809
N	-0.174555	2.341471	-2.656895
N	-0.383349	-1.26151	0.639296
H	0.491706	-1.68367	0.947069
H	-0.964705	-1.098479	1.453213
C	-0.480296	1.160915	0.732723
N	-0.879308	2.076795	1.356659
H	2.634785	0.0	0.0
