13

C	-0.314877	-0.003273	-1.492308
C	0.0	0.0	0.0
Cl	-2.086196	0.114305	-1.852523
H	1.09709	0.0	0.0
H	0.155606	0.864745	-1.963017
C	0.18198	-1.223805	-2.129679
N	0.54089	-2.197641	-2.679647
N	-0.415348	-1.167049	0.745726
H	-1.288564	-1.55391	0.408133
H	0.324591	-1.856513	0.672698
C	-0.489467	1.233954	0.599642
N	-0.856165	2.24596	1.072957
H	2.629223	0.0	0.0
