13

C	-0.55665	-0.043124	-1.426622
C	0.0	0.0	0.0
Cl	0.146129	-1.411826	-2.33898
H	1.094171	0.0	0.0
H	-1.633034	-0.233696	-1.391739
C	-0.33054	1.197583	-2.167602
N	-0.213755	2.194586	-2.777902
N	-0.381363	-1.219837	0.71058
H	-1.006153	-1.01972	1.479578
H	0.48227	-1.601264	1.088934
C	-0.482863	1.202046	0.663284
N	-0.88868	2.150478	1.230719
H	2.64361	0.0	0.0
