11
Coordinates from ORCA-job run
  C   -0.51850830540997     -0.05867268618324     -0.14388778460457
  C   0.74928493367666     -0.12297033032613      0.34956519841745
  C   -1.23129610146466     -1.21331534960362     -0.56882940651068
  N   -1.80785579217502     -2.18679789195880     -0.90028948837647
  N   -1.25797244261692      1.22219818741218     -0.24267656372988
  O   -2.47822904500292      1.11533848090482     -0.31374632946479
  O   -0.59285299648356      2.24935408688828     -0.23765407665479
  C   1.40629244331890     -1.39481619573777      0.39185939743423
  N   1.97813405643409     -2.42567671209612      0.35973739137273
  C   1.51232428425160      0.99521784403648      0.80750494522245
  N   2.24067896547181      1.82014056666394      1.23441671689433
