11
Coordinates from ORCA-job run
  C   -0.41970946080010     -0.00552368784205     -0.30193302195260
  C   0.74899377288131      0.01176617373969      0.39874813389419
  C   -0.48059414992184     -0.20023276965490     -1.70472131545560
  N   -0.51856673415196     -0.35852608902514     -2.87221000913880
  N   -1.72618220911303      0.16901703176432      0.37442838104545
  O   -2.65929723085358     -0.44242198198812     -0.13453612062656
  O   -1.75001198652059      0.88843867945770      1.36424045744399
  C   0.82789573520474      0.17812894211803      1.81503804095187
  N   1.00090568010062      0.28180008606332      2.97639985911071
  C   1.98033146754035     -0.18434502572904     -0.30233637537102
  N   2.99723511563407     -0.33710135890379     -0.87811802990163
