11
Coordinates from ORCA-job run
  C   -0.50110289714448     -0.06364227373958     -0.17608330930290
  C   0.73461416529326     -0.10674658819534      0.39934901359159
  C   -1.19701116537342     -1.23768945408364     -0.56798962976141
  N   -1.74622999880419     -2.23139303078029     -0.88597305484942
  N   -1.21910964148990      1.21178604445424     -0.42603696129637
  O   -0.62576448992543      2.24831881971378     -0.16302297804017
  O   -2.35266119399775      1.09414874011580     -0.87972546618222
  C   1.34662857605997     -1.38382612930601      0.60667132000716
  N   1.85876502871994     -2.43062119714709      0.78284340372413
  C   1.49046647507629      1.02835068442302      0.82510017394399
  N   2.21240514158570      1.87131438454510      1.22086748816561
