11
Coordinates from ORCA-job run
  C   -0.50978647710850     -0.07459485991574     -0.15450119300725
  C   0.74602013222366     -0.09172715777418      0.37704613175764
  C   -1.20908696328384     -1.26458013103724     -0.48774029169663
  N   -1.76276049622873     -2.27056038996837     -0.75552403200713
  N   -1.24603480008730      1.18786418183484     -0.41833135396082
  O   -2.38531782476684      1.04893618691563     -0.85069461593867
  O   -0.66073894525366      2.23565280682738     -0.18348399525956
  C   1.50859964035325      1.06042156029022      0.74087125813958
  N   2.23817478345809      1.92018636632156      1.08281559714276
  C   1.37576631367088     -1.35756530582846      0.59946270890546
  N   1.90516463702299     -2.39403325766566      0.78607978592461
