11
Coordinates from ORCA-job run
  C   -0.46695453368665      0.03131291429348     -0.25508110312081
  C   0.77491318078228     -0.05201642379618      0.29806492521043
  C   -0.73481284668201     -0.26236783247033     -1.61613066728611
  N   -0.96515097348608     -0.50146286644438     -2.74727776338617
  N   -1.64696489802611      0.38693012266034      0.56756388715372
  O   -1.46067257595508      1.15688421321305      1.50051018772517
  O   -2.69661834278111     -0.14861147961816      0.23014165820502
  C   1.06793887960146      0.20627299598016      1.67127323207293
  N   1.43404038685390      0.38461109787207      2.77731951157586
  C   1.88319369746975     -0.43824476995779     -0.52047437106689
  N   2.81208802590968     -0.76330797173227     -1.16990949708315
