11
Coordinates from ORCA-job run
  C   -0.50067559036350     -0.06476183814315     -0.20260378178765
  C   0.75925680126523     -0.11316135252536      0.31600529452235
  C   -1.21469054148407     -1.23301345090493     -0.57788251566665
  N   -1.76288858104971     -2.23116833631403     -0.88037843946980
  N   -1.26285189888339      1.20535155456588     -0.26098906579861
  O   -0.61099125953274      2.23412661166786     -0.37701166708841
  O   -2.47894765858383      1.08892426742525     -0.16555967856351
  C   1.40840181776920     -1.38322935807830      0.43074177538585
  N   1.97341116870999     -2.41265485093232      0.53016592341271
  C   1.50269464497434      1.02173227252552      0.75779805309307
  N   2.18828109717849      1.88885448071356      1.16571410196066
