11
Coordinates from ORCA-job run
  C   -0.53248698926717     -0.05215060347216     -0.10075102696632
  C   0.77708565935522     -0.12122930158963      0.27350227027854
  C   -1.27983115557343     -1.20347860189994     -0.46397162780546
  N   -1.87305141125261     -2.17847078015563     -0.76012000962064
  N   -1.28140520151982      1.22966332893394     -0.14578156675846
  O   -0.65776580310052      2.25032271078516      0.10876674127051
  O   -2.46904537650094      1.13201024277668     -0.43591633775530
  C   1.41351788367833     -1.40296048002891      0.29526202434808
  N   1.94675066345742     -2.45384207502662      0.31741174975382
  C   1.59028653303542      0.98944749597338      0.65613871091394
  N   2.36594519768808      1.81068806370373      0.99145907234127
