11
Coordinates from ORCA-job run
  C   -0.48099453788385     -0.00065858178418     -0.22306556680258
  C   0.77720558061751     -0.01584050806353      0.30277582864570
  C   -0.72710250806602     -0.18691783804942     -1.60904596440794
  N   -0.89779031959734     -0.33889326903784     -2.76556209018570
  N   -1.69066785504950      0.19309241074608      0.61571294995005
  O   -1.51556660207763      0.47210111966712      1.79347389743210
  O   -2.76028203248656      0.05099747334521      0.03256938677240
  C   1.10099367187772      0.15486841942893      1.68368799218409
  N   1.50440477922076      0.27258316616401      2.78445683813410
  C   1.88532291829721     -0.21767695638756     -0.58007605088009
  N   2.80447690514770     -0.38265543602881     -1.29892722084216
