11
Coordinates from ORCA-job run
  C   -0.49865814406789     -0.06009549841127     -0.18236190338759
  C   0.71864622790405     -0.11273320652715      0.43032920163714
  C   -1.26587732798764     -1.22528172857737     -0.44584226109927
  N   -1.88208513115987     -2.21111004790881     -0.64214218974798
  N   -1.12038182319895      1.21881711223535     -0.61061909205148
  O   -2.23864728310600      1.11795002248232     -1.10416639593932
  O   -0.47201153460141      2.24107262752979     -0.43631443357332
  C   1.23454868622223     -1.39176504685827      0.81291680564362
  N   1.66787729035156     -2.44012346889285      1.13299553600340
  C   1.54339860349241      1.01311601125952      0.73573009890116
  N   2.31419043615150      1.84915322366873      1.04447463361365
