11
Coordinates from ORCA-job run
  C   -0.45510682997077      0.05882061275693     -0.26600012186896
  C   0.77810048900808     -0.09882389163354      0.29506308411824
  C   -0.75112821308130     -0.28492838143998     -1.60895265969797
  N   -0.96953727532628     -0.59163859138093     -2.72720039216165
  N   -1.59925049596804      0.53968295025028      0.54191872121687
  O   -2.66401914259675     -0.02527631359772      0.30798946196076
  O   -1.37668943017072      1.42702388259606      1.35673238088128
  C   1.06269148843378      0.20289034838120      1.66221280293848
  N   1.36043197343744      0.43139702637185      2.77885602126379
  C   1.85474157809789     -0.61292517091905     -0.49207824060670
  N   2.76076585813670     -1.04622247138510     -1.11154105804413
