11
Coordinates from ORCA-job run
  C   -0.53390536284005     -0.09369853782783     -0.08834486391944
  C   0.74839249107799     -0.11343460530401      0.37002007077576
  C   -1.29740879189155     -1.26638103032740     -0.31720772992747
  N   -1.92650428866482     -2.24948909455918     -0.48283124182764
  N   -1.19666816050885      1.18182358368858     -0.44205532257844
  O   -0.93395762588317      2.15499480203168      0.25215631859266
  O   -1.94292495703013      1.12576111030052     -1.41311301857818
  C   1.54195551435678      1.05840801173912      0.56554628825384
  N   2.27676290211023      1.96429655152361      0.73078804510659
  C   1.37113224385483     -1.36778924168091      0.65814688726662
  N   1.89312603541876     -2.39549154958417      0.90289456683570
