11
Coordinates from ORCA-job run
  C   -0.45982371208101      0.04682099902912     -0.24549781108350
  C   0.78564812527194     -0.07602845488007      0.29198719556420
  C   -0.74731444926835     -0.18258509732471     -1.61574279479041
  N   -0.97327700347019     -0.34181640719812     -2.76225395846542
  N   -1.62932293166519      0.39014284249274      0.59920433649817
  O   -2.68218678915232     -0.14066443610391      0.26458636782874
  O   -1.43369722769909      1.15010119587753      1.53808889818423
  C   1.07585123149554      0.11523046844944      1.67835159302408
  N   1.41887164170451      0.24533405981537      2.79802300514576
  C   1.87401213918748     -0.45510558057307     -0.55356106663450
  N   2.77023897567668     -0.75242958958431     -1.25818576527134
