11
Coordinates from ORCA-job run
  C   -0.53067629641103     -0.09058155148191     -0.09257297833602
  C   0.74565590084056     -0.11657957278649      0.38266046207453
  C   -1.30128133390700     -1.25876986580755     -0.32177477726327
  N   -1.93716897523641     -2.23703060863110     -0.49216680125014
  N   -1.17952047660332      1.18703349117784     -0.46477051939248
  O   -0.92180627215744      2.16319914489741      0.22743253899343
  O   -1.91064301961223      1.12970910204188     -1.44696032260730
  C   1.54394680703982      1.05148312845289      0.57937591604297
  N   2.27827804118167      1.95774246436305      0.74649027059513
  C   1.35381902162343     -1.37516964144706      0.68393754758096
  N   1.85939660324195     -2.41003609077896      0.93334866356220
