11
Coordinates from ORCA-job run
  C   -0.56759710229203     -0.00256658270904     -0.02647721103144
  C   0.71334990314961     -0.08977105331601      0.44599442844833
  C   -1.71460334769727     -0.21339501945103      0.77045077033994
  N   -2.70512055473834     -0.37149198287416      1.39389016987558
  N   -0.79795016757153      0.36085066358515     -1.43984450311215
  O   -1.71322213285386     -0.22417676405379     -1.98418740585468
  O   -0.07501035659931      1.23496765522930     -1.90408368647449
  C   0.94472236668983     -0.32934631759168      1.84265313163212
  N   1.16187526535825     -0.48227187042106      2.98893492011583
  C   1.86198750815769      0.06129023713130     -0.38600343350226
  N   2.89156861839695      0.05491103447103     -0.96632718043677
