11
Coordinates from ORCA-job run
  C   -0.54355716283100     -0.08836999768221     -0.02439058737944
  C   0.79298651512772     -0.12887474772776      0.23487748168749
  C   -1.31924078040415     -1.24149014034809     -0.30704375644733
  N   -1.95401722421070     -2.20934913518672     -0.53024022028545
  N   -1.27149184270343      1.19914622976444     -0.08206115846785
  O   -0.93511089564490      2.06296363229956      0.71788813514171
  O   -2.14689802663240      1.26314823244555     -0.93788111606133
  C   1.46395806136756     -1.39111218878758      0.24603004936697
  N   2.01082075359077     -2.43538331970490      0.25547271515426
  C   1.58810595884285      1.03192031689170      0.48335706410074
  N   2.31444464349768      1.93840111803601      0.67899139319023
