11
Coordinates from ORCA-job run
  C   -0.54209687371353     -0.08430184580564     -0.05245557778529
  C   0.77494255680852     -0.13379956534033      0.29167950205350
  C   -1.31870699363491     -1.23734807753700     -0.33252277299397
  N   -1.95792652999437     -2.20501097060100     -0.54583431657540
  N   -1.23992849050279      1.21150308579565     -0.21527592472326
  O   -2.06853224520296      1.24421367432978     -1.11801956557287
  O   -0.92351492508034      2.11254350394053      0.55053321562514
  C   1.57554033468224      1.02286726102738      0.53992430163261
  N   2.31256190767253      1.92046829783483      0.73848683180522
  C   1.42357794991905     -1.40380474495421      0.39491724438714
  N   1.96408330904655     -2.44733061869000      0.48356706214720
