11
Coordinates from ORCA-job run
  C   -0.50434375337237     -0.08660729598527     -0.16768061268625
  C   0.75380949681646     -0.13282896992711      0.35168374164949
  C   -1.29574990763415     -1.24037791600646     -0.39841232247662
  N   -1.93417852572984     -2.21205157356661     -0.59433845395176
  N   -1.15729788815263      1.20797332171313     -0.46858125736740
  O   -2.36125673895925      1.24568411890880     -0.24065591745114
  O   -0.44371973553253      2.10338542559765     -0.90142022676719
  C   1.54376431878385      1.02568153663597      0.62387598446570
  N   2.25243581130211      1.92560758004173      0.90007158844870
  C   1.33128979275581     -1.39941690090561      0.67771898478390
  N   1.81524712972254     -2.43804932650622      0.95373849135256
