11
Coordinates from ORCA-job run
  C   -0.51581141431330     -0.15119950859523     -0.07244686797272
  C   0.77506910799576     -0.14964721227578      0.35065491288517
  C   -1.36099181612839     -1.27347835266460     -0.23476729304285
  N   -2.13030968956017     -2.14917900307991     -0.43314270518906
  N   -1.14158447409602      1.14152230499636     -0.44312869629803
  O   -1.19073782794514      1.99304085240736      0.43771445609676
  O   -1.54181591290671      1.21406296153518     -1.59943270697470
  C   1.43183668873797     -1.36756974363850      0.70295907421341
  N   1.97935402136210     -2.35615790321273      1.04333178294912
  C   1.52419127336342      1.05985679073942      0.44598276089662
  N   2.17080004349049      2.03774881378843      0.53627528243627
