11
Coordinates from ORCA-job run
  C   -0.50477280106451     -0.09350863126236     -0.16197664176040
  C   0.75865391777484     -0.11962796113868      0.34638099014389
  C   -1.27167345826442     -1.26136379806751     -0.40513821585070
  N   -1.89134784357954     -2.24189344391777     -0.61718880408682
  N   -1.18869892382372      1.19011503150906     -0.43979728431299
  O   -0.49727860939929      2.10747523049810     -0.86270388711768
  O   -2.39205297393504      1.19737254599326     -0.20629573124380
  C   1.52528157602511      1.05159766227940      0.63063433311993
  N   2.21712662317713      1.96190948793217      0.91520643484098
  C   1.36728114472135     -1.37859520203370      0.64459470414460
  N   1.87748134836808     -2.41148092179197      0.89328410212299
