11
Coordinates from ORCA-job run
  C   -0.55145140019550      0.05589758369413      0.09942378505593
  C   0.77106360634798     -0.13400549605891      0.35134439832375
  C   -1.57773559880739      0.00936223525994      1.07280064840629
  N   -2.44814995113317     -0.03333227907005      1.86796749939946
  N   -0.98754214943980      0.34460637745678     -1.28348206113571
  O   -1.20490861150561     -0.63499129255353     -1.98521087288446
  O   -1.09284083406531      1.52978440111010     -1.56927394746467
  C   1.73472553111775     -0.06605306718429     -0.70081480469825
  N   2.53555434446339     -0.01297346769023     -1.56322574776280
  C   1.22397014964459     -0.41380828046209      1.67647684993159
  N   1.59831491357306     -0.64348671450184      2.76999425282887
