11
Coordinates from ORCA-job run
  C   -0.50193500312017     -0.08104987474614     -0.16979819586297
  C   0.75764551947996     -0.13451132638929      0.34585409219387
  C   -1.26311778233361     -1.23366380287430     -0.49144582874780
  N   -1.87895691898377     -2.19893337088089     -0.77348578093082
  N   -1.18821706493889      1.21493983003815     -0.37461043201511
  O   -0.49643295061617      2.15868906704888     -0.73433144866914
  O   -2.39381797478252      1.20378301387028     -0.15291293026390
  C   1.51757782998030      1.01937166181916      0.70777420399522
  N   2.20237290076185      1.91369572241312      1.05350910397864
  C   1.36836553460751     -1.40769950754143      0.56991656778887
  N   1.87851590994552     -2.45362141275754      0.75653064853315
