11
Coordinates from ORCA-job run
  C   -0.50148202479744     -0.05210415515720     -0.19228997551881
  C   0.69456144728448     -0.18545520716980      0.44518991904446
  C   -1.21139688147711     -1.14335580870155     -0.75529330743420
  N   -1.80818190412048     -2.06677375452945     -1.18197970882169
  N   -1.10424278668168      1.28493008256133     -0.39718502057163
  O   -0.98225503610068      2.09197558640885      0.51489919047542
  O   -1.65200438602691      1.44499801627858     -1.48194450599102
  C   1.27554522971364     -1.48490232202079      0.58383778268594
  N   1.77486782484684     -2.54604694588077      0.70306915484977
  C   1.42302583510031      0.90837114682668      1.00425700565139
  N   2.09056268225903      1.74736336138412      1.49243946563036
