11
Coordinates from ORCA-job run
  C   -0.52823326888448     -0.08266904571476     -0.10515721341358
  C   0.74293006846160     -0.13311286132419      0.38178787933182
  C   -1.29420940662568     -1.23741663735729     -0.40623687618455
  N   -1.92688327129537     -2.20621472344546     -0.63324244707885
  N   -1.17692042730819      1.21274139711108     -0.41142995112471
  O   -1.90201272399708      1.20839463061477     -1.39975336991605
  O   -0.92583782773787      2.14956948678929      0.33544680317131
  C   1.53675617084874      1.02338761425126      0.65181919828261
  N   2.26841606349559      1.91899618569953      0.87745859879343
  C   1.34994622665976     -1.40525492794746      0.62148188261190
  N   1.85604839638301     -2.45042111867677      0.82282549552667
