11
Coordinates from ORCA-job run
  C   -0.51135109020422     -0.08582577302558     -0.14768690780385
  C   0.76604405199185     -0.12955531765346      0.32312725374367
  C   -1.28851603632353     -1.24427398758985     -0.40331866573844
  N   -1.91816308889849     -2.21529529087216     -0.62960580748134
  N   -1.19824552691271      1.20661387420248     -0.37171914198039
  O   -2.39470489413682      1.21058469406337     -0.10460059208641
  O   -0.51587757924586      2.13368653711333     -0.78787409344927
  C   1.54541250686247      1.03128466564667      0.61547808841838
  N   2.24927640430209      1.93178019780016      0.90151227843427
  C   1.37800711051290     -1.39840361004679      0.56841266698871
  N   1.89011814205232     -2.44059598963818      0.77027492095468
