11
Coordinates from ORCA-job run
  C   -0.50611820754320     -0.08215254605640     -0.16182400038772
  C   0.76340631220925     -0.13120308946394      0.32945904011795
  C   -1.26118406566314     -1.23752076813815     -0.48753145192171
  N   -1.87093824643511     -2.20574819809549     -0.77255199131002
  N   -1.20881694245958      1.20993830754258     -0.33264261029770
  O   -0.53328814632877      2.16633370967284     -0.68970688482236
  O   -2.40967195225460      1.18320866801078     -0.08790285353165
  C   1.51913364644292      1.02434947326051      0.69534393913024
  N   2.20219605808276      1.91974398595114      1.04175018514138
  C   1.39041691318091     -1.40175318925885      0.52128086198813
  N   1.91486463076857     -2.44519635342502      0.68032576589345
