11
Coordinates from ORCA-job run
  C   -0.50805087394869     -0.06701327902516     -0.16386035665958
  C   0.76513955017482     -0.14756006377981      0.31337400764864
  C   -1.26721635797094     -1.19932363600886     -0.55455820914375
  N   -1.88239263762779     -2.14786340608034     -0.88974886384797
  N   -1.21045444025705      1.23372803447468     -0.24753405283725
  O   -2.40978988592618      1.19234444456513      0.00236545284516
  O   -0.53591790640421      2.21055269673153     -0.54611484644031
  C   1.52445918488524      0.98136687469475      0.74845251556444
  N   2.21179511195828      1.84966445843321      1.15102453317686
  C   1.39340617228273     -1.42775649044122      0.41807858836166
  N   1.92102208283379     -2.47813963356392      0.50352123133210
