11
Coordinates from ORCA-job run
  C   -0.51381596849465     -0.08072698708464     -0.14415474349099
  C   0.76572931414234     -0.13476690225321      0.31981646207408
  C   -1.29309452492254     -1.23335221513571     -0.41885866617053
  N   -1.92100137597934     -2.20009966704330     -0.66671687782313
  N   -1.20000854676780      1.21634131079155     -0.34176643014184
  O   -0.51778197504588      2.15003755299072     -0.74325309801584
  O   -2.39565145609378      1.21641065910089     -0.07142615026761
  C   1.55012091198574      1.01932256543296      0.62509297992050
  N   2.26099502533229      1.91247821395701      0.91725683520174
  C   1.37656216602284     -1.40882563259172      0.53923468195941
  N   1.88694642982079     -2.45581889816455      0.71877500675422
