11
Coordinates from ORCA-job run
  C   -0.53028108778628     -0.07821554632214     -0.09935414972256
  C   0.75508604468167     -0.14465754681796      0.34662238574873
  C   -1.28175342239955     -1.21695546320694     -0.48625764782977
  N   -1.90336702713149     -2.17271891711609     -0.78724738169699
  N   -1.21435430216075      1.22489269847016     -0.26527124976555
  O   -1.96756734279955      1.29593659122734     -1.22965245353262
  O   -0.96169538747386      2.09317019861355      0.55974065338872
  C   1.53216086089993      0.99920690541557      0.70452302519066
  N   2.24987617067156      1.88595063586762      0.99936010076263
  C   1.39438830647450     -1.41934281511660      0.45035763492285
  N   1.92750718702380     -2.46626674101450      0.54317908253392
