11
Coordinates from ORCA-job run
  C   -0.51127439939962     -0.08270836049874     -0.13960083944307
  C   0.76197833996231     -0.13262609517850      0.34302964059105
  C   -1.31770410642043     -1.23442798387611     -0.32607924483411
  N   -1.97057425088490     -2.20270358660954     -0.48973321289187
  N   -1.16030349756264      1.20887448631975     -0.45839048646966
  O   -2.35680289629713      1.26635373504687     -0.19950984071713
  O   -0.45077177988943      2.08035078431599     -0.94361613350045
  C   1.33193840371008     -1.40180376774906      0.67195304893329
  N   1.80399273583272     -2.44881287757815      0.93529004192743
  C   1.57288829198739      1.02277027924130      0.56018355491596
  N   2.29763315896163      1.92473338656618      0.78347347148857
