11
Coordinates from ORCA-job run
  C   -0.53531586056234     -0.08504374398190     -0.07684376161776
  C   0.76562658005531     -0.13230152937587      0.32417321614655
  C   -1.30712686719479     -1.24061856937715     -0.35976674046646
  N   -1.94556738088531     -2.20923501104800     -0.57109192629081
  N   -1.21895378790384      1.20993938795574     -0.29824358777165
  O   -0.93007304994606      2.12673137779437      0.45965503694947
  O   -2.00898803357262      1.22555037989660     -1.23534647021211
  C   1.56102321121215      1.02663698797259      0.57840744767587
  N   2.29091961047811      1.92764883850512      0.78771734241339
  C   1.40070585898569     -1.40252262808943      0.49007853652044
  N   1.92674971933368     -2.44678549025207      0.63726090665307
