11
Coordinates from ORCA-job run
  C   -0.50879478336194     -0.08909351625513     -0.15330435031169
  C   0.76242973895159     -0.12610446875480      0.33454791517051
  C   -1.28625195871178     -1.25084615100115     -0.39240564892399
  N   -1.91600237440726     -2.22515465439373     -0.60348805495981
  N   -1.18937633643598      1.19980863322202     -0.41322228669662
  O   -2.38949096290452      1.21230729371697     -0.16408403479294
  O   -0.49844340873110      2.11577265687846     -0.84002613746845
  C   1.54042350108763      1.03862556018025      0.61485711751419
  N   2.24096863699116      1.94316318901404      0.89660456398746
  C   1.36864144802300     -1.39106967876747      0.61206103717862
  N   1.87589649949919     -2.42940886383948      0.84345987930271
