11
Coordinates from ORCA-job run
  C   -0.49534081405350     -0.03422181914520     -0.16591824460058
  C   0.72387806736033     -0.19416002232615      0.42182576290596
  C   -1.23287249893784     -1.10208105668523     -0.73739951839304
  N   -1.84225668286787     -2.02082071661500     -1.16227978250793
  N   -1.11523255091377      1.30138865281835     -0.29015768963858
  O   -1.07104624943264      2.03183374299480      0.68935142964600
  O   -1.62220344224883      1.53238427681629     -1.38238470860311
  C   1.30051582336256     -1.50232975395098      0.45390482611939
  N   1.71861788080207     -2.60501536020628      0.45917888610962
  C   1.47087225771062      0.88299733850927      0.98983669600855
  N   2.16506820921886      1.71002471779013      1.46004234295372
