15

C	-0.385748	-0.022551	-1.470331
C	0.0	0.0	0.0
F	-1.772831	0.048135	-1.623738
H	1.10307	0.0	0.0
H	-0.076693	-0.994727	-1.872961
C	0.264553	1.101359	-2.242251
H	1.346785	1.064322	-2.096792
H	-0.109415	2.063116	-1.883985
H	0.030754	1.011371	-3.30546
N	-0.546806	-1.173506	0.709304
H	-0.238462	-1.105141	1.675003
H	-0.049335	-1.978059	0.334745
C	-0.498343	1.221054	0.634896
N	-0.901376	2.197201	1.147772
Cl	3.379759	0.0	0.0
