15

C	-0.498607	-0.047736	-1.443686
C	0.0	0.0	0.0
F	-0.369204	1.221673	-2.012895
H	1.100678	0.0	0.0
H	-1.57159	-0.281758	-1.447078
C	0.293102	-1.038928	-2.261013
H	-0.055351	-1.036924	-3.296879
H	1.351244	-0.771962	-2.222649
H	0.170044	-2.036668	-1.837972
N	-0.414088	-1.236607	0.676972
H	0.311704	-1.490292	1.336376
H	-1.273112	-1.091289	1.193577
C	-0.49785	1.201619	0.681362
N	-0.951682	2.107865	1.275929
Cl	3.371243	0.0	0.0
