15

C	-0.498993	-0.053759	-1.44495
C	0.0	0.0	0.0
F	0.038882	-1.185836	-2.041137
H	1.095891	0.0	0.0
H	-0.10172	0.812291	-1.984658
C	-2.004585	-0.142174	-1.56024
H	-2.291918	-0.249935	-2.607994
H	-2.482717	0.752251	-1.155407
H	-2.345661	-1.019307	-1.009592
N	-0.458223	-1.168388	0.762335
H	0.34781	-1.565807	1.229734
H	-1.13596	-0.904355	1.46555
C	-0.457107	1.25747	0.602051
N	-0.905943	2.227644	1.089838
Cl	3.349624	0.0	0.0
