15

C	-0.426363	0.01729	-1.477286
C	0.0	0.0	0.0
F	-0.047599	-1.207813	-2.028407
H	1.095993	0.0	0.0
H	0.148834	0.792357	-1.993301
C	-1.910508	0.190524	-1.724218
H	-2.114538	0.119891	-2.794857
H	-2.254641	1.16045	-1.361126
H	-2.480932	-0.596041	-1.223163
N	-0.436458	-1.161793	0.765549
H	-1.361199	-1.45891	0.482014
H	0.215197	-1.91053	0.567226
C	-0.48028	1.234937	0.631267
N	-0.905424	2.231808	1.084341
Cl	3.358229	0.0	0.0
