15

C	-0.352077	0.043326	-1.480532
C	0.0	0.0	0.0
F	-1.747324	-0.099012	-1.634375
H	1.095812	0.0	0.0
H	0.095498	-0.845339	-1.938026
C	0.107035	1.300205	-2.174356
H	-0.098975	1.241931	-3.245147
H	-0.410889	2.168305	-1.762515
H	1.182048	1.415458	-2.016863
N	-0.462081	-1.20354	0.686168
H	-1.314431	-1.535278	0.250952
H	0.256862	-1.91104	0.598613
C	-0.518342	1.192059	0.683208
N	-0.963608	2.148157	1.199418
Cl	3.335896	0.0	0.0
