13

C	-0.543543	0.013081	-1.415765
C	0.0	0.0	0.0
Br	-0.235093	1.853366	-2.204924
H	1.086945	0.0	0.0
H	0.117855	-0.60074	-2.026106
H	-0.360558	-0.917767	0.474318
N	-1.884972	-0.427142	-1.524833
H	-2.479428	0.13596	-0.929778
H	-2.208836	-0.379249	-2.481371
N	-0.557089	1.107757	0.823052
O	-1.789843	1.223618	0.829018
O	0.208406	1.816624	1.461292
Cl	3.402218	0.0	0.0
