13

C	-0.470881	0.099888	-1.448124
C	0.0	0.0	0.0
Br	-0.31758	-1.649157	-2.327908
H	1.089005	0.0	0.0
H	-1.531628	0.344117	-1.509341
H	-0.353921	0.900387	0.51225
N	0.308934	1.058993	-2.187787
H	0.079503	1.990732	-1.858211
H	1.296189	0.895501	-1.993132
N	-0.623091	-1.129822	0.725116
O	0.085112	-2.024485	1.17193
O	-1.855021	-1.086186	0.817764
Cl	3.382845	0.0	0.0
