13

C	-0.498555	0.028715	-1.420202
C	0.0	0.0	0.0
Br	-2.633839	0.185161	-1.282574
H	1.093739	0.0	0.0
H	-0.305864	1.00893	-1.848827
H	-0.366084	0.862219	0.550636
N	-0.074894	-0.985831	-2.242401
H	-0.387562	-0.921403	-3.197176
H	-0.163398	-1.905214	-1.837656
N	-0.450127	-1.186723	0.767629
O	-0.466584	-2.280066	0.196834
O	-0.741045	-1.017242	1.94799
Cl	3.310857	0.0	0.0
