13

C	-0.555368	0.006517	-1.425553
C	0.0	0.0	0.0
Br	-0.108214	1.728071	-2.262283
H	1.087975	0.0	0.0
H	0.02602	-0.727556	-1.983811
H	-0.378438	-0.892341	0.508196
N	-1.963162	-0.247542	-1.615874
H	-2.139615	-1.23558	-1.467947
H	-2.480325	0.276939	-0.919156
N	-0.524986	1.159245	0.774159
O	-1.756773	1.257114	0.8586
O	0.264726	1.948573	1.27428
Cl	3.330083	0.0	0.0
