13

C	-0.502432	0.018055	-1.41727
C	0.0	0.0	0.0
Br	-2.602654	-0.002433	-1.318749
H	1.092243	0.0	0.0
H	-0.340531	0.979834	-1.892545
H	-0.373448	-0.858095	0.556938
N	0.007377	-1.031668	-2.165464
H	-0.070452	-1.935226	-1.723454
H	-0.310125	-1.051819	-3.121964
N	-0.442752	1.203796	0.741791
O	-0.780993	1.052485	1.915323
O	-0.401964	2.281352	0.151452
Cl	3.327099	0.0	0.0
