15

C	-0.627443	0.003938	-1.378981
C	0.0	0.0	0.0
Br	-0.082596	1.760829	-2.219238
H	1.08804	0.0	0.0
H	-0.358454	0.861035	0.562272
N	-0.022555	-1.025925	-2.337428
O	1.139918	-1.33989	-2.166453
O	-0.769779	-1.406682	-3.238042
N	-2.009273	-0.203297	-1.34549
H	-2.387748	-0.299298	-2.276778
H	-2.478444	0.522721	-0.820059
N	-0.484938	-1.200331	0.740057
O	-0.322508	-2.293402	0.209319
O	-1.021244	-1.013199	1.831186
Cl	3.366867	0.0	0.0
