15

C	-0.323866	-0.141326	-1.472597
C	0.0	0.0	0.0
Br	-2.236198	-0.589868	-1.7977
H	1.091098	0.0	0.0
H	-0.435026	0.89309	0.429631
N	-0.250376	1.307967	-2.103745
O	-0.595184	2.265912	-1.423526
O	0.132118	1.353626	-3.26689
N	0.51367	-1.034276	-2.11221
H	0.511992	-0.906758	-3.114571
H	1.453806	-0.999817	-1.715832
N	-0.484165	-1.154497	0.788867
O	-1.27033	-0.906126	1.706212
O	-0.063605	-2.269994	0.498789
Cl	3.254104	0.0	0.0
