15

C	-0.562616	-0.050899	-1.404658
C	0.0	0.0	0.0
Br	-0.326716	-1.884792	-2.079245
H	1.090171	0.0	0.0
H	-0.355641	-0.842236	0.585776
N	-2.133778	0.068947	-1.308297
O	-2.681149	-0.352121	-0.295279
O	-2.70074	0.56053	-2.278828
N	-0.01125	0.854698	-2.304236
H	-0.530762	0.879076	-3.172308
H	0.050382	1.773438	-1.878291
N	-0.456046	1.209964	0.736367
O	-0.780231	2.211309	0.086185
O	-0.457545	1.137533	1.959676
Cl	3.301262	0.0	0.0
