15

C	-0.713877	0.036738	-1.344513
C	0.0	0.0	0.0
Br	-0.161637	1.719434	-2.18808
H	1.089207	0.0	0.0
H	-0.316911	0.872226	0.574364
N	-0.222076	-1.087333	-2.269171
O	-1.077622	-1.809979	-2.769746
O	0.98306	-1.165158	-2.426016
N	-2.136971	-0.018546	-1.315218
H	-2.439755	-0.97833	-1.206361
H	-2.490158	0.563656	-0.565394
N	-0.455821	-1.176125	0.784228
O	-0.569883	-1.038404	1.998822
O	-0.67432	-2.220326	0.167301
Cl	3.28164	0.0	0.0
