15

C	-0.605693	0.279551	-1.364912
C	0.0	0.0	0.0
Br	0.12887	1.820507	-2.253051
H	1.096677	0.0	0.0
H	-0.367518	-0.97198	0.329779
N	-0.227304	-0.999293	-2.213357
O	-0.835678	-2.006341	-1.848379
O	0.566275	-0.934968	-3.134679
N	-2.013074	0.418286	-1.276613
H	-2.416343	-0.392125	-0.822045
H	-2.434346	0.56822	-2.183495
N	-0.525209	0.974032	0.989488
O	-1.370373	0.554509	1.784238
O	-0.096988	2.12158	0.956356
Cl	3.290738	0.0	0.0
