19

C	-0.253888	-0.025382	-1.501245
C	0.0	0.0	0.0
F	-0.013728	1.226371	-2.024907
H	1.101745	0.0	0.0
C	0.630879	-1.029173	-2.184433
H	0.342999	-2.033922	-1.888018
H	0.566632	-0.921527	-3.270066
H	1.637638	-0.813235	-1.804914
N	-1.732976	-0.26851	-1.792775
O	-2.486597	0.705494	-1.738658
O	-2.107621	-1.424738	-1.987553
N	-0.392606	-1.288716	0.567311
H	0.320962	-1.56577	1.23109
H	-1.280235	-1.223524	1.048496
C	-0.578983	1.208678	0.7085
H	-0.282554	2.134336	0.215189
H	-1.675261	1.180818	0.753964
H	-0.187376	1.227263	1.729276
F	2.683578	0.0	0.0
