19

C	-0.174391	-0.053407	-1.52263
C	0.0	0.0	0.0
F	0.106829	1.182252	-2.051725
H	1.09689	0.0	0.0
C	0.747822	-1.064764	-2.153869
H	0.437735	-2.079253	-1.910109
H	1.728606	-0.852093	-1.703948
H	0.759515	-0.936145	-3.239306
N	-1.628246	-0.30598	-1.891893
O	-2.029686	-1.470124	-1.784797
O	-2.340622	0.64872	-2.191507
N	-0.370848	-1.241007	0.682071
H	0.446746	-1.837336	0.687104
H	-1.125058	-1.72997	0.217451
C	-0.668356	1.204096	0.627477
H	-0.358393	2.130214	0.141981
H	-1.762758	1.134452	0.583548
H	-0.37503	1.240101	1.677927
F	2.694227	0.0	0.0
