19

C	-0.491072	-0.010516	-1.439956
C	0.0	0.0	0.0
F	-0.06829	-1.178668	-2.028468
H	1.100935	0.0	0.0
C	-1.983151	0.095403	-1.65355
H	-2.351844	1.071037	-1.341523
H	-2.215359	-0.060021	-2.711017
H	-2.445501	-0.689236	-1.054426
N	0.179212	1.105622	-2.232401
O	-0.212295	2.248828	-1.98879
O	1.02093	0.810949	-3.067691
N	-0.502354	-1.273283	0.580491
H	0.202331	-1.964949	0.342745
H	-0.435118	-1.167709	1.587776
C	-0.519719	1.160266	0.825241
H	-0.017505	1.127652	1.797461
H	-0.278184	2.117681	0.366797
H	-1.603773	1.102791	0.990537
F	2.658379	0.0	0.0
