19

C	-0.435027	-0.045145	-1.465488
C	0.0	0.0	0.0
F	-0.025659	-1.237012	-2.017343
H	1.095974	0.0	0.0
C	-1.914146	0.102295	-1.761397
H	-2.282771	1.071943	-1.433039
H	-2.461059	-0.689632	-1.243171
H	-2.086244	-0.008893	-2.835756
N	0.285347	1.036237	-2.265992
O	1.181811	0.707994	-3.027296
O	-0.127385	2.186277	-2.102538
N	-0.373047	-1.240163	0.688181
H	-1.271786	-1.597229	0.380067
H	0.33593	-1.926378	0.45882
C	-0.540091	1.19403	0.763171
H	-0.280667	2.137188	0.281665
H	-0.077709	1.169837	1.751179
H	-1.630267	1.150747	0.896166
F	2.637612	0.0	0.0
