19

C	-0.510965	-0.024772	-1.432112
C	0.0	0.0	0.0
F	-0.091143	-1.193141	-2.019814
H	1.100825	0.0	0.0
C	-2.006253	0.074859	-1.620849
H	-2.373522	1.050444	-1.30789
H	-2.257282	-0.087087	-2.672741
H	-2.453959	-0.708482	-1.009281
N	0.142385	1.090019	-2.240834
O	-0.264058	2.230474	-2.013957
O	0.99152	0.795967	-3.068244
N	-0.490055	-1.26983	0.599964
H	-0.452318	-1.138758	1.605963
H	0.237536	-1.949764	0.396041
C	-0.511437	1.167761	0.819931
H	-0.293913	2.121537	0.341992
H	-1.589891	1.100671	1.014363
H	0.017295	1.154962	1.777775
F	2.65731	0.0	0.0
