19

C	-0.425619	-0.032617	-1.470536
C	0.0	0.0	0.0
F	-0.167667	-1.279487	-1.990337
H	1.095993	0.0	0.0
C	-1.868986	0.29811	-1.786456
H	-2.520918	-0.370828	-1.219562
H	-2.05758	0.14546	-2.852594
H	-2.095262	1.328161	-1.521016
N	0.43956	0.925985	-2.281636
O	0.228703	2.124425	-2.095225
O	1.24636	0.461931	-3.072533
N	-0.393622	-1.234606	0.687213
H	-1.26982	-1.607992	0.336077
H	0.330216	-1.915027	0.487848
C	-0.53377	1.201878	0.757591
H	-1.622134	1.156274	0.903842
H	-0.061317	1.189051	1.741196
H	-0.278299	2.139824	0.263098
F	2.635266	0.0	0.0
