19

C	-0.174357	-0.059753	-1.52415
C	0.0	0.0	0.0
F	0.118453	1.171366	-2.058073
H	1.09687	0.0	0.0
C	0.740464	-1.084179	-2.147766
H	1.722636	-0.878498	-1.695418
H	0.418405	-2.093564	-1.900802
H	0.756801	-0.962091	-3.234088
N	-1.632443	-0.302266	-1.89185
O	-2.340635	0.659861	-2.183041
O	-2.044025	-1.463541	-1.789178
N	-0.37586	-1.232952	0.688102
H	-1.170007	-1.693012	0.257218
H	0.419897	-1.857998	0.65516
C	-0.662923	1.210298	0.621903
H	-0.358082	2.130889	0.123092
H	-0.358419	1.257804	1.669499
H	-1.758648	1.141383	0.589472
F	2.692667	0.0	0.0
