15

C	0.000462	-0.011804	0.008736
C	-0.511577	-0.224379	-1.414141
F	1.410041	0.086274	-0.023088
H	-0.225901	0.651733	-2.002208
H	-1.614833	-0.237089	-1.291825
N	-0.543853	1.242672	0.440119
H	-0.369866	1.326251	1.438053
H	-1.574322	1.089589	0.315747
C	-0.358606	-1.181683	0.905928
H	-1.450046	-1.211176	0.915891
H	0.024555	-0.992694	1.913879
H	0.060775	-2.123742	0.542259
C	0.008109	-1.426829	-2.046189
N	0.420187	-2.397136	-2.564842
F	-2.915136	0.193315	-0.093306
