15

C	-0.007508	-0.012809	0.003324
C	-0.523526	0.157426	-1.423732
F	1.401903	0.096404	-0.004695
H	-1.62625	0.106891	-1.306344
H	-0.244096	1.159752	-1.758752
N	-0.554843	1.079888	0.753352
H	-0.378647	0.895731	1.737318
H	-1.585046	0.960651	0.594457
C	-0.358954	-1.380341	0.558875
H	0.061813	-2.19018	-0.043381
H	-1.450265	-1.415709	0.564361
H	0.028342	-1.464384	1.579377
C	-0.000853	-0.831453	-2.353433
N	0.411369	-1.628884	-3.111374
F	-2.924073	0.198253	-0.033712
