14

C	-0.37171	0.014182	-1.459576
C	0.0	0.0	0.0
Cl	-2.203044	0.468281	-1.652287
H	1.093812	0.0	0.0
H	0.134143	0.844346	-1.94368
N	-0.068695	-1.210493	-2.074065
H	-0.544324	-1.986773	-1.632655
H	-0.27256	-1.193434	-3.062591
C	-0.549313	-1.139746	0.694237
N	-0.951059	-2.138144	1.168884
N	-0.35515	1.263704	0.668308
O	-0.719437	1.223875	1.843734
O	-0.179345	2.294636	0.021397
F	2.437851	0.0	0.0
