14

C	-0.487746	-0.055546	-1.44102
C	0.0	0.0	0.0
Cl	0.295505	1.136771	-2.517309
H	1.090872	0.0	0.0
H	-0.123994	-1.016151	-1.820966
N	-1.922953	0.133213	-1.519389
H	-2.233169	-0.010049	-2.47227
H	-2.372217	-0.560798	-0.92647
C	-0.484401	-1.196677	0.668012
N	-0.836028	-2.224712	1.11943
N	-0.489804	1.198262	0.720577
O	-1.095185	1.043781	1.785279
O	-0.215943	2.285887	0.226852
F	2.451294	0.0	0.0
