14

C	-0.437086	-0.032233	-1.478308
C	0.0	0.0	0.0
Cl	-0.001007	1.540042	-2.21519
H	1.091039	0.0	0.0
H	0.216956	-0.771624	-1.94407
N	-1.81116	-0.330878	-1.797506
H	-2.404718	0.257934	-1.222845
H	-1.991826	-1.293698	-1.533036
C	-0.518308	-1.186239	0.651467
N	-0.937022	-2.180636	1.120021
N	-0.580279	1.195942	0.681361
O	0.18617	2.048481	1.111774
O	-1.815653	1.269415	0.741532
F	2.489666	0.0	0.0
