14

C	-0.217077	0.121688	-1.537985
C	0.0	0.0	0.0
Cl	-0.091211	-1.538578	-2.234024
H	1.091423	0.0	0.0
H	-1.236667	0.458566	-1.770194
N	0.782789	0.974034	-2.109486
H	0.518208	1.944664	-1.959359
H	1.650375	0.785316	-1.580363
C	-0.656077	-1.102299	0.664704
N	-1.12786	-2.004182	1.254012
N	-0.492863	1.286489	0.58009
O	0.300956	2.226079	0.609929
O	-1.67101	1.354045	0.940069
F	2.539468	0.0	0.0
