14

C	-0.423771	-0.060449	-1.458686
C	0.0	0.0	0.0
Cl	0.154187	1.499068	-2.257722
H	1.090543	0.0	0.0
H	0.213986	-0.815035	-1.917951
N	-1.791638	-0.344334	-1.694702
H	-2.363943	0.361406	-1.250907
H	-1.989172	-0.375524	-2.686109
C	-0.482107	-1.156284	0.732558
N	-0.866969	-2.094018	1.328592
N	-0.528864	1.212214	0.697172
O	0.176561	1.712296	1.564362
O	-1.648666	1.631444	0.379584
F	2.481816	0.0	0.0
