14

C	-0.100704	-0.019589	-1.522403
C	0.0	0.0	0.0
Cl	-1.792113	-0.239452	-2.102944
H	1.094602	0.0	0.0
H	0.217606	0.962055	-1.86606
N	0.765897	-1.025709	-2.08817
H	1.669101	-0.848516	-1.624575
H	0.448272	-1.939154	-1.776252
C	-0.527529	-1.185936	0.630827
N	-0.912847	-2.195864	1.092798
N	-0.511134	1.230847	0.626492
O	-0.40668	2.273306	-0.019829
O	-0.955357	1.160209	1.772301
F	2.508555	0.0	0.0
