15

C	0.0	0.0	0.0
C	-0.423774	0.215344	-1.482838
Cl	1.790928	0.0	0.0
H	-1.512119	0.304288	-1.381869
H	-0.360178	0.834218	0.601668
C	-0.466729	-1.25774	0.581582
N	-0.541342	-2.340313	1.040908
C	-0.085296	-0.974933	-2.359674
H	-0.54025	-1.886842	-1.96492
H	0.994215	-1.133788	-2.448191
H	-0.48564	-0.786183	-3.357478
N	0.112207	1.440706	-2.068126
H	-0.283525	2.235841	-1.577727
H	1.12156	1.475719	-1.944921
H	-2.70995	0.0	0.0
