15

C	0.0	0.0	0.0
C	-0.304103	-0.046194	-1.548597
Cl	1.781882	0.0	0.0
H	0.575038	0.427788	-1.994036
H	-0.331003	0.942717	0.42858
C	-0.581214	-1.10072	0.757609
N	-0.620349	-2.078953	1.428047
C	-1.488828	0.708241	-2.156737
H	-1.637611	1.687258	-1.698312
H	-1.262447	0.84593	-3.230648
H	-2.415126	0.158407	-2.033691
N	-0.240599	-1.450404	-1.95327
H	-1.068718	-1.901626	-1.576456
H	-0.30944	-1.488296	-2.965312
H	-2.285766	0.0	0.0
