16

C	-0.408433	0.001063	-1.479991
C	0.0	0.0	0.0
Br	0.35765	-1.726262	-2.260027
H	1.10693	0.0	0.0
N	-1.817546	0.040406	-1.64983
H	-2.058244	-0.019933	-2.633375
H	-2.261571	-0.727793	-1.15742
C	0.29278	1.128569	-2.211026
H	0.123587	1.051112	-3.288417
H	1.363547	1.073062	-1.993208
H	-0.109466	2.080281	-1.851865
C	-0.529205	-1.135202	0.730806
N	-0.938213	-2.063144	1.329735
C	-0.419775	1.242861	0.62822
N	-0.68308	2.271726	1.134316
H	2.509121	0.0	0.0
