16

C	-0.265453	-0.075291	-1.52058
C	0.0	0.0	0.0
Br	0.156965	1.833282	-2.249685
H	1.09731	0.0	0.0
N	0.626715	-1.031178	-2.011397
H	0.640203	-1.075831	-3.021377
H	1.566743	-0.865109	-1.621952
C	-1.703914	-0.310091	-1.925496
H	-1.800115	-0.300725	-3.01433
H	-2.015044	-1.287028	-1.545194
H	-2.345803	0.467922	-1.514135
C	-0.439116	-1.235664	0.630887
N	-0.772123	-2.234796	1.156683
C	-0.571368	1.140287	0.685947
N	-1.020435	2.045498	1.288834
H	2.556658	0.0	0.0
