16

C	-0.410652	0.16452	-1.473922
C	0.0	0.0	0.0
Br	0.138826	-1.472169	-2.437346
H	1.102054	0.0	0.0
N	-1.852094	0.24136	-1.602079
H	-2.17673	1.019002	-1.033965
H	-2.090698	0.435791	-2.569711
C	0.379611	1.318175	-2.075714
H	1.444422	1.175191	-1.865373
H	0.049618	2.254148	-1.612636
H	0.204156	1.375456	-3.153344
C	-0.522687	-1.19513	0.636485
N	-0.88345	-2.165765	1.195071
C	-0.408839	1.18289	0.741519
N	-0.69663	2.174802	1.30734
H	2.535072	0.0	0.0
