16

C	-0.427692	0.222993	-1.457057
C	0.0	0.0	0.0
Br	0.343181	-1.354713	-2.499354
H	1.098303	0.0	0.0
N	-1.840096	0.269382	-1.598297
H	-2.265773	-0.57177	-1.22351
H	-2.096001	0.354162	-2.576019
C	0.248174	1.458829	-2.013348
H	1.322087	1.386239	-1.822401
H	0.061831	1.546953	-3.086722
H	-0.15915	2.337319	-1.505521
C	-0.522858	-1.235343	0.554859
N	-0.931366	-2.242042	1.008335
C	-0.422423	1.128204	0.817132
N	-0.693866	2.059976	1.482573
H	2.528308	0.0	0.0
