16

C	-0.420449	0.247033	-1.458432
C	0.0	0.0	0.0
Br	0.191374	-1.297939	-2.531396
H	1.10665	0.0	0.0
N	-1.864518	0.271392	-1.581656
H	-2.222213	0.994117	-0.963384
H	-2.116807	0.514314	-2.534872
C	0.318303	1.471842	-1.98158
H	1.390169	1.358276	-1.787492
H	0.1337	1.595768	-3.052185
H	-0.047982	2.359853	-1.454949
C	-0.500695	-1.244789	0.554585
N	-0.836328	-2.260211	1.044331
C	-0.436169	1.120002	0.817237
N	-0.760371	2.063243	1.443673
H	2.524561	0.0	0.0
