16

C	0.0	0.0	0.0
C	-0.52257	0.017155	-1.433955
Cl	1.783532	0.0	0.0
H	-1.604245	0.188963	-1.330866
H	-0.274285	0.951602	0.460887
N	-0.511854	-1.165577	0.669122
H	-0.272299	-1.099315	1.652989
H	-1.532281	-1.080381	0.60197
C	-0.233801	-1.234284	-2.226999
H	0.839664	-1.389379	-2.350077
H	-0.656569	-2.079823	-1.684115
H	-0.695214	-1.172207	-3.212511
N	0.009823	1.242543	-2.114934
O	-0.136147	2.314488	-1.528761
O	0.545039	1.123112	-3.218457
Cl	-3.562685	0.0	0.0
