16

C	0.0	0.0	0.0
C	-0.506854	0.001634	-1.435591
Cl	1.832241	0.0	0.0
H	-1.590399	0.168713	-1.341408
H	-0.248064	0.961218	0.453548
N	-0.501599	-1.155424	0.683712
H	-1.523629	-1.090378	0.59913
H	-0.288301	-1.058268	1.670371
C	-0.210464	-1.257184	-2.213368
H	-0.62272	-2.09909	-1.658876
H	-0.675779	-1.212334	-3.197303
H	0.862576	-1.4035	-2.337301
N	0.020358	1.222451	-2.130892
O	0.497577	1.098996	-3.258544
O	-0.083327	2.293115	-1.536221
Cl	-3.54959	0.0	0.0
