16

C	0.0	0.0	0.0
C	-0.366243	0.425179	-1.457098
Cl	1.83899	0.0	0.0
H	0.531064	0.296018	-2.065899
H	-0.256241	0.834499	0.656665
N	-0.453963	-1.27279	0.450158
H	-0.357005	-1.286979	1.459884
H	-1.456758	-1.304232	0.253679
C	-0.80851	1.873837	-1.481424
H	-0.914261	2.235298	-2.502642
H	-0.04946	2.475937	-0.973212
H	-1.765366	1.95821	-0.965186
N	-1.328223	-0.449224	-2.233827
O	-2.046663	0.111403	-3.054118
O	-1.197609	-1.662655	-2.128264
Cl	-3.411086	0.0	0.0
