16

C	0.0	0.0	0.0
C	-0.283929	0.056872	-1.524574
Cl	1.836843	0.0	0.0
H	0.242063	0.923326	-1.926085
H	-0.284182	0.971304	0.407412
N	-0.577799	-1.023519	0.783291
H	-0.569128	-1.899693	0.277611
H	-1.541987	-0.772509	0.997376
C	-1.739279	0.066156	-1.928522
H	-1.808558	0.146135	-3.017454
H	-2.266148	-0.823216	-1.592418
H	-2.268544	0.901765	-1.471649
N	0.374894	-1.097045	-2.219033
O	1.091028	-0.849425	-3.186692
O	0.125734	-2.230051	-1.806154
Cl	-4.331701	0.0	0.0
