16

C	0.0	0.0	0.0
C	-0.521944	0.153457	-1.426447
Cl	1.783394	0.0	0.0
H	-1.604084	0.312064	-1.308138
H	-0.274416	0.902262	0.550657
N	-0.511746	-1.2259	0.55388
H	-0.279466	-1.248635	1.541005
H	-1.533336	-1.139618	0.4933
C	-0.233302	-1.016431	-2.334573
H	0.838786	-1.161475	-2.470085
H	-0.692255	-0.859882	-3.310445
H	-0.658223	-1.908367	-1.876099
N	0.006933	1.43855	-1.990752
O	0.509047	1.429389	-3.114996
O	-0.11382	2.445006	-1.294889
Cl	-3.565108	0.0	0.0
