16

C	0.0	0.0	0.0
C	-0.500196	0.055163	-1.454008
Cl	1.788735	0.0	0.0
H	-1.570614	0.279145	-1.35625
H	-0.30261	0.930521	0.477787
N	-0.50279	-1.092555	0.774656
H	-0.30442	-1.97073	0.310792
H	-1.51865	-0.965669	0.813557
C	-0.280913	-1.20167	-2.261197
H	0.763363	-1.516909	-2.249853
H	-0.5801	-1.041796	-3.296101
H	-0.912951	-1.989674	-1.851121
N	0.107382	1.250996	-2.118721
O	0.747161	1.100237	-3.160583
O	-0.067338	2.333382	-1.562067
Cl	-3.543741	0.0	0.0
