16

C	0.0	0.0	0.0
C	-0.494418	0.04501	-1.449373
Cl	1.832414	0.0	0.0
H	-1.57787	0.224154	-1.346111
H	-0.315743	0.906429	0.509798
N	-0.507236	-1.154674	0.630877
H	-0.786439	-1.022228	1.589594
H	0.072627	-1.966836	0.501883
C	-0.21914	-1.206957	-2.245687
H	0.846374	-1.443615	-2.273435
H	-0.774751	-2.021354	-1.780996
H	-0.568242	-1.088975	-3.270526
N	0.055136	1.261389	-2.127107
O	0.572471	1.151579	-3.240722
O	-0.066152	2.323107	-1.517309
Cl	-3.645714	0.0	0.0
