14

C	0.0	0.0	0.0
C	-0.494143	-0.364527	-1.405598
Cl	1.851782	0.0	0.0
H	-0.185938	-1.365798	-1.701577
H	-1.601366	-0.271713	-1.261907
N	-0.498099	1.197362	0.588906
H	-0.302725	1.951291	-0.059121
H	-1.528878	0.994123	0.550211
C	-0.365958	-1.148508	0.8519
N	-0.502101	-2.124916	1.489038
N	-0.027208	0.544589	-2.469357
O	0.013041	1.755724	-2.24232
O	0.255976	0.0401	-3.55845
F	-2.717266	0.0	0.0
