14

C	0.0	0.0	0.0
C	-0.520173	0.017202	-1.442635
Cl	1.791508	0.0	0.0
H	-1.614091	-0.075307	-1.313859
H	-0.033131	-0.756491	-2.03415
N	-0.543558	1.112173	0.70367
H	-1.58022	0.919344	0.578697
H	-0.298017	1.032748	1.685332
C	-0.364053	-1.325848	0.561079
N	-0.589814	-2.387121	1.013199
N	-0.215298	1.314945	-2.09978
O	-1.069042	2.19741	-2.051647
O	0.872292	1.42193	-2.675743
F	-2.764352	0.0	0.0
