14

C	0.0	0.0	0.0
C	-0.502483	-0.187794	-1.443729
Cl	1.802407	0.0	0.0
H	-0.214267	-1.153226	-1.854373
H	-1.604341	-0.077759	-1.300402
N	-0.516108	1.116949	0.723815
H	-1.547276	0.909239	0.657227
H	-0.328711	1.944205	0.16621
C	-0.382339	-1.236836	0.712452
N	-0.585081	-2.22846	1.30757
N	0.024253	0.827211	-2.377346
O	0.455573	0.434458	-3.463672
O	-0.019183	2.013013	-2.0428
F	-2.734926	0.0	0.0
