14

C	0.0	0.0	0.0
C	-0.262155	-0.242132	-1.52403
Cl	1.784121	0.0	0.0
H	-0.084516	-1.287544	-1.776373
H	0.428263	0.397701	-2.074379
N	-0.514342	1.19235	0.573524
H	-0.323814	1.954666	-0.069943
H	-1.556904	0.951377	0.508464
C	-0.435651	-1.170804	0.781414
N	-0.590816	-2.145244	1.417901
N	-1.587012	0.125466	-2.109126
O	-1.796796	1.32924	-2.238799
O	-2.264733	-0.774231	-2.584723
F	-2.60297	0.0	0.0
