16
Coordinates from ORCA-job run
  C   -0.42560224231461      0.26875412946903     -0.66251192225051
  C   0.71691985684033      0.11813112069402      0.36512471346685
  Cl  0.15647521498229      1.29316573564479     -2.02954326628355
  H   0.90747163958238      1.13317433187761      0.74726363888472
  C   -0.77118203001366     -1.04999959763169     -1.19327775547682
  N   -1.09519938038122     -2.11531076727730     -1.56688109624184
  C   -1.64854412151984      0.94149496221895     -0.05602629605265
  H   -2.42564562891244      1.06056137617696     -0.81177455938749
  H   -1.36877717495573      1.92818010896922      0.31927665145506
  H   -2.01743395824189      0.33304562776835      0.76808170492608
  N   1.86591637514259     -0.51056114292923     -0.26586333628497
  H   2.60522701758145     -0.61389237727957      0.41894757004458
  H   2.22202964929182      0.05127174088456     -1.02968864048836
  N   0.21640874022967     -0.68178705026421      1.46192613496283
  H   0.73478163871306     -0.49469953315968      2.31015733593870
  H   0.32715440397579     -1.66252866516181      1.22478912278739
