16
Coordinates from ORCA-job run
  C   -0.43154516897748      0.03409240761229     -0.80639421217208
  C   0.83490018595977     -0.29633349485590      0.03170888013435
  Cl  0.10500202146273      0.65288682518170     -2.40066579883067
  H   1.49753632292476     -0.87418492662914     -0.62743512654856
  C   -1.17569848393895     -1.20338119767551     -1.04630121094408
  N   -1.75308927277793     -2.21743010205954     -1.18608485865389
  C   -1.31607881460993      1.07250960271067     -0.13506528689945
  H   -2.20632264225822      1.25723607373733     -0.73692515749130
  H   -0.75238690007481      2.00040605073322     -0.04127379478945
  H   -1.60924181092058      0.71107636060480      0.85199274363223
  N   0.40372182832180     -1.01697048072357      1.22599794021115
  H   -0.00570708694928     -1.91437774022974      0.98849702383482
  H   1.21535065190954     -1.19534420730936      1.80634173627431
  N   1.50815971374442      0.92889354582061      0.38045784148215
  H   1.17773075006714      1.25439608667538      1.28046850855826
  H   2.50966870611701      0.80652519640676      0.41468077220223
