16
Coordinates from ORCA-job run
  C   -0.50992590356038      0.03531159616437     -0.62065893375464
  C   0.52539573855149     -0.21215307812369      0.50358050654999
  Cl  0.33763207235341      0.31153091460716     -2.17802084069189
  H   -0.07708172974745     -0.26383713543175      1.42567452235363
  C   -1.33970281386759     -1.16192495418748     -0.76568527796923
  N   -2.00718310894170     -2.12790058092033     -0.81587929802058
  C   -1.37830147946191      1.24765532069512     -0.31471027701227
  H   -0.73088215823294      2.11460166956877     -0.19539216232068
  H   -1.93278831830725      1.07972466929960      0.61245785391973
  H   -2.08772031855308      1.41847333290897     -1.12484198550704
  N   1.37963476835410      0.94399348962419      0.62308708179947
  H   2.11050167640127      0.88150878710903     -0.07704568522343
  H   1.80947419992893      0.97310694474492      1.53847651161858
  N   1.27765224571817     -1.42545381897599      0.22769311886344
  H   1.94823243768336     -1.57439965510505      0.97217299568740
  H   0.67306269168157     -2.23923750197784      0.18809186970753
