16
Coordinates from ORCA-job run
  C   -0.56938502612121     -0.07082377724571     -0.58393746555419
  C   0.50442641340430     -0.31960713255055      0.49942942107644
  Cl  0.17522704134125     -0.14889537103198     -2.21637754017776
  H   -0.06298490883285     -0.41923372225871      1.43838531623741
  C   -1.57059870558016     -1.13451461849328     -0.49293802495671
  N   -2.41967127516791     -1.93809295237679     -0.38030045600077
  C   -1.23242046128982      1.29109346085526     -0.42668353688987
  H   -0.48802017934925      2.07112623916648     -0.58597302608284
  H   -1.66123008366327      1.38119773861110      0.57612680897678
  H   -2.03096704101488      1.41206655073397     -1.15882137869337
  N   1.43467821594351      0.80594637801360      0.51875640980925
  H   2.30158755796278      0.50696740898312      0.94694768628629
  H   1.06917365063136      1.57345403574094      1.07039730618886
  N   1.13549652467494     -1.58829427206962      0.25732676696394
  H   1.64829218766060     -1.90195650982755      1.07073904783669
  H   1.76539608940064     -1.52143345625029     -0.53307733502016
