16
Coordinates from ORCA-job run
  C   -0.53170283116489     -0.07182726573827     -0.68646159789299
  C   0.80908411724580     -0.24040307317124      0.06774770271693
  Cl  -0.31850844920243     -0.69784785000887     -2.35365291131115
  H   1.58180921678137      0.16691724674989     -0.59989582768744
  C   -1.55671934097671     -0.87439256174571     -0.01970781593411
  N   -2.37017860656242     -1.50776948864984      0.54307221335960
  C   -0.97249906412039      1.38407817848132     -0.77343308480062
  H   -1.20636183934053      1.76010145238870      0.22313879488518
  H   -0.17521183002203      1.98126830724600     -1.22369143119084
  H   -1.86114069532688      1.47055696048922     -1.39885975539322
  N   1.08216283820119     -1.63968053641838      0.24845011901693
  H   2.06021164236917     -1.80453810477027      0.44292817827463
  H   0.51998325320504     -2.01320034488523      1.00520156187146
  N   0.69352773779842      0.47457574595166      1.33931888626364
  H   0.83378181911284      1.47108482614506      1.21767565101702
  H   1.41276203200245      0.13907650793595      1.96816931680499
