16
Coordinates from ORCA-job run
  C   -0.56918829213135     -0.06359182846931     -0.58559968112076
  C   0.50118029104147     -0.32564746845111      0.49826582691138
  Cl  0.17718306884557     -0.13743934637130     -2.21718593573219
  H   -0.06855678442577     -0.42893005962664      1.43541696834318
  C   -1.57688096467027     -1.12188590778702     -0.50182340922168
  N   -2.42374654378499     -1.92831560499602     -0.39322144957882
  C   -1.22356077942270      1.30165600721236     -0.42159985923763
  H   -2.02176445667918      1.43123785013068     -1.15265086650098
  H   -1.65148119610767      1.39017781871828      0.58175513178394
  H   -0.47431552153728      2.07771466332797     -0.57746875554491
  N   1.43747867396047      0.79462017503349      0.52629041260583
  H   1.07379803588411      1.56197586451806      1.07935919022895
  H   2.30096622701220      0.48927110974994      0.95689496070178
  N   1.12614172934133     -1.59594390044246      0.24929870501853
  H   1.75848754162820     -1.52772064053262     -0.53895658489162
  H   1.63425897104582     -1.91817873201437      1.06222534623498
