16
Coordinates from ORCA-job run
  C   -0.39369234199870      0.26090998802990     -0.68452169377425
  C   0.70368751221450      0.11444478078107      0.39173386954908
  Cl  0.25969813960688      1.24765417772215     -2.04726698092321
  H   0.89454670704307      1.13470259432895      0.75951100861075
  C   -0.74024533236415     -1.06225105113268     -1.20295526792358
  N   -1.06883666925269     -2.12889890301820     -1.56897878941495
  C   -1.62907796051119      0.96493567438238     -0.14182919032183
  H   -2.04173467441432      0.37832949440950      0.67731947157609
  H   -1.34854097734353      1.95397895384217      0.22645133526275
  H   -2.37203240775824      1.08159321189288     -0.93147330768768
  N   1.86703731436692     -0.54554169355156     -0.17823028503486
  H   2.57712305990572     -0.64182499754670      0.53794736995303
  H   2.26143611137249     -0.00667719965749     -0.93983460309780
  N   0.14599150837188     -0.65350876980149      1.48372578843530
  H   0.25002351416903     -1.64065005267502      1.27132976473270
  H   0.63361649659230     -0.45719620800589      2.34807151005848
