16
Coordinates from ORCA-job run
  C   -0.44221642512883      0.07772489909322     -0.76864756356984
  C   0.78215291966202     -0.39446784202408      0.05290803653580
  Cl  0.15043587141476      0.91816074758870     -2.25500586224982
  H   1.33981736673094     -1.08553539959634     -0.59615212183248
  C   -1.17805005506599     -1.10606443295724     -1.21199748832373
  N   -1.77473755811065     -2.05037859090709     -1.57458527292328
  C   -1.34816069877982      1.01983454284157      0.00759959068216
  H   -1.75302623527064      0.48991611344913      0.87153459951819
  H   -0.77526058951008      1.88317655924479      0.34264365224439
  H   -2.17520576171262      1.34814897879014     -0.62263204163747
  N   0.28344910365583     -1.13862227341579      1.18756657439387
  H   0.21598644790794     -0.52698365988113      1.99171737859302
  H   0.87368241420225     -1.92683722227449      1.41121541188978
  N   1.55272640409280      0.76307832752498      0.48344976557171
  H   1.88336475915189      1.29187510419210     -0.31550585226029
  H   2.36504203676021      0.43797414833150      0.99489119336794
