16
Coordinates from ORCA-job run
  C   -0.44685564685781      0.02843266985121     -0.81267017781566
  C   0.82311529740761     -0.37293155243399     -0.02184699104065
  Cl  0.05639541610641      0.75948012686519     -2.37295084566129
  H   1.41648471987856     -0.99443532766109     -0.69794010455209
  C   -1.22098240017846     -1.17285912103852     -1.13077276297822
  N   -1.86740603606491     -2.11307234747809     -1.40919987035056
  C   -1.31006142195230      1.03389033852031     -0.06251372426641
  H   -1.65809102547273      0.60408723656584      0.88037676888421
  H   -0.73176781981009      1.94002639397900      0.12014514234349
  H   -2.18454941583521      1.29452101532630     -0.65901153922661
  N   0.39952975738171     -1.21667997440099      1.08571002841786
  H   0.05878105707792     -0.65407619649651      1.85669953758489
  H   1.17788270875577     -1.76709324014376      1.42603016512037
  N   1.59821064307117      0.81778309997262      0.28169173170689
  H   2.58180385676422      0.59415263406597      0.35203594640271
  H   1.30551030972812      1.21877424450654      1.16421669543106
