16
Coordinates from ORCA-job run
  C   -0.43443703850857      0.28234670069287     -0.64978101121682
  C   0.71874603998178      0.11817713770269      0.36323577009512
  Cl  0.11899957094099      1.36285602299139     -1.98571920411875
  H   0.89682119434613      1.12405431057873      0.77458298096397
  C   -0.76276275737714     -1.02274923654024     -1.22345509009777
  N   -1.08141460346448     -2.07605406387992     -1.63419682470517
  C   -1.66434229100358      0.91244039320523     -0.01240114733727
  H   -2.01804081935735      0.26906576383303      0.79159082700118
  H   -2.44805782848286      1.04515373811657     -0.75892028922707
  H   -1.39850186530389      1.88956261940115      0.39645185088810
  N   1.87201965267812     -0.47265893755545     -0.29629145213991
  H   2.61959283351341     -0.58240114132785      0.37858535589680
  H   2.21116284769025      0.11751922339521     -1.04634325803130
  N   0.24060170480349     -0.72268178819465      1.43929865888086
  H   0.36662869277434     -1.69374847820714      1.17177069886636
  H   0.76298466676937     -0.55188226421163      2.28859213428161
