16
Coordinates from ORCA-job run
  C   -0.51394073271226      0.02066793738022     -0.61849091719553
  C   0.52570145069473     -0.20184071717868      0.50723279571302
  Cl  0.32712034395831      0.22705109198722     -2.19011652882066
  H   -0.07061663826503     -0.21306961725789      1.43467820276214
  C   -1.36251584561803     -1.16867230550448     -0.71410354241328
  N   -2.03874112970131     -2.12999579015295     -0.72273392848548
  C   -1.36122969720562      1.25666230751242     -0.35139773849825
  H   -1.91090084246996      1.13178444596211      0.58540823958282
  H   -0.69973941979900      2.11723588342424     -0.26903258642387
  H   -2.07423846070748      1.40852784440071     -1.16215899836924
  N   1.39660276487785      0.94570317753359      0.58038496397966
  H   1.82698919542541      1.00600725051997      1.49394571389680
  H   2.12593713458752      0.84485909224160     -0.11687886433554
  N   1.25993770512629     -1.43406848899742      0.26944882815156
  H   0.64340874958441     -2.23964282189441      0.25346583461979
  H   1.92722542222412     -1.57020928997624      1.01934852583604
