16
Coordinates from ORCA-job run
  C   -0.49465302266053     -0.06783999069859     -0.66437864816373
  C   0.87538502227736     -0.28322146744333      0.04161141847271
  Cl  -0.42708482854884     -0.77915653045065     -2.30822258746488
  H   1.62256949199585      0.13924622585290     -0.63953317057077
  C   -1.52555473791997     -0.76186119396613      0.10812354490281
  N   -2.30224713235062     -1.29793988340353      0.80881453016472
  C   -0.84838958643768      1.40871360299909     -0.80701051995271
  H   -0.03437636910866      1.92634007263850     -1.32002714007555
  H   -1.01412848322829      1.86314596522906      0.17057762042615
  H   -1.75730693231306      1.52100095169884     -1.39816798336887
  N   1.12826678429731     -1.69768322106238      0.16235569313395
  H   0.47194792410717     -2.11655458188642      0.81418193546240
  H   2.05571334716860     -1.81879294482910      0.55140263484885
  N   0.99882597091501      0.41517137417784      1.31064047720606
  H   0.97517174300823      1.42147015776776      1.20651539779038
  H   0.27586080879812      0.12896146337615      1.96211679718848
