16
Coordinates from ORCA-job run
  C   -0.52049802652826      0.00738076045373     -0.51828243406441
  C   0.53867118645955     -0.20355258689521      0.60087540236964
  Cl  0.31003114276726     -0.00247692404441     -2.12155470762225
  H   -0.03829167535249     -0.18545977089035      1.53378512385691
  C   -1.43604543024681     -1.13330415048778     -0.49643329359879
  N   -2.16590283058036     -2.05034464255029     -0.41214927038587
  C   -1.28332111063460      1.31456260396508     -0.36658292297549
  H   -2.02903197012970      1.41684551260892     -1.15597309972633
  H   -0.58054950012874      2.14413812843620     -0.40254287113037
  H   -1.78849719320681      1.32345832083914      0.60299427616669
  N   1.42413543098854      0.93935017048174      0.61203297266497
  H   2.06210695102486      0.82306152548153      1.39086947109960
  H   1.98535289202105      0.93953183333252     -0.23332287394129
  N   1.23773387776873     -1.47278674050927      0.56612636207909
  H   0.60688364470743     -2.24787679161753      0.73646077189371
  H   1.67822261107039     -1.61252724860401     -0.33630290668578
