16
Coordinates from ORCA-job run
  C   -0.37375328591211      0.03032978941804     -0.75995540425671
  C   0.87797652358664     -0.33119765371353      0.09725258486737
  Cl  0.20109123508772      0.78218758117172     -2.29679376752171
  H   1.50706063723190     -0.96684863105215     -0.54426633798868
  C   -1.04996533808665     -1.21852950822262     -1.10981471386906
  N   -1.55985961988309     -2.25575888876937     -1.32270582822805
  C   -1.33126256958309      0.99060881840309     -0.07136630251669
  H   -0.79586702021125      1.89701734129919      0.20417011134161
  H   -2.16120250635530      1.23414186678909     -0.73537796042830
  H   -1.73716458845971      0.52652825640382      0.83017481779984
  N   0.58125615108494     -1.08442391875439      1.29001946006968
  H   0.15560980484543     -1.97857934475349      1.08358450821661
  H   -0.01013537184892     -0.55040856105276      1.91407245367531
  N   1.51635687749815      0.89562628559202      0.52805588272010
  H   1.90893540793902      1.39058240536368     -0.26302994189222
  H   2.27092366306631      0.64072416187766      1.15398043801094
