16
Coordinates from ORCA-job run
  C   -0.38871008952766      0.33277533104331     -0.70878328445837
  C   0.73475108528134      0.21184069039650      0.34901581722193
  Cl  0.16929401035048      1.39007634381772     -2.04349316397466
  H   0.95427878838858      1.23547070610112      0.66908692521024
  C   -0.63860667027774     -1.00483950864339     -1.25082442091112
  N   -0.82468539805500     -2.11171701257749     -1.59946308806894
  C   -1.66860669191823      0.92569643828427     -0.13229186867293
  H   -2.05756961506449      0.28099211084568      0.65317699435093
  H   -2.41037199685560      1.04977140665976     -0.92204586431523
  H   -1.44171890598700      1.90503411174771      0.29420962924631
  N   1.93320931166855     -0.31879272698007     -0.26801509166006
  H   2.72575717262108     -0.20619458111437      0.35115010096819
  H   1.82517471136341     -1.30738378209123     -0.46843046552686
  N   0.17803931556946     -0.49667819267054      1.49790818249527
  H   0.80246089531443     -0.39910777686915      2.28975646698404
  H   0.10730407712838     -1.48794355794988      1.28804313111129
