16
Coordinates from ORCA-job run
  C   -0.45942709973834      0.02265416290821     -0.80579019084145
  C   0.81830390311892     -0.38285227151458     -0.02941521771013
  Cl  0.02766556959598      0.72621477241271     -2.38368451665102
  H   1.39313853400921     -1.02061444122695     -0.70638962019873
  C   -1.25230484664763     -1.17378206800336     -1.09491559077967
  N   -1.91407819919075     -2.10986081999851     -1.35031576387758
  C   -1.29864179898406      1.04851642558021     -0.05614080151703
  H   -0.70608388169739      1.94947275293853      0.10526740997952
  H   -2.17895231717339      1.31253563702397     -0.64250897592259
  H   -1.63746960441750      0.63568206974606      0.89761811642063
  N   0.40251940907626     -1.20605515587391      1.09626363662915
  H   0.08108634963795     -0.62904469040878      1.86487726643027
  H   1.17909161805107     -1.76196298499833      1.43163080619779
  N   1.61195589718906      0.80258817002101      0.24529096631801
  H   1.33918949388458      1.21807068106409      1.12749904496232
  H   2.59400697328607      0.56843776032964      0.30171343056045
