16
Coordinates from ORCA-job run
  C   -0.51201619052944     -0.09646996451972     -0.59699345164896
  C   0.85940738770143     -0.18715614629782      0.13333134360114
  Cl  -0.32618124170605     -0.91185600456077     -2.19367191802126
  H   1.59763566149699      0.21775634789014     -0.57589788587001
  C   -1.51439772465375     -0.83135997992372      0.17084207154487
  N   -2.30835328610822     -1.42397046960337      0.80207544157248
  C   -0.95422142868766      1.33923051311117     -0.83906490371941
  H   -0.16083124252439      1.88391846407651     -1.35731815419555
  H   -1.85229505827922      1.36416833946052     -1.45700257853434
  H   -1.17454827262326      1.81885275056529      0.11582209165542
  N   1.28124051538561     -1.51743811780192      0.49005979088710
  H   1.41597408048546     -2.09129847753746     -0.33157759498346
  H   0.58163172059207     -1.95229048741761      1.08325684944708
  N   0.73813049401442      0.56109294973219      1.37160334929976
  H   0.82996861396208      1.55594015047429      1.21095745025100
  H   1.49785597147394      0.26988013235230      1.97557809871415
