16
Coordinates from ORCA-job run
  C   -0.39255276310974      0.03146728573614     -0.76542966403910
  C   0.83640242476502     -0.46421169837481      0.05720547253707
  Cl  0.21896144443343      0.87191689008767     -2.23894182105752
  H   1.36432334989429     -1.16904029168147     -0.59213723325856
  C   -1.15739663766901     -1.12964791861315     -1.21676193168822
  N   -1.77895640529329     -2.05443377358323     -1.58876261607350
  C   -1.28901509559210      0.99020877442249      0.00380541620469
  H   -0.71795215524916      1.85954667301073      0.33443523557800
  H   -1.72619060713873      0.47704791688273      0.86246650729810
  H   -2.09898227587330      1.34152109390415     -0.63579671435287
  N   0.30394775505851     -1.20187065450270      1.18399426579522
  H   0.05598026059812     -0.56249967445810      1.93135397741961
  H   1.02846151771274     -1.80857926764746      1.54824993565995
  N   1.79328077627012      0.55149650473644      0.44649930474715
  H   1.36138160334912      1.25815523392079      1.03041606215380
  H   2.19730680784400      1.00892290615978     -0.36159619692384
