16
Coordinates from ORCA-job run
  C   -0.44183081557779      0.02485360183328     -0.80039332458261
  C   0.83235672995752     -0.30534830751839      0.02556379642881
  Cl  0.07906336373250      0.61081848803152     -2.41222374772675
  H   1.47918503893274     -0.90253118362568     -0.63231486485522
  C   -1.20319360823572     -1.20766897483624     -1.00980669985574
  N   -1.80335021577493     -2.21123911762371     -1.12773385052673
  C   -1.30558268297906      1.08412344653062     -0.13460627111729
  H   -1.59000555745752      0.74205063074748      0.86185412241709
  H   -0.72966195096565      2.00650583289566     -0.06277715478350
  H   -2.20124699666092      1.26993030919174     -0.72803766830617
  N   0.40990647020542     -0.99986397343166      1.23838669208467
  H   1.22781741696582     -1.18033119910083      1.80910047654944
  H   -0.01623896312743     -1.89507627240230      1.02275877021970
  N   1.52479891908552      0.91787916454028      0.34349638900914
  H   1.21254006119786      1.26146099700778      1.24345497614433
  H   2.52544279070167      0.78443655776053      0.36327835890081
