16
Coordinates from ORCA-job run
  C   -0.35973572890671      0.24778414417787     -0.65244261197064
  C   0.80256296486111      0.13661665216606      0.37122902746179
  Cl  0.18328346707291      1.30247442251142     -2.01263134321272
  H   0.99183930600296      1.16910703615970      0.70897795602192
  C   -0.66963100972955     -1.07720238667400     -1.18628547617768
  N   -0.97669252355613     -2.15132739285605     -1.54970232303569
  C   -1.60549868002526      0.88140906765530     -0.04658613389394
  H   -1.34891393218771      1.84832441994137      0.39196529560754
  H   -2.02534087388490      0.22927795773683      0.72105544567840
  H   -2.36250423651687      1.03587166159080     -0.81569763136527
  N   1.92923458282654     -0.51156517890861     -0.26147954352824
  H   2.31133282973272      0.05515155511086     -1.00693573744288
  H   2.64207973893551     -0.65550620480729      0.44287270771882
  N   0.48795590578630     -0.65583399035953      1.53431390742302
  H   0.24607240445231     -1.60248904977199      1.26374045837834
  H   -0.24604421486324     -0.25109271367276      2.09760600233723
