16
Coordinates from ORCA-job run
  C   -0.52298297658060     -0.07955025841659     -0.58976539185662
  C   0.86218758406435     -0.19126544067431      0.11103912187624
  Cl  -0.36872130065193     -0.84885569466923     -2.21250507633295
  H   1.58709789604297      0.23310715404454     -0.60054720401693
  C   -1.51120558771226     -0.83626914588690      0.17553127190908
  N   -2.29664485403454     -1.44033594507609      0.80654045205531
  C   -0.96923248680197      1.36240377699424     -0.78165569520452
  H   -0.18572941362825      1.92196288727640     -1.29912483650119
  H   -1.17093588278004      1.81427229754170      0.19071778826412
  H   -1.87901391111162      1.40511204313128     -1.38122976515318
  N   1.28938006984163     -1.53148889562910      0.42134946064273
  H   0.60152406046921     -1.98280788127868      1.01589405515961
  H   1.40780275423595     -2.08167097183331     -0.41873542440048
  N   0.76580967193461      0.52148066782166      1.37202569450945
  H   1.53689282895553      0.21343636918205      1.95276222054960
  H   0.85477154775699      1.52046903747232      1.23770332849975
