16
Coordinates from ORCA-job run
  C   -0.40145815876842      0.05743036292063     -0.74844998905932
  C   0.85451493010780     -0.39788252341237      0.06395028056876
  Cl  0.18385779599577      0.78357270315506     -2.28799716592196
  H   1.44624603006909     -1.02170941949770     -0.62215294503946
  C   -1.17971262195272     -1.13114849293078     -1.09309027014888
  N   -1.76393556926872     -2.12312988798958     -1.33126039881366
  C   -1.26172500504923      1.07029513236053     -0.01134848484911
  H   -1.55940210253195      0.64885893284407      0.94940075050295
  H   -2.14657408173322      1.31598330086957     -0.59927638072577
  H   -0.69443974658255      1.98748164979768      0.15038769573366
  N   0.37595652814580     -1.08815058593210      1.24749287590231
  H   1.17621756257968     -1.25667215983951      1.84585005614868
  H   -0.03408513209629     -1.98285062706874      1.00662281530056
  N   1.71123743873024      0.66324175103013      0.52172940030707
  H   2.08264999295234      1.20227510968978     -0.24899262745189
  H   1.21065213940239      1.27240475400333      1.15713438754607
