16
Coordinates from ORCA-job run
  C   -0.42064458298660      0.05766295248543     -0.74777812213288
  C   0.83770088714329     -0.46916968776923      0.00773887380782
  Cl  0.13617000332957      0.94589186447627     -2.21502190655710
  H   1.33725573769098     -1.15142547323593     -0.68665156289159
  C   -1.21008899409434     -1.08356855171952     -1.20729874900452
  N   -1.86370319294342     -1.98327439232542     -1.58582150048507
  C   -1.28188144649673      0.99306309040982      0.08799397724993
  H   -1.68803034764161      0.45304811078464      0.94546592679724
  H   -0.69398642833502      1.84862510170823      0.42493241880271
  H   -2.11464604577062      1.36835122017819     -0.50713830599878
  N   0.34785981051119     -1.24635266080434      1.12714513823061
  H   1.08780821883774     -1.85985455800841      1.44631721818843
  H   0.12206515169204     -0.63340678312031      1.90314237706507
  N   1.81254550703652      0.52998078445468      0.39519836463236
  H   1.40701428938380      1.21445799959923      1.02277876089441
  H   2.18456143264318      1.01697098288666     -0.41100290859862
