16
Coordinates from ORCA-job run
  C   -0.51369377597084     -0.04414987954233     -0.65153088995764
  C   0.87164258200114     -0.29933649743363      0.01027849865680
  Cl  -0.50424120224623     -0.71724668749077     -2.31274557257812
  H   1.60672866287221      0.12704565451809     -0.68152175525753
  C   -1.53462526325562     -0.73890415471759      0.13340814502761
  N   -2.30513649745272     -1.27049810221737      0.84426039409702
  C   -0.84560691804605      1.44088902571493     -0.74983889152794
  H   -1.76969106372982      1.58207322620010     -1.31054297169455
  H   -0.97400935791633      1.87486794574245      0.24256808128965
  H   -0.03834195694143      1.95664792084482     -1.27527476649816
  N   1.10344626336983     -1.72028911670566      0.09043984724562
  H   2.03776044606030     -1.86542402705180      0.45384778258400
  H   0.45618723336637     -2.14429357202349      0.74788398944923
  N   1.04250245087362      0.36611061181994      1.29147902215321
  H   1.03494163541124      1.37487132717857      1.21156955249468
  H   0.33213676160460      0.07763632516375      1.95571953451624
