16
Coordinates from ORCA-job run
  C   -0.55535534380477     -0.04606873992071     -0.51772185832465
  C   0.59765663674598     -0.26224291350295      0.51212798661142
  Cl  0.06972184043472     -0.21282887285980     -2.18985304487534
  H   0.08821232127545     -0.28935373675222      1.48992370238205
  C   -1.53613126169205     -1.11021496657758     -0.30043115725711
  N   -2.29280312301871     -1.97456313065813     -0.05270319109374
  C   -1.20399135123834      1.32350682206189     -0.37461376617231
  H   -2.06166255857203      1.41647770618344     -1.04145726165314
  H   -0.47426700708009      2.08978785429249     -0.63657838627728
  H   -1.54294032784869      1.46844950588174      0.65570597892099
  N   1.55424398840381      0.81740677821312      0.38088784736012
  H   2.40907250408309      0.51340408969223      0.83088422106128
  H   1.23109756627721      1.65258702654677      0.85187816667333
  N   1.31848720208485     -1.50214470383632      0.37891496529368
  H   0.72334155647154     -2.29578891622896      0.57976556361352
  H   1.67531735747804     -1.59041380253500     -0.56572976626283
