16
Coordinates from ORCA-job run
  C   -0.35037920138873      0.31799884266538     -0.68317131673903
  C   0.83038876134508      0.23160608525849      0.32744104046706
  Cl  0.08603878214187      1.45212136644889     -2.00035900616345
  H   1.03466466312937      1.26648624120897      0.62406594860325
  C   -0.56585759945482     -1.01142166152131     -1.25516085495702
  N   -0.72507089448466     -2.11527163032561     -1.62628422327704
  C   -1.63392919643113      0.82495873073916     -0.03437136934760
  H   -2.00385951548834      0.10972174729181      0.70134141294957
  H   -2.40432795167688      0.97101713831191     -0.79161638247089
  H   -1.43794003693728      1.78401054632227      0.45103046290133
  N   1.99634406481559     -0.27878423173900     -0.35037959579968
  H   1.85230334726307     -1.24910986563949     -0.61251330819756
  H   2.77227456531148     -0.25646737168057      0.30042732223020
  N   0.51726006302452     -0.51379902565456      1.53556832151080
  H   0.23268834513024     -1.46353688516207      1.32093317892956
  H   -0.19959819629939     -0.06853002652427      2.09404836936052
