16
Coordinates from ORCA-job run
  C   -0.38498370288472      0.03201941037468     -0.76025318731618
  C   0.85522989289222     -0.39765887548549      0.08955654290697
  Cl  0.23023083608013      0.70684098265650     -2.31161212157149
  H   1.45658212628034     -1.04724863355563     -0.56354862207989
  C   -1.16198649013462     -1.16446470607175     -1.07732490217055
  N   -1.77603914360936     -2.15253958662325     -1.24647282587839
  C   -1.25709666859835      1.06967354496567     -0.07313439526991
  H   -1.57774544243928      0.67907614754831      0.89318097601293
  H   -2.12735807123605      1.30079816119323     -0.68805665240575
  H   -0.68881871294040      1.98881319573019      0.07362787094911
  N   0.35486808426275     -1.04351054279727      1.28909874961107
  H   -0.06427236910350     -1.94022543384084      1.07251653339412
  H   1.14639815638759     -1.20279454025092      1.90145347391263
  N   1.70770403641119      0.67639953843324      0.52462098630326
  H   1.19943622671424      1.30473458956926      1.13474942626785
  H   2.08985124191785      1.19108674815404     -0.25740185266576
