16
Coordinates from ORCA-job run
  C   -0.48157799903903     -0.05996573117100     -0.57432554871024
  C   0.93618713942473     -0.24710738737289      0.07934883683802
  Cl  -0.47983852299668     -0.87570177233396     -2.18098387005275
  H   1.63568711358830      0.21141328906370     -0.63007062642217
  C   -1.46584994337139     -0.72107129444375      0.27880794374290
  N   -2.19891861391248     -1.23498767474475      1.04055877710754
  C   -0.84203809593733      1.40271016311690     -0.79645900033563
  H   -0.96504197893980      1.91408752680995      0.15917601995676
  H   -0.04769031054283      1.88631150524104     -1.37030983095920
  H   -1.77473281218441      1.48738434076718     -1.35477696883696
  N   1.32075586432850     -1.62314353387948      0.27658832980875
  H   0.81783988892111     -2.02444678959496      1.05932406817533
  H   1.13529334083252     -2.17854472246731     -0.54806422730921
  N   1.05030434443951      0.44563600782537      1.34004107303158
  H   1.03485621349600      1.44858382836352      1.22778197152655
  H   0.32576437189328      0.16784224482049      1.99236305243873
