16
Coordinates from ORCA-job run
  C   -0.47480817302377     -0.07149126864367     -0.57979316700350
  C   0.93861883419667     -0.23387663963370      0.09050407046154
  Cl  -0.44277632516196     -0.89734072010916     -2.18098775488702
  H   1.63891334409434      0.22947049853954     -0.61498966845935
  C   -1.45826300161465     -0.74106581560741      0.26730643331153
  N   -2.19254622431153     -1.24790501532326      1.03266044725270
  C   -0.85405305233886      1.38425603694220     -0.81523549801738
  H   -0.06139174277387      1.87539126785682     -1.38493138559812
  H   -0.99342881463533      1.89957960938752      0.13600407588626
  H   -1.78256927306694      1.45134161750957     -1.38285394114177
  N   1.34029789923097     -1.60294468252089      0.30160941098552
  H   0.83736131643355     -2.00479856610788      1.08403513588785
  H   1.16877171462252     -2.16772425896040     -0.51968537682098
  N   1.02961084962582      0.46902316971404      1.34741092579680
  H   1.00360571717278      1.47092462462339      1.22749265491768
  H   0.29965693155025      0.18816014233328      1.99245363742820
