16
Coordinates from ORCA-job run
  C   -0.34904401067274      0.00617931165820     -0.74208957195482
  C   0.94455513338263     -0.42011225724028      0.05240092867321
  Cl  0.17212573269442      0.71647469743043     -2.31499363991415
  H   1.49896745180343     -1.07444390844091     -0.62890607308447
  C   -1.12242337538357     -1.19718839088937     -1.03723429323577
  N   -1.72765493367633     -2.19124316884503     -1.20310412259434
  C   -1.20624097382499      1.02869339710439     -0.01235173662093
  H   -1.56715085586347      0.61619897041716      0.93267143712658
  H   -0.62246076157391      1.92901989648397      0.18020971470214
  H   -2.07149042438284      1.29996014317059     -0.61755009202339
  N   0.64117749057337     -1.17965309363719      1.24083489349937
  H   0.04484737200864     -0.66951660165399      1.88012969114754
  H   0.20507895665973     -2.06428236354899      1.01815835788968
  N   1.79846815919008      0.68635198191194      0.40847111499310
  H   1.43803641799044      1.18905625690645      1.20910111204608
  H   1.92220862107509      1.32650512917263     -0.36474772064982
