16

C	-0.170482	0.100057	-1.551334
C	-0.001495	0.130632	-0.004701
Br	-2.082452	-0.252575	-2.000034
H	1.061389	0.386024	0.132688
C	0.12797	1.415391	-2.110383
N	0.408082	2.466979	-2.556826
C	0.70274	-0.978829	-2.173821
H	1.669666	-0.961473	-1.639613
H	0.776728	-0.837407	-3.253852
H	0.260775	-1.954793	-1.97002
N	-0.123461	-1.139164	0.663907
H	0.828633	-1.532822	0.528839
H	-0.855696	-1.70363	0.249315
C	-0.867038	1.164205	0.58519
N	-1.544328	1.990842	1.073632
F	2.413	-1.132937	0.030492
