16

C	-0.1674	-0.006624	-1.506365
C	0.013868	-0.010133	0.043175
Br	0.478289	-1.736878	-2.205057
H	1.105706	-0.000263	0.14203
C	-1.585633	0.039691	-1.858162
N	-2.736269	0.096987	-2.098423
C	0.659101	1.102548	-2.142714
H	1.673631	0.946821	-1.735851
H	0.262467	2.070918	-1.822306
H	0.619516	1.040804	-3.2322
N	-0.582643	-1.111771	0.773569
H	-1.523993	-1.303128	0.445303
H	-0.013659	-1.933488	0.617907
C	-0.53513	1.252793	0.545817
N	-0.979308	2.266318	0.943277
F	2.612459	0.091736	-0.384762
