16

C	-0.323579	0.032955	-1.443582
C	-0.018788	0.132967	0.071017
Br	0.40113	1.646343	-2.335799
H	1.055186	0.337643	0.136948
C	0.308842	-1.135018	-2.065563
N	0.508609	-2.062152	-2.762693
C	-1.819165	-0.019755	-1.754063
H	-2.256218	-0.892711	-1.259419
H	-1.981321	-0.119238	-2.827822
H	-2.314461	0.882102	-1.391891
N	-0.160808	-1.124073	0.779217
H	0.74501	-1.563923	0.499995
H	-0.959201	-1.653088	0.446398
C	-0.834445	1.200061	0.669257
N	-1.496086	2.042958	1.152396
F	2.152986	-1.170428	-0.299143
