13
Coordinates from ORCA-job run
  C   0.38507752153831      0.71827297672446      0.39895493961668
  C   -0.73031100524324      0.11725475016525     -0.47340613686247
  Br  1.23652593620611      2.22368275641922     -0.62660318904132
  H   -1.34059672026636      0.93204837744829     -0.87162855658948
  H   -0.06921367912855      1.21919265422996      1.25460804268784
  N   1.27630339843488     -0.28494294088137      0.83863612215949
  H   1.91481717507292      0.05053701974952      1.54694297805819
  H   1.80641338788779     -0.68376934789555      0.07200354202262
  N   -1.59100915860113     -0.80118808518371      0.25277810772466
  H   -2.17913764360829     -0.28318384038293      0.89418556914775
  H   -1.01350384878446     -1.43860654505109      0.78928615035285
  C   -0.11580063972674     -0.58880553548402     -1.60845525565762
  N   0.42143527621876     -1.18149223985803     -2.46730231361919
