13
Coordinates from ORCA-job run
  C   0.55864161503900      0.16295046917100      0.57771397760569
  C   -0.55003950235899      0.01810787949575     -0.48589089996145
  Br  0.25850945328370      1.95644233553859      1.48057260460210
  H   -0.38618347864550      0.80091573346506     -1.23689339082596
  H   0.40135708900826     -0.54797568705897      1.38988277587978
  N   1.83619712349928      0.00749604480426      0.02236759376278
  H   2.57196475611951     -0.02783019253125      0.71355948174898
  H   2.05107521849290      0.70785240781998     -0.67534122497143
  N   -1.92370071764469      0.11582586807096     -0.03707236149173
  H   -2.08569365818447      1.02630280639195      0.37409105327750
  H   -2.12061162952776     -0.59285830860420      0.65969140410317
  C   -0.36408691067710     -1.28551730672203     -1.14388576969784
  N   -0.24742935840415     -2.34271204984111     -1.63979524403159
