13
Coordinates from ORCA-job run
  C   0.45900681193100      0.65805731475023      0.42378559696880
  C   -0.75466209207359      0.19996166040940     -0.40320500288248
  Br  1.32851133089000      2.19238481753398     -0.54243668975829
  H   -1.33776532322254      1.08026205346552     -0.68573076357634
  H   0.10323419420434      1.11050025750035      1.35010577607319
  N   1.31301294171734     -0.42957426806207      0.70963245827757
  H   1.75718321824973     -0.79259531350490     -0.12628259071202
  H   2.02348630243001     -0.19315866857034      1.38880507096584
  N   -1.61764260991282     -0.72451577304548      0.31223380946120
  H   -1.04526817827430     -1.43897582253330      0.74759179666526
  H   -2.12084606866169     -0.22948640250881      1.03844168765709
  C   -0.27165208954879     -0.44226069563168     -1.63570096141763
  N   0.16240156227130     -0.99059915980289     -2.57824018772218
