16

C	0.0	0.0	0.0
C	-0.484176	0.133075	-1.430691
F	1.41132	0.0	0.0
H	-1.576096	0.073199	-1.385155
H	-0.121522	-0.74068	-1.985782
N	-0.451493	1.103452	0.790483
H	-0.183277	0.950772	1.757444
H	-1.472932	1.06312	0.74863
N	-0.409282	-1.270458	0.530305
H	-0.043037	-1.378655	1.469234
H	-0.041827	-2.016176	-0.047955
C	-0.012679	1.415837	-2.101084
H	-0.39272	2.285424	-1.564083
H	1.078579	1.474146	-2.111221
H	-0.373072	1.462212	-3.13297
Cl	-3.8829	0.0	0.0
