16

C	0.0	0.0	0.0
C	-0.442558	0.238824	-1.43921
F	1.388119	0.0	0.0
H	-1.532374	0.178506	-1.470324
H	-0.038668	-0.597182	-2.017483
N	-0.415313	1.103794	0.836118
H	-0.171564	0.88534	1.797657
H	-1.435173	1.120893	0.783239
N	-0.416956	-1.324868	0.400362
H	-0.202639	-1.442922	1.387021
H	-1.434511	-1.329256	0.317746
C	0.045184	1.569272	-1.997081
H	1.130481	1.652473	-1.908074
H	-0.401953	2.401743	-1.453897
H	-0.222929	1.660734	-3.054247
Cl	-3.666221	0.0	0.0
