16

C	0.0	0.0	0.0
C	-0.430145	0.153189	-1.453923
F	1.415612	0.0	0.0
H	-1.519114	0.056064	-1.467791
H	0.000567	-0.684341	-2.017926
N	-0.424262	1.024441	0.913545
H	-0.148674	1.930112	0.555396
H	-1.444306	0.97569	0.938536
N	-0.469348	-1.229432	0.517234
H	-0.159327	-1.34076	1.47169
H	-0.197996	-2.013645	-0.056369
C	0.022496	1.467902	-2.082429
H	1.09821	1.614171	-1.95481
H	-0.502415	2.318891	-1.639428
H	-0.200729	1.477888	-3.153304
Cl	-3.968326	0.0	0.0
