16

C	0.0	0.0	0.0
C	-0.414913	-0.159967	-1.461685
F	1.397715	0.0	0.0
H	-1.505032	-0.110712	-1.493512
H	-0.0133	0.707127	-1.995035
N	-0.454915	1.268605	0.479968
H	-1.454273	1.318414	0.282454
H	-0.362932	1.249997	1.491035
N	-0.396046	-1.063221	0.896088
H	-0.084974	-1.956712	0.53141
H	-1.416156	-1.05902	0.901819
C	0.084192	-1.450906	-2.098692
H	1.166028	-1.55345	-1.983786
H	-0.148548	-1.465795	-3.166789
H	-0.399192	-2.323986	-1.654229
Cl	-3.659604	0.0	0.0
