13
Coordinates from ORCA-job run
  C   -0.97232316726602     -0.13571219479231     -0.02812001590699
  C   0.52345059562086     -0.52948913291051     -0.14129641830038
  H   -1.48668564556257     -0.63658069611605     -0.85618991693817
  H   0.57211017604688     -1.61900575819985     -0.05025986268385
  C   -1.11843852879081      1.31303784092356     -0.20480562398380
  N   -1.18389626247994      2.47204766641972     -0.37965990873004
  C   -1.55022838375512     -0.57930394432903      1.24330850988991
  N   -1.99503138547279     -0.97580326798519      2.25485932278009
  C   1.28559250001290      0.05845869123155      0.97835315227159
  N   1.92711259440884      0.55514923509020      1.82844931987845
  N   0.98877591835143     -0.15756074604844     -1.46327906409361
  H   1.87219080613356     -0.61063383897858     -1.66349862458656
  H   1.13637078275280      0.84539614569495     -1.51786086959662
