13
Coordinates from ORCA-job run
  C   -0.81090758234873      0.09413411972155      0.55306551950633
  C   0.65982483783160     -0.29021191714408      0.21894010638907
  H   -0.92113407563940      0.18562420427455      1.64064003869404
  H   0.87440252036620     -1.21641885008797      0.77385221076691
  C   -1.68495123572589     -0.98527690341282      0.08183217856095
  N   -2.32498673260662     -1.89228150649815     -0.30044604534768
  C   -1.17168268412403      1.37083135957736     -0.06914248639245
  N   -1.46119843257057      2.41077185785491     -0.52969864971561
  C   1.54931422474115      0.75288154967261      0.73779855335072
  N   2.26960603887924      1.57693720046434      1.16251405586872
  N   0.79707808601693     -0.40343530452555     -1.22186822426884
  H   1.76140949067750     -0.29874843763363     -1.50944083489226
  H   0.46122554450262     -1.30580737226311     -1.53704642251991
