13
Coordinates from ORCA-job run
  C   -0.86518782982316      0.25387008560101     -0.04010923793216
  C   0.61538250408743     -0.18659037991889      0.13555114119873
  H   -0.97062665366436      0.70537000461679     -1.03469552000071
  H   0.70046032592860     -0.67357020289865      1.11167962951263
  C   -1.24573301085875      1.24852708589447      0.96808032669453
  N   -1.52370592678987      2.04315873202815      1.78651699433502
  C   -1.73951340548659     -0.92046365464148      0.03515767390380
  N   -2.44883043586337     -1.85208933916018      0.11497766893061
  C   1.47708833175541      1.01118902592946      0.13681027379614
  N   2.18636699457467      1.94569868324820      0.06910220561203
  N   0.93192780437246     -1.15367426237761     -0.89521841149315
  H   1.71936879244500     -1.72706378130611     -0.62213333097248
  H   1.16200250932254     -0.69336199701516     -1.76771941358497
