13
Coordinates from ORCA-job run
  C   -0.87444401980176      0.19133535241004     -0.11375476906717
  C   0.61704962328694     -0.12692063540220      0.18783931373747
  H   -0.95327854694698      0.48749795865516     -1.16743950871651
  H   0.67825156184885     -0.46416711888112      1.22692895552601
  C   -1.36162088042889      1.29525401574588      0.71970915966885
  N   -1.72828206592459      2.18097907598130      1.39766784250388
  C   -1.68474795361728     -1.01226854951077      0.09586683450316
  N   -2.34184171577226     -1.96650950532442      0.28294740841413
  C   1.41065350307752      1.10970209539639      0.05295785413799
  N   2.07074874739296      2.06673176607164     -0.11833811939796
  N   1.03886293703076     -1.20921008703994     -0.67726843646401
  H   1.84205702788012     -1.68795625221987     -0.29111526842197
  H   1.28659178197461     -0.86446811588209     -1.59700126642387
