13
Coordinates from ORCA-job run
  C   -0.95522512890600     -0.22682831668685     -0.02305475997718
  C   0.57150713905243     -0.49097784618252     -0.09259185788640
  H   -1.40911991694956     -0.84486587090426     -0.80595798557029
  H   0.71512828400461     -1.56099983036934      0.08715647456286
  C   -1.23326546022654      1.18002186325645     -0.32931758585748
  N   -1.41375188950192      2.30658284715423     -0.60724516810181
  C   -1.50728947081472     -0.60407259531165      1.28072099986241
  N   -1.92998494452841     -0.92793251020248      2.32694451934164
  C   1.26517192184636      0.25001417924438      0.97928291382609
  N   1.85806755163423      0.86019532659157      1.78985392149609
  N   1.02060181740090     -0.18679403910307     -1.43782107750886
  H   1.07412505817505      0.81695078319871     -1.57568455061256
  H   1.94503503881357     -0.57029399068517     -1.59328584357452
