16

C	0.0	0.0	0.0
C	-0.373789	-0.034082	-1.490562
F	1.365057	0.0	0.0
H	0.130345	0.867332	-1.866211
C	-0.485241	1.20094	0.679293
N	-0.787857	2.219708	1.179693
N	-0.427109	-1.228003	0.793533
O	-0.902261	-2.166475	0.170403
O	-0.179746	-1.170939	1.992402
C	-1.845708	0.036464	-1.872619
H	-2.333648	0.898278	-1.42007
H	-2.405812	-0.83276	-1.542973
H	-1.903363	0.121718	-2.961086
C	0.32073	-1.160899	-2.127527
N	0.887998	-2.015785	-2.698292
Br	-4.650328	0.0	0.0
