16

C	0.0	0.0	0.0
C	-0.518402	-0.100699	-1.43248
F	1.353709	0.0	0.0
H	-0.17238	0.83216	-1.898245
C	-0.475501	1.218183	0.663621
N	-0.772074	2.241424	1.157451
N	-0.383256	-1.204075	0.872185
O	-0.725448	-2.228397	0.299446
O	-0.212075	-1.042862	2.074569
C	-2.043983	-0.175621	-1.535487
H	-2.439373	-1.106727	-1.140154
H	-2.332616	-0.092562	-2.584148
H	-2.541332	0.624883	-0.98676
C	0.161559	-1.187065	-2.143786
N	0.706014	-2.013613	-2.774626
Br	-5.107718	0.0	0.0
