16

C	0.0	0.0	0.0
C	-0.518325	0.091559	-1.433211
F	1.356322	0.0	0.0
H	-1.620075	0.046459	-1.357898
C	-0.429386	1.099924	0.876886
N	-0.581432	2.005035	1.611446
N	-0.376967	-1.312067	0.709363
O	0.007668	-1.377604	1.871534
O	-0.940306	-2.185441	0.071493
C	0.040499	-0.989881	-2.368227
H	-0.176603	-0.71152	-3.401928
H	-0.433343	-1.945877	-2.16049
H	1.123632	-1.082659	-2.261014
C	-0.119741	1.408263	-1.937266
N	0.238937	2.426752	-2.400719
Br	-3.596505	0.0	0.0
