16

C	0.0	0.0	0.0
C	-0.534965	-0.013808	-1.427335
F	1.361295	0.0	0.0
H	-1.628086	-0.148634	-1.314483
C	-0.441896	1.161943	0.783593
N	-0.598899	2.144847	1.408807
N	-0.370132	-1.263475	0.796103
O	-0.836037	-2.221182	0.198514
O	-0.064107	-1.213665	1.982101
C	0.10555	-1.071272	-2.334422
H	-0.146802	-2.070599	-1.990096
H	-0.286076	-0.941983	-3.344573
H	1.190725	-0.953864	-2.369037
C	-0.28664	1.310748	-2.000035
N	-0.047113	2.337625	-2.518888
Br	-3.569631	0.0	0.0
