16

C	-0.547483	-0.216907	-1.387692
C	0.0	0.0	0.0
F	-1.892145	-0.485666	-1.319028
H	1.089452	0.0	0.0
H	-0.320117	-0.847265	0.607774
N	-0.398539	1.005151	-2.286312
O	-1.404846	1.434003	-2.835271
O	0.745739	1.407341	-2.431529
C	0.182015	-1.35099	-2.066056
H	-0.206079	-1.478262	-3.078823
H	0.013215	-2.270083	-1.501821
H	1.250857	-1.136193	-2.084053
N	-0.528905	1.199279	0.692544
O	-0.656044	1.11443	1.912037
O	-0.781009	2.198874	0.021915
Br	3.451121	0.0	0.0
