16

C	-0.497979	-0.157235	-1.429153
C	0.0	0.0	0.0
F	-1.814951	-0.547998	-1.429497
H	1.086925	0.0	0.0
H	-0.408559	0.894523	0.46556
N	-0.495743	1.265942	-1.998931
O	-1.532908	1.911223	-1.891611
O	0.556603	1.660073	-2.485561
C	0.322252	-1.051202	-2.315916
H	1.371111	-0.76091	-2.251641
H	0.216102	-2.072823	-1.956536
H	-0.034749	-0.978041	-3.34512
N	-0.453698	-1.137466	0.839957
O	-0.947239	-0.862804	1.931706
O	-0.284878	-2.276062	0.410879
Br	3.443572	0.0	0.0
