16

C	-0.496523	-0.127098	-1.43114
C	0.0	0.0	0.0
F	-1.808973	-0.53104	-1.440345
H	1.086897	0.0	0.0
H	-0.408783	0.881506	0.486804
N	-0.517182	1.308774	-1.967646
O	0.497456	1.706327	-2.526596
O	-1.538418	1.960978	-1.767275
C	0.33788	-0.987085	-2.33687
H	-0.023757	-0.909884	-3.363151
H	1.380248	-0.673734	-2.276426
H	0.258719	-2.015143	-1.989762
N	-0.439673	-1.157197	0.814383
O	-0.308318	-2.285213	0.345459
O	-0.875813	-0.908992	1.937041
Br	3.444954	0.0	0.0
