16

C	-0.546089	0.09729	-1.412513
C	0.0	0.0	0.0
F	-0.02924	1.165239	-2.065272
H	1.089294	0.0	0.0
H	-0.379958	-0.901617	0.472547
N	-0.076321	-1.153725	-2.155972
O	0.489549	-1.000566	-3.22654
O	-0.377681	-2.222027	-1.631849
C	-2.053905	0.129331	-1.525369
H	-2.432418	1.036981	-1.054131
H	-2.330682	0.139953	-2.582035
H	-2.490636	-0.740026	-1.036068
N	-0.530677	1.142824	0.780708
O	-1.46617	0.907077	1.554271
O	-0.044147	2.251832	0.582193
Br	3.462876	0.0	0.0
