16

C	-0.399677	0.036812	-1.465675
C	0.0	0.0	0.0
F	-0.026377	-1.174958	-1.971342
H	1.091171	0.0	0.0
H	-0.403292	-0.895035	0.469429
N	-1.920485	0.091467	-1.604331
O	-2.45937	1.074246	-1.097057
O	-2.487427	-0.808727	-2.212713
C	0.208443	1.134707	-2.293364
H	1.290704	1.083288	-2.1542
H	-0.045819	0.962545	-3.341996
H	-0.148271	2.108525	-1.967917
N	-0.460366	1.161526	0.795557
O	-1.169404	0.922285	1.774592
O	-0.077032	2.278056	0.45726
Br	3.44919	0.0	0.0
