16

C	-0.551028	-0.02864	-1.41775
C	0.0	0.0	0.0
F	-0.163418	1.145225	-1.996125
H	1.089337	0.0	0.0
H	-0.366329	0.924167	0.449201
N	0.097682	-1.15359	-2.209885
O	0.698991	-0.87551	-3.235385
O	-0.108785	-2.274744	-1.753845
C	-2.044284	-0.179926	-1.582745
H	-2.278832	-0.097086	-2.646655
H	-2.38778	-1.137651	-1.200882
H	-2.54725	0.619439	-1.038626
N	-0.53284	-1.097326	0.850274
O	0.204344	-2.032993	1.134656
O	-1.702399	-0.97279	1.233217
Br	3.4908	0.0	0.0
