16

C	-0.640099	-0.045478	-1.376888
C	0.0	0.0	0.0
F	-0.254995	1.100073	-2.02134
H	1.090597	0.0	0.0
H	-0.356626	0.910648	0.48116
N	-0.086912	-1.195996	-2.215274
O	-0.769684	-2.217834	-2.266144
O	0.983949	-1.004372	-2.772738
C	-2.146679	-0.112588	-1.362195
H	-2.523017	-0.082097	-2.385658
H	-2.522119	0.752646	-0.813214
H	-2.49945	-1.024035	-0.886354
N	-0.487928	-1.127362	0.827545
O	-0.083488	-2.249583	0.534084
O	-1.277463	-0.871228	1.741718
Br	3.471583	0.0	0.0
