16

C	-0.531865	-0.125268	-1.408725
C	0.0	0.0	0.0
F	-1.877794	-0.407144	-1.368151
H	1.089293	0.0	0.0
H	-0.352992	-0.871062	0.551764
N	-0.407651	1.18159	-2.188825
O	0.714866	1.458488	-2.586573
O	-1.429584	1.831092	-2.368956
C	0.206373	-1.203794	-2.160588
H	0.027972	-2.158939	-1.662472
H	-0.16628	-1.262473	-3.185313
H	1.275571	-0.990454	-2.151533
N	-0.523464	1.179474	0.727965
O	-1.136003	0.972974	1.776866
O	-0.295044	2.286549	0.24754
Br	3.45055	0.0	0.0
