16

C	-0.405876	-0.124465	-1.459409
C	0.0	0.0	0.0
F	-0.263006	1.124967	-2.076304
H	1.090645	0.0	0.0
H	-1.469	-0.387118	-1.559781
C	0.532464	-1.103574	-2.135736
H	1.546058	-0.869955	-1.7904
H	0.287533	-2.129907	-1.848862
H	0.448259	-1.017034	-3.221781
N	-0.422622	-1.120492	0.800708
H	0.374582	-1.727977	0.922189
H	-1.206342	-1.626051	0.410428
N	-0.65382	1.233759	0.53958
O	0.037403	2.188129	0.878088
O	-1.888127	1.211947	0.599262
F	2.6449	0.0	0.0
