16

C	-0.288926	0.042829	-1.486615
C	0.0	0.0	0.0
F	-1.680294	0.047505	-1.747522
H	1.090685	0.0	0.0
H	0.085285	-0.915147	-1.863635
C	0.398128	1.171035	-2.214253
H	1.43792	1.155138	-1.874689
H	0.338985	1.020889	-3.296181
H	-0.047417	2.132211	-1.959097
N	-0.500133	-1.154715	0.686295
H	-1.352615	-1.508344	0.272834
H	0.223885	-1.859626	0.676329
N	-0.554933	1.236714	0.632722
O	-1.618431	1.155614	1.256777
O	0.05737	2.288709	0.458655
F	2.612689	0.0	0.0
