16

C	-0.466024	-0.096426	-1.448544
C	0.0	0.0	0.0
F	-0.396622	1.157727	-2.067018
H	1.090808	0.0	0.0
H	-1.520554	-0.401252	-1.496247
C	0.462532	-1.049546	-2.167376
H	0.26303	-2.069614	-1.837123
H	0.316514	-0.979803	-3.248454
H	1.485507	-0.789466	-1.881105
N	-0.459801	-1.167108	0.703699
H	0.213638	-1.374184	1.42956
H	-1.365735	-0.99129	1.12034
N	-0.556865	1.271216	0.581858
O	0.077367	2.309323	0.432601
O	-1.661333	1.208496	1.147028
F	2.634646	0.0	0.0
