16

C	-0.408071	-0.129983	-1.458628
C	0.0	0.0	0.0
F	-0.262784	1.116945	-2.079907
H	1.090672	0.0	0.0
H	-1.471946	-0.3916	-1.55777
C	0.527961	-1.11257	-2.133301
H	0.282568	-2.136768	-1.839357
H	1.543084	-0.878882	-1.794203
H	0.43944	-1.03301	-3.219641
N	-0.42575	-1.11468	0.806948
H	-1.2184	-1.612362	0.423378
H	0.365741	-1.73198	0.92227
N	-0.651696	1.238059	0.53453
O	-1.886722	1.219036	0.589559
O	0.041495	2.191714	0.874046
F	2.646976	0.0	0.0
