18

C	-0.483821	0.015736	-1.452063
C	0.0	0.0	0.0
Br	0.041386	-1.676524	-2.274261
H	1.091272	0.0	0.0
C	-1.97354	0.192748	-1.629932
H	-2.251327	0.14358	-2.68116
H	-2.270582	1.166807	-1.237485
H	-2.493174	-0.603864	-1.093136
N	0.255417	1.075047	-2.288255
O	1.451875	1.194004	-2.100893
O	-0.404385	1.698703	-3.112507
N	-0.501949	-1.091325	0.74094
H	-1.481908	-0.978837	0.973991
H	0.018758	-1.195165	1.601723
N	-0.414814	1.338043	0.617632
O	-0.338851	2.351743	-0.083981
O	-0.599344	1.347408	1.837283
Cl	2.691401	0.0	0.0
