18

C	-0.451974	-0.004191	-1.452636
C	0.0	0.0	0.0
Br	-2.403861	0.063303	-1.604645
H	1.090951	0.0	0.0
C	0.143762	1.070487	-2.3457
H	1.22872	1.060922	-2.233992
H	-0.127283	0.874514	-3.386858
H	-0.23219	2.051836	-2.063147
N	0.026137	-1.360595	-2.012922
O	1.242888	-1.488579	-1.995697
O	-0.77726	-2.171701	-2.447925
N	-0.510931	-1.1161	0.692975
H	-1.509094	-1.04739	0.852181
H	-0.033018	-1.23951	1.576352
N	-0.399067	1.345434	0.59032
O	-1.302964	1.363631	1.433158
O	0.312714	2.307101	0.297759
Cl	2.694114	0.0	0.0
