18

C	-0.423709	0.0027	-1.483015
C	0.0	0.0	0.0
Br	-2.379696	0.089436	-1.644381
H	1.088794	0.0	0.0
C	0.226859	1.076843	-2.328643
H	-0.019366	0.909667	-3.37749
H	1.308167	1.016976	-2.163013
H	-0.117542	2.060784	-2.021496
N	-0.010908	-1.335881	-2.124568
O	-0.404449	-1.535509	-3.269316
O	0.727263	-2.077019	-1.485604
N	-0.482561	-1.035642	0.837314
H	0.133981	-1.829905	0.767414
H	-1.441945	-1.289575	0.65029
N	-0.44095	1.333087	0.575727
O	0.205393	2.328555	0.253706
O	-1.421029	1.33832	1.314969
Cl	3.298831	0.0	0.0
