18

C	-0.491457	0.017455	-1.449962
C	0.0	0.0	0.0
Br	0.041661	-1.708298	-2.228524
H	1.096443	0.0	0.0
C	-1.978577	0.181079	-1.627512
H	-2.472714	-0.550629	-0.988252
H	-2.271015	0.03794	-2.66637
H	-2.257319	1.190071	-1.32148
N	0.256702	1.054026	-2.298969
O	1.447657	1.196694	-2.0888
O	-0.388425	1.633721	-3.165266
N	-0.639363	-1.053877	0.756366
H	-0.520943	-0.834325	1.738242
H	-0.160217	-1.925557	0.57035
N	-0.396702	1.292737	0.63844
O	-0.422453	2.302925	-0.074786
O	-0.449512	1.311413	1.871573
Cl	2.690309	0.0	0.0
