18

C	-0.443322	-0.027535	-1.474378
C	0.0	0.0	0.0
Br	-0.391127	1.671981	-2.425232
H	1.091348	0.0	0.0
C	0.417682	-1.024497	-2.216109
H	1.459145	-0.71265	-2.110891
H	0.294145	-2.002284	-1.750099
H	0.132557	-1.07605	-3.265245
N	-1.909537	-0.438231	-1.521631
O	-2.260448	-1.243085	-2.37718
O	-2.64813	0.088329	-0.693236
N	-0.450299	-1.213577	0.609328
H	0.24661	-1.513934	1.280019
H	-1.328456	-1.052831	1.088679
N	-0.428319	1.229352	0.783531
O	-1.22494	1.073418	1.709835
O	0.091092	2.295102	0.473519
Cl	3.275356	0.0	0.0
