15

C	0.0	0.0	0.0
C	-0.457825	-0.534069	-1.379614
Cl	1.753036	0.0	0.0
H	0.438822	-0.655079	-1.995316
H	-0.370574	1.003268	0.171905
N	-0.40116	-0.781797	1.232311
O	-0.394253	-2.002734	1.193353
O	-0.584058	-0.08493	2.223824
N	-1.105985	0.668591	-2.146607
O	-0.756733	1.808211	-1.852281
O	-1.776987	0.358693	-3.121334
N	-1.191653	-1.731379	-1.428861
H	-2.045544	-1.603451	-0.880999
H	-1.455805	-1.898317	-2.391253
Br	-3.461281	0.0	0.0
