15

C	0.0	0.0	0.0
C	-0.682191	-0.384205	-1.289728
Cl	1.778034	0.0	0.0
H	-1.755404	-0.438679	-1.037632
H	-0.347324	0.996976	0.260445
N	-0.412841	-0.898743	1.143798
O	-0.784813	-2.031389	0.869128
O	-0.297188	-0.41866	2.265002
N	-0.321284	-1.747053	-1.848954
O	0.75445	-2.270537	-1.566674
O	-1.131678	-2.194085	-2.658311
N	-0.476281	0.634919	-2.271625
H	0.418075	0.53726	-2.735613
H	-1.225952	0.602342	-2.948928
Br	-3.782472	0.0	0.0
