12

C	-0.554451	0.000532	-1.406009
C	0.0	0.0	0.0
F	0.092697	0.920959	-2.198613
H	1.088259	0.0	0.0
H	-1.616108	0.262633	-1.408542
H	-0.334116	-0.874138	0.562191
C	-0.410833	-1.339814	-2.002909
N	-0.384852	-2.410094	-2.483684
N	-0.47428	1.186506	0.765418
O	-1.140682	2.042057	0.179798
O	-0.163111	1.223704	1.950697
Br	3.439629	0.0	0.0
