12

C	-0.497882	-0.040952	-1.418451
C	0.0	0.0	0.0
F	-1.882961	-0.198382	-1.44843
H	1.092127	0.0	0.0
H	-0.056823	-0.932579	-1.875991
H	-0.348295	-0.886212	0.529812
C	-0.146349	1.107823	-2.267394
N	0.104767	1.949038	-3.045559
N	-0.5054	1.161984	0.772348
O	-0.74004	2.20664	0.168893
O	-0.631529	0.999005	1.98352
Br	3.408859	0.0	0.0
