12

C	-0.482415	-0.030899	-1.440158
C	0.0	0.0	0.0
F	-0.155982	-1.269792	-1.96368
H	1.091531	0.0	0.0
H	0.021818	0.736074	-2.027775
H	-0.389868	-0.842485	0.568052
C	-1.943905	0.136282	-1.553024
N	-3.110009	0.232647	-1.645603
N	-0.448219	1.242363	0.663857
O	-0.612949	1.2125	1.879444
O	-0.58784	2.239931	-0.048495
Br	3.426383	0.0	0.0
