12

C	-0.502165	0.016578	-1.423737
C	0.0	0.0	0.0
F	-0.172159	-1.149207	-2.079885
H	1.088968	0.0	0.0
H	0.021569	0.837633	-1.925898
H	-0.331927	0.896723	0.530755
C	-1.953905	0.253991	-1.554732
N	-3.08759	0.525823	-1.691635
N	-0.509142	-1.164789	0.77117
O	0.038333	-1.384163	1.846252
O	-1.457147	-1.801816	0.307426
Br	3.476811	0.0	0.0
