12

C	-0.595639	-0.027138	-1.39694
C	0.0	0.0	0.0
F	-0.427192	1.238362	-1.942926
H	1.088269	0.0	0.0
H	-1.670791	-0.222018	-1.355182
H	-0.345646	0.894832	0.518333
C	0.003676	-1.015352	-2.3045
N	0.402138	-1.792932	-3.087494
N	-0.466977	-1.161387	0.789935
O	-0.946125	-2.118081	0.174887
O	-0.332543	-1.102472	2.006951
Br	3.41958	0.0	0.0
