12

C	-0.502565	-0.079404	-1.415257
C	0.0	0.0	0.0
F	-1.889353	-0.213144	-1.437553
H	1.092136	0.0	0.0
H	-0.078356	-0.99233	-1.844597
H	-0.346307	-0.869435	0.558043
C	-0.129822	1.036169	-2.297384
N	0.145096	1.847017	-3.100057
N	-0.502974	1.185268	0.7376
O	-0.626421	1.060043	1.953025
O	-0.739306	2.20995	0.10196
Br	3.41026	0.0	0.0
