15

C	0.0	0.0	0.0
C	-0.230253	0.25894	-1.514347
Br	1.967842	0.0	0.0
H	0.432147	-0.412993	-2.058491
H	0.012263	1.293891	-1.747659
C	-0.400649	1.144661	0.81363
N	-0.669394	2.089461	1.458733
C	-0.565902	-1.304837	0.514777
H	-0.255507	-2.127865	-0.129121
H	-0.230188	-1.482561	1.537693
H	-1.659731	-1.204936	0.487376
N	-1.564778	-0.022069	-2.136165
O	-2.163992	0.935367	-2.612319
O	-1.859774	-1.206878	-2.25118
Cl	-3.80706	0.0	0.0
