15

C	0.0	0.0	0.0
C	-0.578395	0.274616	-1.374384
Br	1.961089	0.0	0.0
H	-0.372194	-0.550499	-2.052985
H	-1.668581	0.389173	-1.232353
C	-0.375469	1.00766	0.994486
N	-0.607256	1.759428	1.866408
C	-0.481952	-1.375941	0.458588
H	-1.575975	-1.351215	0.470366
H	-0.101448	-1.589971	1.458173
H	-0.122103	-2.140631	-0.233541
N	-0.057823	1.495412	-2.040492
O	0.223094	2.46697	-1.343965
O	0.029135	1.452723	-3.267136
Cl	-3.642486	0.0	0.0
