15

C	0.0	0.0	0.0
C	-0.526157	0.139044	-1.428824
Br	1.963859	0.0	0.0
H	-0.258533	1.105616	-1.850492
H	-1.617519	0.002016	-1.374863
C	-0.381698	1.209838	0.730713
N	-0.601131	2.198712	1.32696
C	-0.460387	-1.253153	0.738647
H	-1.553067	-1.268383	0.718397
H	-0.059336	-2.138483	0.248999
H	-0.102999	-1.21403	1.769094
N	0.054074	-0.877743	-2.345328
O	0.741501	-0.466561	-3.281515
O	-0.19229	-2.06171	-2.122397
Cl	-3.58339	0.0	0.0
