15

C	0.0	0.0	0.0
C	-0.557536	0.15454	-1.413884
Br	1.963731	0.0	0.0
H	-0.318144	1.131783	-1.826974
H	-1.648665	0.013264	-1.331103
C	-0.359321	1.221774	0.727911
N	-0.566132	2.213609	1.323607
C	-0.486748	-1.228412	0.760946
H	-1.580337	-1.196634	0.75929
H	-0.112792	-1.190716	1.785439
H	-0.135083	-2.134546	0.272899
N	-0.008256	-0.836009	-2.374588
O	0.489915	-0.391865	-3.409975
O	-0.101676	-2.029687	-2.09636
Cl	-3.641821	0.0	0.0
