15

C	0.0	0.0	0.0
C	-0.514145	0.111277	-1.43541
Br	1.964086	0.0	0.0
H	-0.220118	1.060377	-1.878935
H	-1.607781	-0.002557	-1.386097
C	-0.388488	1.221082	0.707111
N	-0.603052	2.218516	1.290723
C	-0.454452	-1.242205	0.760153
H	-0.040367	-2.133369	0.292035
H	-0.102315	-1.178561	1.791136
H	-1.546254	-1.269119	0.734252
N	0.049943	-0.94207	-2.320075
O	-0.235245	-2.112849	-2.07462
O	0.762089	-0.573196	-3.255438
Cl	-3.561668	0.0	0.0
