15

C	0.0	0.0	0.0
C	-0.232187	0.068458	-1.536243
Br	1.966412	0.0	0.0
H	-0.030219	1.077273	-1.892224
H	0.462074	-0.632543	-1.996913
C	-0.397928	1.238988	0.663471
N	-0.650134	2.264043	1.180072
C	-0.554964	-1.233922	0.678184
H	-0.196173	-2.132008	0.174132
H	-0.250985	-1.2487	1.72702
H	-1.648348	-1.168982	0.607039
N	-1.542769	-0.345083	-2.135672
O	-2.141053	0.5011	-2.788545
O	-1.809481	-1.539337	-2.063978
Cl	-3.729169	0.0	0.0
