15

C	0.0	0.0	0.0
C	-0.558323	0.330452	-1.370931
Br	1.962705	0.0	0.0
H	-0.310847	-0.456037	-2.081901
H	-1.653585	0.419968	-1.25096
C	-0.376636	0.962468	1.039116
N	-0.596025	1.669544	1.952112
C	-0.484793	-1.394471	0.392549
H	-0.119143	-2.12756	-0.330082
H	-1.579565	-1.369045	0.397941
H	-0.112173	-1.654811	1.383937
N	-0.041065	1.591718	-1.957923
O	0.079119	2.565575	-1.220504
O	0.200027	1.580265	-3.164646
Cl	-3.636921	0.0	0.0
