15

C	0.0	0.0	0.0
C	-0.207886	0.172438	-1.529838
Br	1.96848	0.0	0.0
H	0.41498	-0.574144	-2.020065
H	0.103205	1.173033	-1.824748
C	-0.401203	1.190529	0.744166
N	-0.667718	2.172984	1.331542
C	-0.571322	-1.277102	0.573424
H	-0.230162	-2.133779	-0.009983
H	-1.66512	-1.190241	0.512927
H	-0.265506	-1.39103	1.615144
N	-1.553696	-0.051881	-2.146247
O	-2.123738	0.931133	-2.60398
O	-1.895023	-1.223567	-2.267697
Cl	-3.788478	0.0	0.0
