18

C	-0.361882	-0.008436	-1.494705
C	0.0	0.0	0.0
Br	-0.044588	1.743397	-2.299825
H	1.096558	0.0	0.0
C	0.452625	-1.042351	-2.239312
H	0.252339	-1.00512	-3.308455
H	1.506889	-0.842097	-2.032461
H	0.201025	-2.038029	-1.866358
N	-1.857916	-0.258069	-1.699006
O	-2.633238	0.330529	-0.951615
O	-2.190618	-1.021965	-2.601326
C	-0.450016	-1.276526	0.555513
N	-0.848383	-2.288212	1.002252
C	-0.453694	1.154493	0.894589
H	-1.533635	1.180469	1.028424
H	0.035427	1.028052	1.863171
H	-0.112511	2.100056	0.474099
Cl	3.305232	0.0	0.0
