18

C	-0.560787	0.0187	-1.435705
C	0.0	0.0	0.0
Br	0.261051	-1.403116	-2.475607
H	1.097052	0.0	0.0
C	-2.070396	-0.126408	-1.524943
H	-2.352143	-1.117718	-1.166958
H	-2.565283	0.633128	-0.919973
H	-2.396346	-0.01475	-2.559488
N	-0.157021	1.360619	-2.05407
O	0.952125	1.47516	-2.559332
O	-0.99443	2.261187	-1.938596
C	-0.479283	-1.213655	0.653771
N	-0.926273	-2.149396	1.20625
C	-0.402133	1.226497	0.833313
H	-1.483871	1.363572	0.905408
H	0.050446	2.125731	0.416603
H	0.004997	1.092044	1.836876
Cl	3.287255	0.0	0.0
