18

C	-0.356497	-0.134979	-1.493243
C	0.0	0.0	0.0
Br	0.042549	1.515626	-2.45156
H	1.096031	0.0	0.0
C	0.421077	-1.261584	-2.134964
H	1.482654	-1.050789	-1.984834
H	0.17508	-2.208247	-1.649754
H	0.189826	-1.336656	-3.197337
N	-1.863208	-0.3555	-1.642336
O	-2.232803	-1.436742	-2.093361
O	-2.60781	0.540265	-1.257234
C	-0.451771	-1.220108	0.670048
N	-0.836129	-2.185261	1.22035
C	-0.488837	1.227431	0.767363
H	-0.051476	1.188784	1.767248
H	-1.575358	1.262475	0.846849
H	-0.1309	2.133532	0.280154
Cl	3.296261	0.0	0.0
