14

C	-0.394125	-0.012715	-1.46815
C	0.0	0.0	0.0
F	-1.753876	-0.262491	-1.623803
H	1.102851	0.0	0.0
H	-0.247678	1.002254	-1.867361
N	0.333398	-1.048172	-2.134171
H	0.239874	-0.951252	-3.13914
H	1.319457	-0.995034	-1.881509
C	-0.489165	-1.203839	0.666488
N	-0.859599	-2.158866	1.239126
N	-0.531401	1.205113	0.666189
H	0.170998	1.928119	0.539546
H	-0.559427	1.029261	1.664811
Br	3.520723	0.0	0.0
