14

C	-0.383551	0.191258	-1.470028
C	0.0	0.0	0.0
F	-0.320948	-1.081409	-2.098161
H	1.095554	0.0	0.0
H	-1.426747	0.508016	-1.577981
N	0.493663	1.124212	-2.053901
H	1.459592	0.885323	-1.844926
H	0.351635	1.182458	-3.053118
C	-0.504329	-1.275256	0.520729
N	-0.995522	-2.228506	1.000722
N	-0.452428	1.13832	0.799356
H	0.275112	1.369555	1.465429
H	-1.292023	0.900837	1.31347
Br	3.506154	0.0	0.0
