14

C	-0.343346	0.075341	-1.494062
C	0.0	0.0	0.0
F	-0.153061	-1.200979	-2.064124
H	1.097844	0.0	0.0
H	-1.402154	0.306841	-1.661234
N	0.481732	1.064105	-2.074169
H	0.352583	1.114077	-3.076068
H	1.458567	0.871402	-1.856053
C	-0.543924	-1.217149	0.600928
N	-1.049119	-2.162738	1.0786
N	-0.44148	1.165917	0.759067
H	-1.423537	1.346056	0.566975
H	0.091575	1.960157	0.422616
Br	3.509022	0.0	0.0
