14

C	-0.357848	-0.049213	-1.472036
C	0.0	0.0	0.0
F	-1.744358	-0.181029	-1.628739
H	1.095858	0.0	0.0
H	-0.117853	0.931425	-1.898947
N	0.285864	-1.168257	-2.085654
H	1.244389	-1.226319	-1.750489
H	0.309513	-1.05312	-3.090533
C	-0.478581	-1.209543	0.689728
N	-0.907857	-2.110863	1.308995
N	-0.476353	1.234821	0.610591
H	0.078637	1.420227	1.436589
H	-1.443688	1.131845	0.890626
Br	3.47906	0.0	0.0
