19
Coordinates from ORCA-job run
  C   -0.71038527661429     -0.03471489912349     -0.68341503308811
  C   0.69827224291348     -0.38258440374262     -0.17886582816613
  F   -0.53968275936792      0.29692088271726     -2.04045731479178
  H   1.01913462322739     -1.21619415751478     -0.82056089025456
  C   -1.34751877629533      1.17151436895566     -0.02349878695530
  H   -2.33401360207006      1.32187710828459     -0.46500243141939
  H   -0.75016614190775      2.06392835138767     -0.20659353283839
  H   -1.45772541280336      1.03438061115609      1.05417413277904
  N   -1.63105415606363     -1.13693583346493     -0.65316465104893
  H   -2.14371940471172     -1.17744146931953      0.21573307213354
  H   -1.16225434931776     -2.02029027785051     -0.80981335466915
  C   0.69421980928254     -0.86365320638220      1.27010221430807
  H   0.01146081906899     -1.70162067687209      1.42421174033727
  H   1.69475891107594     -1.19535074065111      1.55869980899829
  H   0.40937363705989     -0.05885514981192      1.95341710370032
  C   1.69327195014667      0.76026425138293     -0.36688346979768
  H   1.65815198518106      1.14722888085074     -1.38539111985400
  H   2.71034566184202      0.41196627220691     -0.16817277551497
  H   1.48853023935384      1.58156008779133      0.32548111614187
