16
Coordinates from ORCA-job run
  C   1.00680286056826      0.01850903617623      0.09447490106844
  C   -0.39773529071752     -0.59172279497141     -0.11862691199542
  Br  2.24514385458416     -1.47558814838199      0.64515884899705
  H   -0.26361976336693     -1.39319346232631     -0.85485605527226
  N   1.46549121518596      0.69768922145992     -1.06562893911910
  H   1.52938557248557      0.05497024886423     -1.84725826489240
  H   2.37349768390391      1.12053940974592     -0.91607202334440
  C   0.97390843602380      0.93751556937739      1.23262148354845
  N   0.88843760972620      1.69206172482529      2.12951607326345
  C   -1.35717466195947      0.46331375643571     -0.67038983217607
  H   -1.45706527304392      1.28964214892849      0.03987876880694
  H   -1.02218688163622      0.87737475718249     -1.62081778974905
  H   -2.34182514736618      0.00900330002887     -0.80451463485805
  N   -0.84233600075208     -1.19106786099156      1.12691525628007
  H   -1.43639999558159     -1.98963377813377      0.95327847689160
  H   -1.36432421805396     -0.51941312821949      1.67732064255074
