16
Coordinates from ORCA-job run
  C   0.95534042895132      0.07246448506848      0.12948776294931
  C   -0.43177226268965     -0.54999654450690     -0.10133131138502
  Br  2.13127516620539     -1.39021095443613      0.95316717119402
  H   -0.27452080378481     -1.35327223159680     -0.84208489304459
  N   1.50959345473632      0.56881512805663     -1.07053495840005
  H   2.40701178103325      1.01379379132727     -0.92620083867194
  H   1.60053758394055     -0.16521076987579     -1.76273374587337
  C   0.90618045475601      1.12451229611428      1.14197497473318
  N   0.87710670946482      2.01552929311980      1.90716383523295
  C   -1.37877822201876      0.49464164602697     -0.68074909179268
  H   -1.55570586160446      1.28257217688898      0.05486088539817
  H   -2.33740582812870      0.02349444428131     -0.91632988673307
  H   -0.97670993014715      0.93897246000354     -1.58940447666307
  N   -0.96476893382820     -1.01459756687321      1.16532935694711
  H   -1.95717464527730     -1.19193969399388      1.07620676148230
  H   -0.51220909160863     -1.86956795960456      1.46217845462675
