16
Coordinates from ORCA-job run
  C   0.76362866094917      0.65876861872591      0.15496079924708
  C   -0.58130702773296      0.11111156490298     -0.37740461865078
  Br  0.52791090040522      2.48742514231492      0.84228002203447
  H   -0.94670243763817      0.83708489860884     -1.11697633594698
  N   1.24511810665917     -0.18432513987528      1.20958459336373
  H   1.22019677784086     -1.13774633173696      0.85669144124554
  H   2.19162802156071      0.06063524847577      1.47406068543111
  C   1.68926028026106      0.78983920956061     -0.98522541026537
  N   2.42101216496115      0.81666344771884     -1.90598955742042
  C   -1.61524454195127     -0.05903781146661      0.72325681353505
  H   -1.28286455854865     -0.80497187052071      1.44518717003656
  H   -1.79424433665124      0.87761681253767      1.24907153654781
  H   -2.56064149990827     -0.38587227913886      0.28083849885132
  N   -0.26619023470517     -1.19641252119742     -0.95655610611910
  H   0.08941877346283     -1.09876099512747     -1.90044624396822
  H   -1.09797904896447     -1.77201799378225     -0.99333328792180
