16
Coordinates from ORCA-job run
  C   0.86024809842421      0.19768400865989      0.25992462876358
  C   -0.52719984750068     -0.24258349238721     -0.23744521128260
  Br  0.96725254638528      0.16790015714629      2.21354538269981
  H   -0.42716138877402     -0.18387309772873     -1.33995500861995
  N   1.85384432904206     -0.73862746237495     -0.24052277057158
  H   2.75968532190539     -0.54441658549180      0.17186288137579
  H   1.93421051857272     -0.62058482696175     -1.24721646298037
  C   1.12239923365732      1.58582304910034     -0.15068595394100
  N   1.35574090157486      2.66559113928651     -0.55459273347133
  C   -1.64832987564853      0.69073593980176      0.18523565402219
  H   -2.58772538519708      0.35584794690077     -0.26251347671367
  H   -1.76134815138405      0.66727970156090      1.26943625294233
  H   -1.46966535213569      1.71642537709460     -0.14331242686437
  N   -0.78440403535338     -1.58406380107066      0.24756844952544
  H   -0.01271693145836     -2.19135248826528     -0.00120988355290
  H   -1.63482998211006     -1.94078556527067     -0.17011932133140
