16
Coordinates from ORCA-job run
  C   0.81198809534033      0.57083392719378      0.01488685088676
  C   -0.58940673650285      0.11898906448117     -0.43828872893436
  Br  0.64234437182110      2.45540394025264      0.77292823987278
  H   -0.97899277316874      0.91237679568858     -1.08241705875358
  N   1.37302091604005     -0.34630215950275      0.93736800035088
  H   2.35354154956717     -0.16332179716060      1.10991124440393
  H   0.87103876824523     -0.33797589915289      1.81626977734498
  C   1.70249285819731      0.72657512652064     -1.13524775442413
  N   2.45627895429510      0.86986981514185     -2.02472285120685
  C   -1.54606211867623     -0.10133870415472      0.73250407990734
  H   -1.63628153364345      0.77619308997153      1.37524434084528
  H   -2.53818246676302     -0.33481129694219      0.33901671227775
  H   -1.22828672015146     -0.95886395757360      1.33239005127366
  N   -0.36997429574007     -1.05463493674311     -1.27225586840727
  H   -1.21328600607528     -1.28677748318311     -1.78185632760722
  H   -0.10923286278520     -1.84421552483723     -0.69373070782994
