16
Coordinates from ORCA-job run
  C   0.92739690722640      0.30481836569185      0.08730284214123
  C   -0.45305685026658     -0.23326527157217     -0.34229324313448
  Br  0.97459500756272      0.29757228185150      2.14950320135918
  H   -0.41068816117763     -0.17322084307341     -1.43684480894574
  N   1.93607041342770     -0.48097675782096     -0.48146961144698
  H   1.72149553566241     -1.46060490279933     -0.32830192377445
  H   2.86747766777439     -0.23470983832704     -0.17593444482947
  C   1.09331525744231      1.71486858704272     -0.25537461948847
  N   1.21018103096281      2.84081096476567     -0.57144164081185
  C   -1.63183873758202      0.59231378360191      0.15349102114774
  H   -1.73360504347889      0.51733167347787      1.23729558754348
  H   -1.53057964869227      1.64729870088159     -0.11213905975383
  H   -2.54878296093755      0.21451783016406     -0.30557721350044
  N   -0.48742932363599     -1.65024423832475      0.00396159890484
  H   -0.78645935570980     -1.76043313134091      0.96656552821315
  H   -1.14909173857801     -2.13507720421859     -0.58874321362389
