16
Coordinates from ORCA-job run
  C   0.87624092589220      0.45922491863714     -0.00788182829738
  C   -0.62794972663148      0.18926018817383     -0.27576375899651
  Br  0.96877992012970      2.32952649106400      0.85014481675047
  H   -1.03799098456941      1.13291995752771     -0.65716837833726
  N   1.49870809202264     -0.52737015728147      0.76995063170089
  H   2.49888743678697     -0.39749012624005      0.84323609257141
  H   1.08872464095680     -0.60652485752123      1.69027130906964
  C   1.57860948973041      0.62973145682678     -1.27838274566066
  N   2.10665289904161      0.75686589632303     -2.32047904879848
  C   -1.35802572859806     -0.19611962044175      1.00039660535271
  H   -2.43430702404823     -0.21689575134683      0.81377270211013
  H   -1.17345056468896      0.51800954301716      1.80407788751345
  H   -1.05229459103954     -1.19699485731004      1.31559493628927
  N   -0.70587237010381     -0.89947419785224     -1.23743797986576
  H   -1.56514469189544     -1.42012793076816     -1.12350180652843
  H   -0.66256772298536     -0.55454095280790     -2.18782943487349
