16
Coordinates from ORCA-job run
  C   0.83999774736749      0.66590198244586      0.11153621132055
  C   -0.53477458606429      0.13559612613880     -0.38143873247799
  Br  0.61334043112308      2.46770019581743      0.85728434991483
  H   -0.94670337944167      0.89007263304025     -1.06686575334115
  N   1.51417268846226     -0.15177920086748      1.09113036678308
  H   1.48148612638607     -1.10766110712378      0.74393937461942
  H   1.01722670894950     -0.10554885810871      1.97313792010938
  C   1.70510318190445      0.80765871958429     -1.06707097103222
  N   2.33677598642110      0.87252695401250     -2.05592797732054
  C   -1.51067348307506     -0.10152382629831      0.75800643630438
  H   -2.48200374366507     -0.39497338479496      0.35142888438859
  H   -1.65766763307118      0.79443116387535      1.36032101329006
  H   -1.15609951278096     -0.91302652463392      1.39735001226543
  N   -0.23758109429855     -1.14090575703865     -1.02967056877501
  H   0.08510853793582     -0.99879296625889     -1.97975687652718
  H   -1.06670797615299     -1.72067614978980     -1.06540368952163
