16
Coordinates from ORCA-job run
  C   0.85789370563193      0.49767360999391     -0.03343869854691
  C   -0.60537384776142      0.17776284120222     -0.39371164328522
  Br  0.90685790278893      2.37173360236862      0.76532147019988
  H   -0.96756165462180      1.01507638519643     -0.99687014097080
  N   1.39879659295499     -0.48540554956796      0.83193236251069
  H   2.40110566424240     -0.39059005089264      0.93816658365108
  H   0.96104038668555     -0.45304194254697      1.74412147425343
  C   1.67669100005985      0.60249746183188     -1.24162072193517
  N   2.37183662496810      0.71033084542400     -2.18234464920633
  C   -1.49493962099707      0.01596308875086      0.83780251765119
  H   -1.46368391869219      0.88455493875664      1.49796547639281
  H   -1.21344832811588     -0.87787279273729      1.40164395808540
  H   -2.52830965756675     -0.12277908366492      0.51149699246961
  N   -0.54677868310060     -0.99227508988560     -1.25887792886842
  H   -0.31450624599637     -1.81303964639629     -0.71261570809935
  H   -1.44061992047968     -1.14158861783288     -1.70997134430189
