16
Coordinates from ORCA-job run
  C   0.98094162139519     -0.06181066012207      0.14429397699168
  C   -0.43923294196003     -0.61153628354175     -0.06386258539863
  Br  2.09466242744303     -1.47740958200079      0.94042741950498
  H   -0.31006472046213     -1.48373010543225     -0.72151882224822
  N   1.59149614383696      0.27377282590218     -1.12653271343765
  H   1.16407318529817      1.12297653737691     -1.48287609804965
  H   2.57925515529196      0.46197265337550     -0.99503065614492
  C   0.96581597177248      1.05160304706042      1.10601379164598
  N   0.97780469970662      2.01995661230571      1.77318566176158
  C   -1.31318425299909      0.42178302675445     -0.76458459889758
  H   -0.94497084262034      0.65139418494294     -1.76512785215385
  H   -1.38234041269810      1.33655436557527     -0.17050984100385
  H   -2.32314313734943      0.01995560289628     -0.88260775470758
  N   -1.01659647895234     -0.91204143891675      1.23558758725087
  H   -2.01413415883130     -1.05796917286112      1.14683623915318
  H   -0.61038225887166     -1.75447161331493      1.62330624573365
