16
Coordinates from ORCA-job run
  C   0.83753304660489      0.52547561644002      0.00195923899358
  C   -0.59688699621250      0.07542267301654     -0.38052256241162
  Br  0.69459420314101      2.52738809938118      0.46561522549842
  H   -1.01287577144714      0.88649628384999     -0.99123369792292
  N   1.41263325103174     -0.23152364905447      1.03271024098110
  H   0.89056589409814     -0.16451438113858      1.89572239259651
  H   2.38408698206505     -0.00134523177255      1.19392080005357
  C   1.69187930313917      0.50808785002351     -1.18387653372978
  N   2.34716024475102      0.47727870696333     -2.15887990190192
  C   -1.46303874101456     -0.12020473195523      0.85293838891720
  H   -2.50190898299340     -0.27156663785840      0.55049423368290
  H   -1.43169195045092      0.74833622987581      1.51202634165392
  H   -1.13824987224677     -1.01071362794008      1.39678064158501
  N   -0.47642646633410     -1.18145747621770     -1.10318715279846
  H   -1.31040438046259     -1.74227239459677     -0.99106583541399
  H   -0.32596976366900     -1.02388732901661     -2.09140181978351
