16
Coordinates from ORCA-job run
  C   0.85786851192675      0.26194751708374      0.04849449071579
  C   -0.57651213508703     -0.20902311577183     -0.32433249202937
  Br  1.00692030511069      0.30212517541853      2.08380011866812
  H   -0.58370989449241     -0.11870288896410     -1.41776475095773
  N   1.83230390482909     -0.57859450682866     -0.53734373953566
  H   1.74198485933386     -1.52452384736831     -0.18901437269015
  H   2.77487987627482     -0.24965148171165     -0.36950336547120
  C   1.08207338672479      1.64319553393214     -0.36905457337057
  N   1.25938634516100      2.74282513101862     -0.74475085718953
  C   -1.66859998444814      0.67803191574804      0.25080450330848
  H   -1.75903464956561      0.53688764152483      1.32891150995242
  H   -2.61553786228996      0.39572009104945     -0.21055406924889
  H   -1.48151654799404      1.73577433181110      0.05490083180703
  N   -0.84780573648860     -1.59362338635194     -0.00986354901054
  H   -0.71811008950240     -1.78469432442643      0.97612252478886
  H   -0.30459028949283     -2.23769378616354     -0.56785220973706
