16
Coordinates from ORCA-job run
  C   0.86090350464557      0.63245691439215      0.14193115491194
  C   -0.57468683737331      0.20909804739639     -0.27468865438054
  Br  0.76558458914460      2.23664284200955      1.26943727687404
  H   -1.05261807584573      1.08752329808724     -0.73148177221008
  N   1.63402755414191     -0.36826319279361      0.83711592483141
  H   1.25217157329535     -0.50900897051996      1.76528879522463
  H   1.53763282731160     -1.23105196130204      0.30619742190761
  C   1.57611042174167      1.02335560115958     -1.08007585721138
  N   2.08171267936000      1.29785350940254     -2.10483659016074
  C   -1.40757263989535     -0.26613784564331      0.90314947811215
  H   -1.46196190143314      0.48421576908323      1.69122981970775
  H   -2.42709060673325     -0.47478625547687      0.56856465601994
  H   -0.99326667261103     -1.19050903365424      1.31160400278442
  N   -0.38589342118924     -0.90249546255998     -1.20590606675900
  H   -0.17955807155027     -0.56317286230143     -2.13824974255575
  H   -1.22549492300938     -1.46572039727923     -1.25827984709640
