16
Coordinates from ORCA-job run
  C   0.78995456016267      0.51910674388088      0.17625705010303
  C   -0.66052084371451      0.27693831660014     -0.32924220633062
  Br  0.87364402809994      2.15472586578958      1.25807843834193
  H   -0.95189858190468      1.19081577555508     -0.85840104262798
  N   1.24280450039344     -0.57951343131500      0.99985430823206
  H   2.17612732442136     -0.39616315023940      1.35081727571262
  H   1.28405219153400     -1.41742850217850      0.42831751300609
  C   1.65462340929837      0.77084754562270     -0.99039480744913
  N   2.32619366960046      0.88538814922818     -1.94954665401886
  C   -1.63202131251614      0.01857263686198      0.81130283629384
  H   -1.66653384855148      0.85421716506990      1.50877644472358
  H   -2.62544529237300     -0.13148156181599      0.38659202455304
  H   -1.34229468875609     -0.87451032431205      1.36761242329883
  N   -0.74060620439438     -0.82124330327840     -1.27570531173419
  H   -0.09944720606656     -0.72824372934875     -2.05315228794104
  H   -0.62763170523342     -1.72202819612033     -0.83016600416319
