16
Coordinates from ORCA-job run
  C   0.74357545091172      0.59429429623109      0.13882811587644
  C   -0.62876069026000      0.15732088566859     -0.44840771420314
  Br  0.63706509939312      2.42733533080820      0.83496758848302
  H   -0.89323984920484      0.91730473072581     -1.19172281076373
  N   1.14191954928424     -0.26919543969222      1.22685852777132
  H   1.27048592175943     -1.20909034369040      0.86563035620389
  H   2.02538510602359      0.03816169777415      1.61770134573077
  C   1.72561800487940      0.64493846620394     -0.95878350026441
  N   2.49875836004044      0.59470429806385     -1.84438897486112
  C   -1.71312453827542      0.08651219009079      0.61483125630461
  H   -1.45654821674488     -0.65159971066157      1.37682157768045
  H   -2.64626867634878     -0.20809779709448      0.13282564752101
  H   -1.85586698812923      1.04618650821863      1.10932870075769
  N   -0.55601495154299     -1.11960786581218     -1.13526692040357
  H   -0.45800259861718     -1.89662714734656     -0.49559733005629
  H   0.16401901683140     -1.15254009948764     -1.84562586577696
