16
Coordinates from ORCA-job run
  C   0.77927149136104      0.51850850450151      0.01665249338946
  C   -0.65046822383482      0.10736387500490     -0.43505565478480
  Br  0.72929173959856      2.47617382874599      0.57596994627368
  H   -0.99233953200461      0.88539851144286     -1.12326344897213
  N   1.27170573660667     -0.34084732065861      1.02766730992294
  H   2.24868032543335     -0.17442638754490      1.23385356596657
  H   0.72959858207394     -0.25474710423749      1.87814536649095
  C   1.68209121416796      0.50017808204231     -1.13393549178553
  N   2.37666318246669      0.45189536242723     -2.08083857665595
  C   -1.60945110433735      0.00992053856718      0.74279589542929
  H   -1.36851678430920     -0.85727735161639      1.36436529133805
  H   -2.61590645221729     -0.14503942260520      0.35385047066803
  H   -1.60259141983154      0.91071110396099      1.35807048767477
  N   -0.64483053247167     -1.15479025899708     -1.15035392541265
  H   -0.15770707352582     -1.07318723050339     -2.03490058524537
  H   -0.17649114917591     -1.86183473052993     -0.59502314429730
