16
Coordinates from ORCA-job run
  C   0.96696938968377     -0.08420553475884      0.20988767402096
  C   -0.46069406821526     -0.59805645629314     -0.03479878123233
  Br  1.97126774731067     -1.46036564545615      1.19913325714461
  H   -0.33076786821023     -1.53200455899551     -0.60121400347953
  N   1.66444875104866      0.10795277349317     -1.04563450133397
  H   1.29229715946204      0.93284294270747     -1.50597525235409
  H   2.64931400527385      0.27478387769552     -0.87062618675810
  C   0.94424478406837      1.11351117422688      1.06409249519516
  N   0.96034737163136      2.13817046024837      1.64096853074298
  C   -1.24740138227654      0.39698398851991     -0.87984393148806
  H   -0.81351525005265      0.51526704186080     -1.87342732862037
  H   -1.30944552410379      1.36634507604124     -0.37883117915004
  H   -2.26597129116570      0.02527156191648     -1.02047576369103
  N   -1.12531118540979     -0.75399075896077      1.24813845292971
  H   -0.77684091884598     -1.56946546038794      1.73662925518704
  H   -2.12094172019879     -0.87304048185748      1.11097726288705
