16
Coordinates from ORCA-job run
  C   1.01628152189074     -0.13781620071633      0.16813306662519
  C   -0.42105228700215     -0.64760072410785     -0.05479734851202
  Br  2.10751128181239     -1.57678179759573      0.91834446046358
  H   -0.30786525928020     -1.56661553673979     -0.63745871840107
  N   1.62738813281602      0.24637367363245     -1.08986306015386
  H   2.62021853051548      0.40258894279903     -0.95608116227376
  H   1.21812855402192      1.11859779355793     -1.40993957309462
  C   0.99062647840185      0.94297249058403      1.16886282596023
  N   0.91577142181748      1.86528755823877      1.89542509231999
  C   -1.23811302099327      0.36499623634267     -0.85986231484463
  H   -0.84400364227249      0.50856692981854     -1.86768332681426
  H   -2.26184856044092     -0.00382923558747     -0.95457607805596
  H   -1.27927128935406      1.33113978713181     -0.34540390041380
  N   -1.00031308312267     -0.98241925370199      1.23594523503906
  H   -1.43541036527392     -0.16833594876347      1.65500419946896
  H   -1.70704841353617     -1.69812471489260      1.13295060268698
