16
Coordinates from ORCA-job run
  C   0.87617742860440      0.45430752576595     -0.06726132343067
  C   -0.60665449190767      0.10218051607490     -0.35752716911922
  Br  0.91592179126604      2.48438141550026      0.27684160600867
  H   -0.98625678773640      0.90787494235395     -0.99841393704588
  N   1.43887484940247     -0.28620986626673      0.98200617975962
  H   2.43251921113088     -0.12970616096074      1.08528198748841
  H   0.96706126922155     -0.12635465724400      1.86148832740951
  C   1.66637810269692      0.29693586885593     -1.28680930669886
  N   2.26750098500637      0.15429332633958     -2.28641323899339
  C   -1.42460055450442      0.05080404495007      0.92241162743442
  H   -1.14482524471589     -0.82947562775936      1.50668133711726
  H   -2.48561777035730     -0.03313756729492      0.67554640105441
  H   -1.29334486397897      0.95177518974200      1.52332835275967
  N   -0.62175676265521     -1.20034767405739     -1.00549539439299
  H   -0.50803395422316     -1.11334022840730     -2.00727823874593
  H   -1.49134320724961     -1.68298104759218     -0.82238721060502
