16
Coordinates from ORCA-job run
  C   1.07277786399317      0.00543356088537      0.22790727527372
  C   -0.32644106684390     -0.63268463435632      0.02443564319298
  Br  2.21272605483194     -1.30854746552027      1.14996302416895
  H   -0.14314847918279     -1.58646670967256     -0.48381511525020
  N   1.78024989412036      0.41313671315260     -0.95994764644002
  H   1.83531892212191     -0.35499223637337     -1.61880946376073
  H   1.32878472604557      1.20953181225664     -1.39355686568172
  C   0.92334764819241      1.16600626437846      1.11083375961148
  N   0.71188413943847      2.11256306018956      1.77442551329779
  C   -1.20041720059955      0.25739867134959     -0.86212173679212
  H   -1.33773671705652      1.24233218419248     -0.40402921418404
  H   -2.18566190859199     -0.20277010055658     -0.96499362936388
  H   -0.79076267301151      0.39137496544870     -1.86526697550481
  N   -0.91117255116597     -0.91970045724137      1.32286869412715
  H   -1.56915549827446     -1.68480864373622      1.26065912425239
  H   -1.40159315401714     -0.10780698439672      1.68044761305305
