16
Coordinates from ORCA-job run
  C   1.01798382883079     -0.15152883697110      0.14012760760287
  C   -0.42146355570868     -0.63926605611896     -0.11726513752230
  Br  2.12026156957635     -1.65877689955773      0.72014197588507
  H   -0.31447532197694     -1.49133099654777     -0.79502359217802
  N   1.61277988024655      0.36551172901726     -1.07750940118652
  H   1.19925773617235      1.26625149292541     -1.29733125173992
  H   2.60720379862104      0.50810645692130     -0.94072814712640
  C   1.00327167042405      0.81798370857984      1.24929120746923
  N   0.94046951267161      1.66167218209376      2.06668650817177
  C   -1.25006032179458      0.45021798562459     -0.80081437550003
  H   -1.28664601551869      1.35632522835693     -0.18646938760005
  H   -0.86777283790371      0.70090602837152     -1.79204910921797
  H   -2.27412882442291      0.09029707215229     -0.92207688401531
  N   -0.98314514187556     -1.10876634594988      1.13865536594657
  H   -1.68133917173599     -1.82081670914070      0.97259644922200
  H   -1.42319680560568     -0.34678603975677      1.64176817178902
