16
Coordinates from ORCA-job run
  C   0.93273508133894     -0.04321790494448      0.07432122240980
  C   -0.51549592365465     -0.54893919715159     -0.18350979402026
  Br  2.02290220360920     -1.65506627700123      0.70926508650158
  H   -0.42150611536515     -1.30451589851035     -0.97435579463891
  N   1.49417047696080      0.55701774296028     -1.07148426646163
  H   1.48812264845481     -0.08176487484106     -1.85807356471810
  H   2.43435963957344      0.89803317992284     -0.91582048981624
  C   0.95393157554849      0.87965012898722      1.20674649153984
  N   0.90663491518693      1.62909636509376      2.11111716422268
  C   -1.38095668576233      0.60579956205518     -0.67817643566941
  H   -0.97544205784082      1.06359897406833     -1.57878681900301
  H   -2.38135397644465      0.21995938756431     -0.87821108916183
  H   -1.46118091595315      1.38076975779594      0.09027015981867
  N   -1.16452145687617     -1.16957018334674      0.94656718299793
  H   -0.61731425366777     -1.93757834989844      1.31314444613332
  H   -1.31308515510791     -0.49427241275396      1.68798649986556
