16
Coordinates from ORCA-job run
  C   0.92787412813059      0.31271081744051      0.04773973084774
  C   -0.46480404649217     -0.23734348163179     -0.32192283035525
  Br  1.06295607660450      0.30943373285104      2.10585802377405
  H   -0.46966043072989     -0.18005577316402     -1.41748951929492
  N   1.91806798987745     -0.46615441023870     -0.56228644631908
  H   2.85910073975991     -0.21090554209295     -0.29628345581309
  H   1.71841744928303     -1.44690469137564     -0.39652113370520
  C   1.06747063883960      1.72320513824686     -0.30484608231766
  N   1.16111213757035      2.84923830785805     -0.62830476606138
  C   -1.62863946493676      0.57930609707957      0.22141033277626
  H   -1.54868272558198      1.63415865813508     -0.05261890468848
  H   -1.68251414281166      0.50777106399744      1.30900148848223
  H   -2.56111145662919      0.19112516784713     -0.19610074735414
  N   -0.47287990575614     -1.65422108567457      0.02784388432334
  H   -0.73077791953860     -1.76491461356205      1.00226732760176
  H   -1.15592906758905     -2.14444938571594     -0.53574690189616
