16
Coordinates from ORCA-job run
  C   0.97274314135422     -0.09653249508167      0.17347447702765
  C   -0.45640430947896     -0.59580573775903     -0.08986603394484
  Br  2.01571923095820     -1.56360745891061      0.97386448922207
  H   -0.33428884695996     -1.45797059001584     -0.76198191855424
  N   1.63361830855876      0.24457800770069     -1.07055619164528
  H   2.62260726115472      0.39539894721302     -0.90437656814547
  H   1.24727274493593      1.11625977780706     -1.41967049028542
  C   0.96336592510250      0.99672206157633      1.15804485724861
  N   0.98531910952795      1.95071562985267      1.84532220918623
  C   -1.27415339906983      0.47937506084750     -0.79584295530450
  H   -0.86725230679570      0.71628734269022     -1.77954986660462
  H   -2.29239383286743      0.11356107725608     -0.95318549377742
  H   -1.33234957937600      1.38420630374902     -0.18556783951162
  N   -1.08450743950344     -0.90348353170005      1.18400456358789
  H   -0.71761755527645     -1.76606009563772      1.56661516220374
  H   -2.08267845226451     -1.01564429958769      1.06027159929723
