16
Coordinates from ORCA-job run
  C   0.79442368160881      0.54079478005557     -0.04971872028268
  C   -0.64970552967959      0.10862276801359     -0.43352917260149
  Br  0.88100820892369      2.48613650940914      0.20207234364493
  H   -0.91612776911509      0.70265864448740     -1.31457401641254
  N   1.21309704090486     -0.08387501173896      1.18396906984195
  H   1.23401784597937     -1.08964395485162      1.04812608974590
  H   2.14860368420273      0.21662149465709      1.43365891132712
  C   1.68687856211868      0.24898899702890     -1.18578585697636
  N   2.39135607531611     -0.07081679663511     -2.07233038094690
  C   -1.64674744815453      0.37825886128410      0.68204922833763
  H   -2.63583085185911      0.07285064220111      0.33803081612562
  H   -1.67395985231568      1.43283867806636      0.95218603477998
  H   -1.38782393158763     -0.19274328278958      1.57544880647975
  N   -0.72820953999954     -1.29123302885308     -0.80964861184916
  H   -0.07305906451317     -1.54899257255798     -1.53659684092805
  H   -0.63692111182992     -1.91046672777695     -0.01535770028570
