16
Coordinates from ORCA-job run
  C   0.84309471520523      0.16396741376234      0.20990278979434
  C   -0.55793546515033     -0.23580519787642     -0.33094684587454
  Br  0.91459328373165     -0.03824986980045      2.16056904970196
  H   -0.45115095666331     -0.11938874666799     -1.42095961048618
  N   1.82773846248059     -0.74364241015239     -0.34631142784825
  H   1.87745014050911     -0.59566983686156     -1.35092251011115
  H   2.74500871034531     -0.55957762920194      0.04512927351514
  C   1.12637995574827      1.57688015557794     -0.07514258404357
  N   1.36403151516638      2.68603325725891     -0.38795932885888
  C   -1.66883324250728      0.68599830126220      0.13952391914656
  H   -2.59994092556405      0.37861858441424     -0.33837455617371
  H   -1.47092437487148      1.72850629679123     -0.11485084627976
  H   -1.79857359127903      0.61316948194500      1.22205261879315
  N   -0.90221785472841     -1.61510531952439     -0.07109433883209
  H   -1.15386141399732     -1.72240041980760      0.90512890803429
  H   -0.09485895842535     -2.20333406111914     -0.24574451047731
