16
Coordinates from ORCA-job run
  C   1.01254079235833     -0.08389492293527      0.09416637609248
  C   -0.43548125026522     -0.58909396380301     -0.19072883866053
  Br  2.11456931397388     -1.67341093974625      0.55471620807300
  H   -0.33172414832298     -1.29775054978143     -1.02266081539675
  N   1.68329772791619      0.59253179288789     -0.98080567985992
  H   1.56330534051280      0.08479230359089     -1.84986136936266
  H   1.34423336145655      1.54125243318435     -1.08258046476643
  C   0.99177101208452      0.77775539782522      1.27702930179982
  N   0.88150051710333      1.48618947330729      2.20847282800916
  C   -1.31791892765021      0.57649383266466     -0.62602165142710
  H   -1.40530561412711      1.31958257202911      0.17286576556852
  H   -2.31539391405511      0.18942614684061     -0.83609048534001
  H   -0.94316104529753      1.07098650876803     -1.52270341683526
  N   -1.08499825793898     -1.27838622992379      0.90176961904963
  H   -1.22518965798800     -0.65124701023008      1.68638828709959
  H   -0.53304524976045     -2.06622684467820      1.21604433595644
