16
Coordinates from ORCA-job run
  C   0.92616262259239      0.31498577164379      0.06346101016447
  C   -0.45860421179552     -0.23953375533279     -0.32986782618431
  Br  1.02494067226307      0.31589525419697      2.12343569798900
  H   -0.44367259162459     -0.18390877811130     -1.42538060383721
  N   1.92904057311477     -0.46223245877212     -0.52754157322550
  H   2.86474890752005     -0.20433580767493     -0.24535345635444
  H   1.72960286185464     -1.44340140467685     -0.36325717427835
  C   1.06769628374040      1.72528531493711     -0.28899815322721
  N   1.16313037388596      2.85113402545532     -0.61260731907178
  C   -1.63362013496075      0.57565521199553      0.19128476125178
  H   -1.70660844055368      0.50603276084871      1.27783038749363
  H   -2.55776921660280      0.18467929125059     -0.24175979872224
  H   -1.55148476978324      1.63013412145985     -0.08308605224557
  N   -0.46958968290059     -1.65534441339835      0.02285681235631
  H   -0.74527055827546     -1.76465952260268      0.99250392157127
  H   -1.13970268847464     -2.14938561121884     -0.55252063367984
