16
Coordinates from ORCA-job run
  C   0.84879847255761      0.56285165259538      0.06908598332511
  C   -0.59449648943161      0.20740258515857     -0.41407625868683
  Br  0.84986829153190      2.43767890193713      0.71157796923690
  H   -0.88930035424663      0.99817798124040     -1.11165423603133
  N   1.41757995849474     -0.25685125524068      1.10358239786625
  H   1.65972463805967     -1.17612826758502      0.75543304485897
  H   0.79735289172834     -0.32656164409030      1.89994629140192
  C   1.73896207742945      0.52879250126996     -1.09527822098239
  N   2.39572745663559      0.44665616381038     -2.06650824479957
  C   -1.59030868362845      0.15018721102516      0.73404313088349
  H   -1.58801963531448      1.06269910716931      1.32956227773320
  H   -2.58714006496739     -0.00039284000953      0.31907526854450
  H   -1.38071852563102     -0.70054014920623      1.38990058927483
  N   -0.64101945216363     -1.05148473736523     -1.13321106226642
  H   -0.38998392944792     -1.83136586966627     -0.53861100303492
  H   -0.04802665160617     -1.04912134104302     -1.95386792732369
