16
Coordinates from ORCA-job run
  C   0.85796979048824      0.26420209476664      0.06023841679991
  C   -0.57165894361385     -0.20568608679534     -0.33392890688880
  Br  0.98851877640228      0.26432931586968      2.09784963644522
  H   -0.56805819815767     -0.09586558037601     -1.42559147459859
  N   1.84088101410213     -0.56035462415149     -0.53318362119741
  H   2.78065678891084     -0.23040912186313     -0.35236263756030
  H   1.75207461391145     -1.51339579702938     -0.20466405244598
  C   1.07765796268307      1.65506007492449     -0.32609318797632
  N   1.23198575837206      2.76712018135271     -0.67460904571553
  C   -1.67264292658067      0.66568926415596      0.24776317032668
  H   -1.48849032660016      1.72797018667967      0.07554755243160
  H   -2.61384852971518      0.38868281040878     -0.22838565107567
  H   -1.77302518585258      0.50191337357016      1.32180488285725
  N   -0.83883023832395     -1.59710393127492     -0.04688213251477
  H   -0.29001929545391     -2.22785495147648     -0.61454735979665
  H   -0.71317106057210     -1.80629720876133      0.93604441090937
