16
Coordinates from ORCA-job run
  C   1.00854901556936     -0.05745064421206      0.14250225502397
  C   -0.43441635324005     -0.61813345072926     -0.04728448763161
  Br  2.08592438422748     -1.47807304586439      1.01969767177369
  H   -0.31329182168904     -1.51600762072407     -0.66710315343183
  N   1.71508510224081      0.32699106857724     -1.04812432147318
  H   1.37714285097585      1.21432895922771     -1.40081607232274
  H   1.62369218021562     -0.38770082905884     -1.76124287384279
  C   0.96070790290551      1.07533088275599      1.06824370779689
  N   0.83208045381330      1.99734278952935      1.78604034167514
  C   -1.29505273027063      0.39767704321009     -0.79166807621047
  H   -2.29018547765415     -0.02841581096724     -0.92205937467976
  H   -1.39640530578267      1.32187263153591     -0.21417186414320
  H   -0.89289528413405      0.64313486552761     -1.77495168212733
  N   -1.11976666652843     -1.00532732700668      1.16563496475697
  H   -0.58366338038317     -1.68753327686429      1.68625991475326
  H   -1.27750487026575     -0.19903623493707      1.76004305008301
