16

C	-0.504474	0.023882	-1.436863
C	0.0	0.0	0.0
Br	-0.232371	-1.706212	-2.361652
H	1.095728	0.0	0.0
H	0.151404	0.689593	-2.00417
N	-1.909366	0.354079	-1.509543
H	-1.988773	1.183159	-0.927226
H	-2.152643	0.603735	-2.459932
C	-0.588477	-1.100721	0.85859
H	-0.322758	-2.08598	0.47204
H	-0.168425	-1.018305	1.86569
H	-1.682868	-1.0361	0.915502
N	-0.357399	1.349633	0.538134
H	-0.866318	1.2432	1.406388
H	0.532513	1.778364	0.769743
F	2.692396	0.0	0.0
