16

C	-0.584659	0.079421	-1.39091
C	0.0	0.0	0.0
Br	0.209904	-1.400167	-2.567445
H	1.093734	0.0	0.0
H	-0.219309	0.979521	-1.879911
N	-2.006848	0.032976	-1.427114
H	-2.347159	0.142644	-2.374255
H	-2.332154	-0.860604	-1.079606
C	-0.475558	-1.207229	0.79791
H	0.099809	-1.243282	1.726569
H	-0.28891	-2.142054	0.26174
H	-1.543032	-1.153249	1.061006
N	-0.342532	1.285992	0.632908
H	-1.195424	1.215148	1.176986
H	0.431302	1.514823	1.246087
F	2.674584	0.0	0.0
