16

C	-0.380065	0.000198	-1.473573
C	0.0	0.0	0.0
Br	0.1626	-1.670524	-2.385484
H	1.095615	0.0	0.0
H	0.252778	0.744424	-1.970734
N	-1.806375	0.149329	-1.732767
H	-2.115562	0.992197	-1.260957
H	-1.955841	0.286097	-2.72638
C	-0.63424	-1.108574	0.812653
H	-1.729609	-1.042677	0.81679
H	-0.351599	-2.090557	0.427787
H	-0.274653	-1.020615	1.839668
N	-0.302637	1.310702	0.607716
H	-1.181333	1.725107	0.314474
H	0.46151	1.931963	0.374876
F	2.679518	0.0	0.0
