16

C	-0.667933	0.089753	-1.351048
C	0.0	0.0	0.0
Br	0.062948	1.658468	-2.387942
H	1.10045	0.0	0.0
H	-1.70814	0.417293	-1.210573
N	-0.511082	-1.068779	-2.176984
H	-0.534617	-1.9091	-1.622184
H	-1.218342	-1.111802	-2.896872
C	-0.452553	-1.269157	0.720588
H	0.042535	-2.15066	0.303295
H	-1.543582	-1.40287	0.715859
H	-0.122527	-1.202763	1.761347
N	-0.493214	1.155752	0.801017
H	-0.217508	1.986053	0.283077
H	0.118342	1.174307	1.612394
F	2.686802	0.0	0.0
