16

C	-0.427268	0.050935	-1.463881
C	0.0	0.0	0.0
Br	0.090972	-1.6186	-2.402777
H	1.094921	0.0	0.0
H	0.171307	0.818555	-1.958433
N	-1.829421	0.283955	-1.776124
H	-2.404187	-0.290427	-1.168497
H	-2.04896	1.257785	-1.598761
C	-0.607962	-1.129858	0.806495
H	-0.204076	-1.066825	1.81826
H	-0.352564	-2.106229	0.390816
H	-1.703083	-1.054182	0.886033
N	-0.314968	1.29289	0.643666
H	0.494243	1.887649	0.505218
H	-1.130577	1.743896	0.244629
F	2.674495	0.0	0.0
