15
Coordinates from ORCA-job run
  C   -0.28296240394010      0.27952777958139     -0.27526525770297
  C   0.57082974620260     -0.95764116407149     -0.02539577587451
  Br  -0.38800251682885      0.62118738129827     -2.20633043969371
  H   0.53755279157513     -1.11428091888599      1.06979069281771
  H   0.08814747966013     -1.82164986859160     -0.49103324164426
  C   -1.70677175806994      0.07558511314691      0.22511187673872
  H   -2.30860033973618      0.96638508371083      0.03589236062615
  H   -2.18504807268316     -0.77514849064659     -0.26430583343346
  H   -1.68541819020936     -0.10784894190944      1.30528499002352
  N   0.39916539768186      1.42616947784409      0.31382412661104
  H   -0.04624461460102      2.28784834341455      0.01995817393610
  H   0.31463639436351      1.36189386277623      1.32508101447294
  N   1.90875903212930     -0.79844010672297     -0.56338813485184
  H   2.51014764396516     -1.53754743081337     -0.22320288983436
  H   2.27280941049093      0.09195987986917     -0.24602166219107
