15
Coordinates from ORCA-job run
  C   -0.32068101706280      0.38442867252356     -0.32503884120085
  C   0.71675237882545     -0.69932582412210     -0.59932294414730
  Br  -1.07829259092764      0.85696344512595     -2.16327240804154
  H   1.48514107011957     -0.27692671169396     -1.26612947617393
  H   0.23660307557144     -1.51969923911878     -1.13640860242125
  C   -1.48850559438329     -0.09796683047461      0.50932849617914
  H   -2.23190677802977      0.69400268807976      0.62532335567468
  H   -1.96992910824019     -0.95216568130354      0.03338321101173
  H   -1.11169754736813     -0.40114579156186      1.48639644988631
  N   0.31037533270631      1.50080206826675      0.27968415444034
  H   -0.35589181016468      2.21521301768925      0.54480981207358
  H   1.00761855959190      1.91204472818291     -0.32924477497196
  N   1.21963022636599     -1.19683859980628      0.67639357709747
  H   1.72244093927782     -0.45445764375471      1.14595933479671
  H   1.85834286371803     -1.96592829803236      0.51813865579685
