15
Coordinates from ORCA-job run
  C   -0.36005782219756      0.29145579022737     -0.09894442510877
  C   0.61821840012457     -0.85565439615257      0.11614704346104
  Br  -0.46132951167139      0.49282989034468     -2.18019054440616
  H   0.60959442377705     -1.06299709845074      1.19198252707442
  H   0.24465220833689     -1.74208825307304     -0.41027250358472
  C   -1.77578999119898     -0.04236919431410      0.31525346029532
  H   -2.13356957481692     -0.93635398649462     -0.19591380460905
  H   -2.45369905499549      0.78003105481727      0.07922568489743
  H   -1.78816296226175     -0.20647971392124      1.39688735477965
  N   0.12469164137064      1.44486796020298      0.51677415561657
  H   -0.41897261994647      2.27296166723592      0.31904730018907
  H   1.10837407491549      1.57419768405611      0.31076984297067
  N   1.96651318553247     -0.44671424218431     -0.25891733432357
  H   2.06850434664159     -0.50494144987995     -1.26472564528056
  H   2.65003325638986     -1.05974571241377      0.16487688802868
