15
Coordinates from ORCA-job run
  C   -0.23644917294983      0.49055547313232     -0.17796176270059
  C   1.04845013530717     -0.32397612324498     -0.01058524352292
  Br  -0.69071712615373      0.37752582524378     -2.17454459795956
  H   1.81001438285665      0.11477871005722     -0.66410551697764
  H   1.37481562779671     -0.15845156084175      1.02371735166130
  C   -1.41485056990679     -0.11373731716174      0.55118557534009
  H   -1.20484608988018     -0.09871156963596      1.62592707472017
  H   -1.56560862431120     -1.13927676355026      0.22067706854804
  H   -2.32419345265167      0.46187083101724      0.36559828581289
  N   -0.01044987855862      1.82690737333746      0.22359081974612
  H   -0.84034149300008      2.39723422096635      0.12451294706038
  H   0.74609022742648      2.25690664606281     -0.29430399522869
  N   0.84751027559808     -1.73447237782733     -0.29732270337952
  H   1.45135208979353     -2.05678813513012     -1.03755145999227
  H   1.00722366863349     -2.30236523242503      0.52116615687220
