15
Coordinates from ORCA-job run
  C   -0.40267505464515      0.42940823831616     -0.42205617677281
  C   0.76453775889333     -0.55574615050323     -0.57725146651759
  Br  -1.08050354141825      0.76660216309767     -2.23864829744332
  H   0.41920352783363     -1.46120336997699     -1.09231941515635
  H   1.52081606280616     -0.08545691580181     -1.21143978474625
  C   -1.52557614181512     -0.15990559757445      0.41084468596569
  H   -1.86800732758469     -1.11133254389060     -0.00180986277204
  H   -1.16354233971731     -0.31991864342879      1.43083272567500
  H   -2.36075717140601      0.53861620318465      0.44907182904590
  N   -0.01784232117028      1.70785474112365      0.13962735201567
  H   0.47192172464245      1.49600345075646      1.00598029778811
  H   0.64463541863809      2.16506687211955     -0.47875022536377
  N   1.33645735642609     -0.80814526753981      0.74749740359274
  H   0.92752874667610     -1.63715559620506      1.15797887873141
  H   2.33280330184098     -0.96468758367739      0.67944205595761
