15
Coordinates from ORCA-job run
  C   -0.31564570752237      0.43647471033375     -0.28271137014150
  C   1.00710669609423     -0.28156727661974     -0.00953185118567
  Br  -0.77164748151058      0.06176985359147     -2.18512770378774
  H   1.77106736407881      0.16282125448637     -0.66722715574500
  H   1.27696355168475     -0.02708850753503      1.02319908502283
  C   -1.44482098522297     -0.08074130580331      0.58277869559150
  H   -1.56610486886935     -1.15351249131677      0.45352615666778
  H   -2.37086582742208      0.43932612901385      0.33703918792517
  H   -1.19841264909369      0.10897325071778      1.63442298622878
  N   -0.22511661638255      1.86942326354012     -0.16357022521196
  H   -0.20088391921946      2.12822001856742      0.81660810640617
  H   0.60717680891941      2.22290292809261     -0.62172464951314
  N   0.89235118455860     -1.72881847941030     -0.10562751369804
  H   0.81448804955019     -1.99491892836612     -1.07971538976761
  H   1.72534440035705     -2.16526441929211      0.26866164120842
