15
Coordinates from ORCA-job run
  C   -0.24604642339260      0.45294053585933     -0.27292663517097
  C   1.08671600070091     -0.29360013225497     -0.07628360205370
  Br  -0.77389294340695      0.18887553499278     -2.17026675711493
  H   1.82562857121692      0.16482578566478     -0.74201835780603
  H   1.40360339146645     -0.07289740314426      0.95172224278288
  C   -1.35993692170024     -0.08971668040461      0.59995860316476
  H   -2.27188814208350      0.48478406371322      0.43709363572517
  H   -1.56299202073994     -1.13786324332764      0.38318118830419
  H   -1.06889797993888     -0.00073692778646      1.65361597017482
  N   -0.13498460492328      1.87653345127133     -0.07042467969969
  H   0.68415372518977      2.24461422845572     -0.54147587889047
  H   -0.05814350616643      2.07415606226356      0.92166032606812
  N   1.12840549766047     -1.72823374857016     -0.26660762719597
  H   0.82000235185100     -1.96308090192260     -1.20168251255831
  H   0.52627300426628     -2.20060062481001      0.39445408427012
