15
Coordinates from ORCA-job run
  C   -0.35127206783232      0.38678266327172     -0.43176322510397
  C   0.77181564866315     -0.63670142736422     -0.68580700505138
  Br  -1.12003129468959      0.76116296133023     -2.22627634174070
  H   1.48442775684967     -0.19086414489421     -1.38711230864937
  H   0.35277235326419     -1.51835748624444     -1.17786467914328
  C   -1.46529671642664     -0.16503988151081      0.43834111367548
  H   -1.08057884852586     -0.38464573655514      1.43977021701845
  H   -2.26446342272047      0.57038191978153      0.53137087322001
  H   -1.87336777475311     -1.08224660984650      0.01190513282785
  N   0.09015713891236      1.64544900756256      0.10837316160197
  H   0.93254462970177      1.97748047269491     -0.34540778929966
  H   0.23348209472141      1.58343313068095      1.10817111300248
  N   1.49863219137821     -1.06984770823466      0.49562774134121
  H   1.88468378260122     -0.28113275007761      0.99754380407685
  H   0.90749452885602     -1.59785441059431      1.12312819222404
