15

C	0.0	0.0	0.0
C	-0.469905	0.08284	-1.459524
F	1.395192	0.0	0.0
H	-1.57404	0.103134	-1.38623
H	-0.171094	-0.828375	-1.983784
C	-0.445535	1.218483	0.779827
H	-0.008028	2.122789	0.349446
H	-0.111404	1.106395	1.813281
H	-1.539854	1.259687	0.742122
N	-0.506511	-1.176042	0.639929
H	-1.531369	-1.0211	0.657148
H	-0.35368	-1.976462	0.032466
C	0.039463	1.235673	-2.189651
N	0.450339	2.167647	-2.774508
H	-3.121779	0.0	0.0
