15

C	0.0	0.0	0.0
C	-0.46842	-0.11174	-1.459452
F	1.393116	0.0	0.0
H	-0.110238	0.739389	-2.050504
H	-1.57698	-0.090329	-1.384711
C	-0.453167	1.328685	0.566461
H	-0.104518	1.396353	1.599211
H	-0.026931	2.150591	-0.016792
H	-1.548395	1.351485	0.532637
N	-0.491152	-1.056426	0.833414
H	-0.282281	-1.946886	0.389581
H	-1.51898	-0.927378	0.803512
C	-0.01685	-1.350646	-2.080777
N	0.346537	-2.361171	-2.559056
H	-3.109983	0.0	0.0
