15

C	0.0	0.0	0.0
C	-0.469734	0.083503	-1.459739
F	1.395222	0.0	0.0
H	-1.575046	0.103982	-1.385934
H	-0.167396	-0.827549	-1.985004
C	-0.444531	1.218185	0.78042
H	-0.112595	1.103412	1.814424
H	-0.003127	2.121687	0.352798
H	-1.538562	1.261579	0.740697
N	-0.506582	-1.176565	0.639044
H	-0.355115	-1.975498	0.028465
H	-1.531949	-1.021357	0.657257
C	0.038499	1.238057	-2.188369
N	0.447902	2.17219	-2.770864
H	-3.114927	0.0	0.0
