16

C	-0.362682	0.083404	-1.483431
C	0.0	0.0	0.0
Cl	-2.139945	0.414674	-1.714544
H	1.093449	0.0	0.0
C	0.460296	1.101253	-2.266803
H	0.312565	0.941383	-3.336383
H	1.508756	0.941821	-1.991539
H	0.16526	2.108975	-1.991951
C	-0.12118	-1.241696	-2.06561
N	0.08136	-2.279519	-2.579286
C	-0.501596	-1.195481	0.638282
N	-0.848968	-2.199735	1.143957
N	-0.343131	1.174277	0.791259
O	-0.487009	1.011136	2.008407
O	-0.317355	2.276735	0.231299
H	2.405833	0.0	0.0
