16

C	-0.34412	0.086989	-1.488557
C	0.0	0.0	0.0
Cl	-2.118083	0.38764	-1.745777
H	1.093483	0.0	0.0
C	0.472363	1.118575	-2.26057
H	0.146463	2.118243	-1.996193
H	0.354714	0.951039	-3.335474
H	1.518847	0.981026	-1.95808
C	-0.068748	-1.231727	-2.072986
N	0.143984	-2.267838	-2.587513
C	-0.502866	-1.202958	0.62503
N	-0.833268	-2.217172	1.124103
N	-0.355204	1.171518	0.788454
O	-0.536981	1.004206	2.001807
O	-0.306433	2.278731	0.235551
H	2.404613	0.0	0.0
