16

C	-0.396122	0.034851	-1.481073
C	0.0	0.0	0.0
Cl	0.080231	-1.564047	-2.178836
H	1.093209	0.0	0.0
C	-1.89144	0.219313	-1.707361
H	-2.19162	1.190273	-1.312935
H	-2.432215	-0.578037	-1.194386
H	-2.11595	0.176178	-2.775403
C	0.357593	1.042366	-2.239658
N	0.852925	1.805309	-2.98404
C	-0.495375	-1.160737	0.69574
N	-0.862938	-2.136621	1.241942
N	-0.346648	1.200608	0.705259
O	-0.341339	1.15753	1.947967
O	-0.430167	2.251844	0.036488
H	2.315967	0.0	0.0
