16

C	-0.362434	0.074749	-1.483798
C	0.0	0.0	0.0
Cl	-2.139577	0.399184	-1.717296
H	1.093502	0.0	0.0
C	0.45796	1.090791	-2.271873
H	0.160557	2.098933	-2.001811
H	1.506823	0.936014	-1.996647
H	0.310341	0.926367	-3.34077
C	-0.116417	-1.252004	-2.059043
N	0.088754	-2.288816	-2.572888
C	-0.499897	-1.193645	0.643835
N	-0.849512	-2.195284	1.153049
N	-0.345442	1.176845	0.785867
O	-0.331066	2.276871	0.219783
O	-0.47909	1.018894	2.005278
H	2.406159	0.0	0.0
