16

C	-0.362381	0.065733	-1.483624
C	0.0	0.0	0.0
Cl	-2.140749	0.38352	-1.717662
H	1.093432	0.0	0.0
C	0.454765	1.079461	-2.277952
H	0.310176	0.907374	-3.346487
H	0.153561	2.088954	-2.014
H	1.50384	0.928962	-2.000786
C	-0.111296	-1.263369	-2.052928
N	0.097889	-2.296849	-2.572765
C	-0.500712	-1.188133	0.652008
N	-0.850909	-2.189028	1.160993
N	-0.339147	1.181899	0.779849
O	-0.465903	1.031974	2.001294
O	-0.324031	2.278246	0.207111
H	2.404413	0.0	0.0
