16

C	-0.412611	0.02946	-1.476086
C	0.0	0.0	0.0
Cl	0.093859	-1.55715	-2.181893
H	1.093219	0.0	0.0
C	-1.915215	0.177161	-1.683433
H	-2.428932	-0.635538	-1.166216
H	-2.152003	0.131325	-2.748695
H	-2.235003	1.139047	-1.281652
C	0.308098	1.056541	-2.240056
N	0.779282	1.835757	-2.983546
C	-0.484571	-1.164326	0.698487
N	-0.841738	-2.144873	1.243053
N	-0.35134	1.196712	0.710768
O	-0.31628	1.153651	1.95273
O	-0.471134	2.245746	0.044519
H	2.319309	0.0	0.0
