16

C	-0.411074	0.007877	-1.476705
C	0.0	0.0	0.0
Cl	0.087043	-1.592232	-2.157675
H	1.093235	0.0	0.0
C	-1.912584	0.160435	-1.687357
H	-2.227339	1.130178	-1.300523
H	-2.431249	-0.640995	-1.158233
H	-2.149527	0.099137	-2.751793
C	0.315586	1.01868	-2.256722
N	0.7929	1.778761	-3.015986
C	-0.485453	-1.153132	0.71643
N	-0.844511	-2.122987	1.278888
N	-0.350989	1.208227	0.690832
O	-0.324877	1.184052	1.933715
O	-0.461703	2.247944	0.00745
H	2.318811	0.0	0.0
