17

C	0.0	0.0	0.0
C	-0.17998	0.024743	-1.553748
F	1.400609	0.0	0.0
H	0.331193	-0.904634	-1.852936
C	-0.459569	1.245688	0.718122
H	-0.062742	2.137667	0.233427
H	-1.549998	1.26294	0.702923
H	-0.112248	1.206421	1.756152
N	-0.489597	-1.243979	0.507845
H	-1.503673	-1.240659	0.331755
H	-0.388017	-1.239457	1.518201
N	0.484103	1.225797	-2.081072
H	1.472808	1.136318	-1.883895
H	0.359247	1.254314	-3.086416
C	-1.492083	-0.042559	-2.204608
N	-2.358233	-0.102287	-2.996385
Br	-3.899657	0.0	0.0
