17

C	-0.442338	0.001555	-1.475775
C	0.0	0.0	0.0
F	-0.095836	1.247431	-1.994332
H	1.09556	0.0	0.0
C	0.295298	-1.039253	-2.291759
H	1.372371	-0.904994	-2.16464
H	0.029135	-0.930035	-3.347521
H	0.024135	-2.044124	-1.959742
N	-1.89322	-0.035702	-1.542279
H	-2.219113	-0.940085	-1.218486
H	-2.174511	0.069057	-2.512155
C	-0.482136	-1.245743	0.609313
N	-0.914197	-2.255674	1.026283
N	-0.481298	1.147052	0.756137
H	-1.398368	1.392832	0.393773
H	0.151537	1.914198	0.558211
Br	3.541762	0.0	0.0
