17

C	-0.340882	-0.031726	-1.487441
C	0.0	0.0	0.0
F	-1.737986	-0.132365	-1.636876
H	1.096319	0.0	0.0
C	0.081892	1.249877	-2.174803
H	-0.155077	1.174856	-3.241115
H	-0.43514	2.105426	-1.742651
H	1.159445	1.380315	-2.047389
N	0.238345	-1.231827	-2.027631
H	0.246399	-1.181605	-3.038397
H	1.202386	-1.299598	-1.712478
C	-0.484434	-1.21992	0.666064
N	-0.904667	-2.123352	1.288984
N	-0.470414	1.216968	0.649059
H	-1.424548	1.09451	0.964206
H	0.113846	1.394034	1.456212
Br	3.470738	0.0	0.0
