17

C	-0.492738	0.03424	-1.459557
C	0.0	0.0	0.0
F	-0.073256	1.28831	-1.928237
H	1.09992	0.0	0.0
C	0.183061	-1.020359	-2.301085
H	-0.091832	-2.023551	-1.966865
H	1.264564	-0.90523	-2.20878
H	-0.122688	-0.889625	-3.341018
N	-1.922336	0.008661	-1.592393
H	-2.318761	0.514668	-0.805794
H	-2.250233	-0.947923	-1.55654
C	-0.486653	-1.232241	0.62185
N	-0.906657	-2.218222	1.102274
N	-0.573161	1.157748	0.708261
H	-0.245645	1.124083	1.668383
H	-0.13024	1.970676	0.290705
Br	3.541932	0.0	0.0
