17

C	-0.422353	0.054189	-1.479654
C	0.0	0.0	0.0
F	-1.812952	0.441707	-1.492494
H	1.094379	0.0	0.0
C	0.334413	1.132244	-2.218405
H	1.404681	0.934245	-2.140017
H	0.114646	2.107455	-1.783442
H	0.026279	1.150101	-3.267968
N	-0.256207	-1.20061	-2.103275
H	-0.785191	-1.924923	-1.634778
H	-0.517119	-1.156415	-3.079344
C	-0.519395	-1.226517	0.618157
N	-0.954708	-2.226373	1.05448
N	-0.426728	1.155648	0.781408
H	0.293191	1.86538	0.728609
H	-1.295827	1.518202	0.408998
Br	3.516052	0.0	0.0
