17

C	-0.353012	-0.021685	-1.484653
C	0.0	0.0	0.0
F	-1.752055	-0.086134	-1.622374
H	1.096368	0.0	0.0
C	0.100563	1.249379	-2.173634
H	-0.15591	1.187912	-3.236038
H	1.183191	1.343572	-2.062232
H	-0.379961	2.119422	-1.729245
N	0.187191	-1.236979	-2.033067
H	0.147741	-1.20073	-3.045537
H	1.164245	-1.310433	-1.758391
C	-0.484278	-1.222327	0.664282
N	-0.890266	-2.130771	1.289442
N	-0.471135	1.215766	0.651825
H	0.079785	1.364872	1.488291
H	-1.441398	1.105418	0.921306
Br	3.476291	0.0	0.0
