17

C	-0.352403	-0.040153	-1.484965
C	0.0	0.0	0.0
F	-1.754147	-0.131887	-1.620453
H	1.09832	0.0	0.0
C	0.072521	1.231533	-2.188433
H	1.153764	1.342588	-2.091446
H	-0.194459	1.160111	-3.246717
H	-0.41712	2.096033	-1.745568
N	0.213507	-1.250622	-2.0201
H	0.196017	-1.208896	-3.033815
H	1.186065	-1.320565	-1.72642
C	-0.489853	-1.211199	0.67696
N	-0.958841	-2.095875	1.293117
N	-0.462222	1.223979	0.645451
H	0.150658	1.424737	1.424828
H	-1.402014	1.09757	0.997767
Br	3.474933	0.0	0.0
