17

C	-0.497248	0.102257	-1.455452
C	0.0	0.0	0.0
F	-0.077113	1.373659	-1.871836
H	1.096245	0.0	0.0
C	0.169613	-0.920208	-2.345493
H	1.253572	-0.820656	-2.249237
H	-0.134462	-0.739118	-3.37853
H	-0.116184	-1.935465	-2.056469
N	-1.930191	0.088949	-1.585216
H	-2.313837	0.5908	-0.79051
H	-2.260358	-0.866222	-1.544408
C	-0.489724	-1.258766	0.565092
N	-0.923589	-2.264552	0.990928
N	-0.569918	1.126525	0.761458
H	-0.253674	1.036172	1.72165
H	-0.11206	1.953817	0.393428
Br	3.533528	0.0	0.0
