17
Coordinates from ORCA-job run
  C   0.83937982991430      0.00042988392029      0.30556982361843
  C   -0.68653498417216     -0.10739188341787      0.37041914894557
  Br  1.56715926080938     -0.74000615681301      2.07699706061065
  H   -1.00830245128933      0.35493619721052      1.30823312804058
  N   1.34986871489010     -0.60330924238457     -0.82305612492493
  H   0.93800274276807     -1.52182658509039     -0.93707213958275
  H   2.35691227499806     -0.58793713400624     -0.89113651955634
  N   1.31702340027583      1.44197954291591      0.37437095792554
  O   0.61771235304741      2.23194055457510      0.99734406665458
  O   2.38039014127802      1.69311750512954     -0.17950925717978
  N   -0.99552104243576     -1.53513190826940      0.28052043485296
  H   -0.86203340248413     -1.97701773509810      1.18255583935822
  H   -1.96473625819729     -1.65530469513144      0.01401919837844
  C   -1.33198235384954      0.61792348122607     -0.80455145992579
  H   -1.03061392000190      0.15948749508261     -1.74666403074054
  H   -1.06586788156537      1.67432524044599     -0.81754530269076
  H   -2.41985642398571      0.55478543970499     -0.71049482378409
