17
Coordinates from ORCA-job run
  C   0.77276056376480     -0.17412349355700      0.38883341591051
  C   -0.76986859124671     -0.10748168950084      0.41268214402571
  Br  1.45753428452981     -1.08800936937481      1.96373864060819
  H   -1.04367362010517      0.40636002515353      1.33654635454808
  N   1.26192941371977     -0.82575690196955     -0.76304889340145
  H   2.26363098444008     -0.96367062321679     -0.71550268559259
  H   1.05605862183250     -0.27488300469648     -1.58841755639420
  N   1.28935158247613      1.29007967130161      0.52234147070842
  O   2.02550695386119      1.69629846591242     -0.37270081473940
  O   0.87752861753161      1.94241900104671      1.47228074278572
  N   -1.40058419886632     -1.41062505492705      0.40681419513802
  H   -1.23174957912864     -1.88629096813936      1.28458645986045
  H   -0.99071147927286     -1.97523378165225     -0.32943428180291
  C   -1.27811035276156      0.69918925816130     -0.78009432531348
  H   -0.81421109918960      1.68479019401971     -0.85934001630106
  H   -1.12078925070353      0.15440826390291     -1.71534186188349
  H   -2.35360285088151      0.83253000753595     -0.66394298815652
