17
Coordinates from ORCA-job run
  C   0.84126788198428      0.03000925087236      0.29889657195243
  C   -0.68065548811151     -0.11874896760840      0.37791014641998
  Br  1.60144260902145     -0.65171150673199      2.08000725937377
  H   -1.00787740220452      0.35462487069431      1.30832156813925
  N   1.36022034798694     -0.58351435167733     -0.82060855427783
  H   2.36584275693544     -0.54107341312744     -0.89774134139026
  H   0.97353004158991     -1.51550350135714     -0.91158599536958
  N   1.27901241087443      1.48550737988058      0.33294943037441
  O   0.56260506109631      2.26897511490246      0.94455046393116
  O   2.33081737046198      1.75405136212454     -0.23470201835493
  N   -0.95006588536898     -1.55623416956330      0.32032843828044
  H   -0.79679207771573     -1.97534355227586      1.23007882822919
  H   -1.91772502786019     -1.70867238373891      0.06492354992655
  C   -1.35476642700171      0.56335033050074     -0.80676531010551
  H   -1.04581498526295      0.09565308183423     -1.74181665442812
  H   -2.43967328919306      0.46986173415187     -0.70395130945184
  H   -1.12036789723208      1.62676872111930     -0.84179507324911
