17
Coordinates from ORCA-job run
  C   0.87116370936778      0.03335006551931      0.49363467192523
  C   -0.61827367141794     -0.33990281198581      0.29975445261617
  Br  1.10255709931029      0.87428543809097      2.25881052225851
  H   -0.90712998570476     -0.79187829205210      1.25367743358049
  N   1.71607845967019     -1.05036490608222      0.29390251554518
  H   1.21184349271184     -1.90906606830470      0.12288748369338
  H   2.51993838243202     -1.11144165212595      0.89461929026167
  N   1.18742798495977      1.13297043600460     -0.57827440434520
  O   1.43304355692179      2.28524002246190     -0.25889736227103
  O   1.09723547580076      0.70521139113811     -1.72594612977288
  N   -0.71111507895019     -1.40145110385034     -0.69854694332440
  H   -0.53521867643616     -1.02435310002214     -1.62281739521409
  H   -1.64199186188002     -1.79906561484321     -0.68196703381036
  C   -1.50465991448242      0.87555055820109      0.04046083823223
  H   -2.55252101118210      0.56801221336911      0.07190037643207
  H   -1.35810982090877      1.65894643395927      0.78669536267663
  H   -1.30826814021207      1.29295699052214     -0.94989367848366
