17
Coordinates from ORCA-job run
  C   0.84537389684926      0.02419166882752      0.28796533339352
  C   -0.67444022591178     -0.13704765313772      0.38238991089693
  Br  1.63506749943863     -0.71804298922964      2.03262722287990
  H   -0.99138232775251      0.29926966241906      1.33423550041024
  N   1.35206793579163     -0.54423964755484     -0.85981245033811
  H   0.96576363684423     -1.47243704610748     -0.98398781130976
  H   2.35608166871735     -0.49448068357928     -0.95057382064656
  N   1.27398395068151      1.48045852171506      0.37081409515086
  O   0.56504338174141      2.23368001592812      1.02744934082407
  O   2.31206083951715      1.77926630209085     -0.20690461598359
  N   -0.93629438348011     -1.57276786126933      0.27471224546501
  H   -0.76173679636184     -2.02518202372799      1.16453939267914
  H   -1.90804148444262     -1.72227932945329      0.03346841516657
  C   -1.36888727403892      0.58464453180216     -0.76659136845629
  H   -2.45165878008147      0.47848729949647     -0.65391513631950
  H   -1.06867756702984      0.15593351723710     -1.72293945824576
  H   -1.14332397048214      1.65054571454326     -0.76347679556666
