17
Coordinates from ORCA-job run
  C   0.81197170108024      0.04975554271745      0.21732856813613
  C   -0.58727259403154     -0.03428084015328     -0.40017479785393
  Br  0.92361979064268      1.69109589745577      1.35858181181197
  H   -0.49113760706793     -0.81557142529708     -1.15963165411190
  N   1.21229455495872     -1.12640059638818      0.88059408004634
  H   2.17999142320330     -1.05506373282108      1.17504343507850
  H   0.63037953623275     -1.31013992374960      1.68672038847737
  N   1.86737585442965      0.24484380830800     -0.87749518475490
  O   3.02503642346443      0.34455142777470     -0.48842865327761
  O   1.49903939540872      0.21608374909316     -2.04431461249229
  N   -0.90871730352444      1.22612296311054     -1.04565346384148
  H   -1.20193672449019      1.08258178589100     -2.00020655494520
  H   -1.62716762701601      1.72748253012088     -0.54184687875898
  C   -1.62601240565514     -0.47890839759436      0.62495318852737
  H   -2.60323266881425     -0.51489905136734      0.13897865628889
  H   -1.68222778264075      0.23047435833132      1.45466171010380
  H   -1.42200396618029     -1.47672809543186      1.01888996156589
