17
Coordinates from ORCA-job run
  C   0.76367719130133      0.17640264235003      0.23931595374383
  C   -0.68251685462357     -0.20394850084174     -0.16976158897404
  Br  1.01130810355821      2.09105305789941      0.36350764960871
  H   -0.67689847372508     -1.30242305133972     -0.15376362964065
  N   1.12927662058746     -0.42189392812549      1.46643276233657
  H   2.06320650603432     -0.15898644239052      1.75591082806271
  H   1.06675733056807     -1.43050803383231      1.38934697753796
  N   1.64783098149335     -0.34223568353110     -0.94140046565900
  O   1.81646009116001     -1.56122489508909     -0.91054260017934
  O   2.02491457679617      0.41078067713156     -1.82685971904928
  N   -1.08042330034313      0.19972181286289     -1.49934055980249
  H   -0.52776849880184     -0.24316629823216     -2.22167642199817
  H   -1.00573229413026      1.20422811056546     -1.60713980199467
  C   -1.69341523848214      0.30026361758812      0.84914389327810
  H   -1.38640007947612      0.06352627809421      1.86715278520179
  H   -2.65699023268070     -0.16380554154389      0.63501835226517
  H   -1.81328642923607      1.38221617843433      0.76465558526280
