17
Coordinates from ORCA-job run
  C   0.80757757093527     -0.03421048130818      0.38040440374758
  C   -0.71985293166089     -0.10660164111174      0.30110956572832
  Br  1.35308000015673     -0.87054413012475      2.17471065715053
  H   -1.11650736388150      0.32165964817147      1.22634949137451
  N   1.40704963114334     -0.60010312438161     -0.72373545557390
  H   0.98876039421839     -1.50221388390107     -0.91731704173401
  H   2.41619623834488     -0.60550281501619     -0.70023346888649
  N   1.30687576694628      1.39037069810429      0.55912695162252
  O   0.57017727594424      2.16913402460764      1.15241130188742
  O   2.42153269521348      1.63927590112520      0.11616368547650
  N   -1.04863860655400     -1.52077212591373      0.11689655844197
  H   -1.00731825617518     -2.00591448149330      1.00554855563226
  H   -1.99159953668691     -1.60490072862859     -0.24169156243793
  C   -1.23931651580834      0.68615091159277     -0.89254120907078
  H   -0.86082975376675      0.26421446908112     -1.82380396542505
  H   -0.95293182150912      1.73552476653058     -0.83067964168061
  H   -2.33225478685992      0.64443299266620     -0.90171882625285
