17
Coordinates from ORCA-job run
  C   0.77098133264159      0.37468290630735      0.15475443159020
  C   -0.55467028703037     -0.36626788293196     -0.17152794434086
  Br  0.56810435815507      2.28722204645982     -0.05189307486495
  H   -0.30429092522263     -1.42085125957239      0.00327329890498
  N   1.37158436124225      0.11836048942692      1.42952490224241
  H   0.89031328716701      0.62153713405255      2.16145865071006
  H   1.36724112522996     -0.87666693773029      1.62212436780389
  N   1.77422527072797     -0.14954734244713     -0.88345067296599
  O   2.11855711363922     -1.30952413879672     -0.66440219527970
  O   2.09561450067931      0.52720498186136     -1.84798094422481
  N   -1.01044268996768     -0.25686591425650     -1.54071553160937
  H   -1.14520224614385      0.71394371348290     -1.79754330719410
  H   -0.35861380783543     -0.67307502567153     -2.19354237474957
  C   -1.67652670356056      0.03279796153209      0.77502790524350
  H   -1.37810830145921     -0.03960236247878      1.82238613302443
  H   -2.00854586012555      1.05366907787086      0.57738800131259
  H   -2.52022052813710     -0.63701744710856      0.60611835439726
