17
Coordinates from ORCA-job run
  C   0.75965408599830     -0.13672633593001      0.42792919072237
  C   -0.78393789840856     -0.12013860116686      0.38159707064165
  Br  1.40044604361782     -0.97940625763126      2.06028472209228
  H   -1.11535885810051      0.41192599553909      1.27583142874029
  N   1.32043095076170     -0.80763744581954     -0.67953395885742
  H   1.13606693915368     -0.28882641085908     -1.53039177406404
  H   2.32265831107815     -0.91197992992759     -0.58272593538347
  N   1.22330401860763      1.34652614944571      0.53687110435429
  O   0.75042362532228      2.01318423551349      1.44756060081889
  O   1.98392031572626      1.74960366911169     -0.33894678151108
  N   -1.37238823339291     -1.44279461747559      0.38877867975082
  H   -0.91347320226851     -2.01493360815644     -0.31184592388853
  H   -1.22689071046114     -1.88690662182745      1.28702264635841
  C   -1.26320036738911      0.63387261922002     -0.85684269043057
  H   -0.83007916132969      1.63275465309788     -0.94343292462128
  H   -1.04373254688198      0.06930109412433     -1.76749929549078
  H   -2.34684331203340      0.73218141274159     -0.79365615923181
