17
Coordinates from ORCA-job run
  C   0.83776825293601      0.03660900884159      0.30926030331252
  C   -0.68446604067319     -0.11825364390387      0.37114487106627
  Br  1.57991390648126     -0.62304512613074      2.10576678244813
  H   -1.02490965869533      0.36275843624160      1.29287449117946
  N   1.37292724909869     -0.58593002634964     -0.79745624493028
  H   2.37920152645977     -0.54193683538534     -0.86316079570705
  H   0.98914681151612     -1.51942403649220     -0.88485754526513
  N   1.26761851731134      1.49479642003155      0.33349941321117
  O   0.54115919568163      2.28023786887864      0.93054602144799
  O   2.32329502446724      1.76346942479134     -0.22670084163351
  N   -0.94710814145264     -1.55717764942441      0.32415694180225
  H   -0.80367005689152     -1.96697496560402      1.23972473708763
  H   -1.91063309197176     -1.71663892309743      0.05766288198429
  C   -1.34675918790652      0.54969012102528     -0.82817907872467
  H   -1.11768617651815      1.61404657314993     -0.86950268436422
  H   -1.02335139438711      0.07538648444824     -1.75497634797417
  H   -2.43244673545587      0.45138686897942     -0.73880290494068
