17
Coordinates from ORCA-job run
  C   0.77666482196157      0.25423345760045      0.13081601731130
  C   -0.59523602083411     -0.29463493774047     -0.28741569322746
  Br  0.79637658662682      2.25157995646705      0.03192195823461
  H   -0.39753744004122     -1.36914170402203     -0.43040361124755
  N   1.20068124093010     -0.25802401020868      1.37172740639820
  H   2.17260461065014     -0.02106125426221      1.53460101657229
  H   0.63441596424502      0.10691906321187      2.12556574086172
  N   1.86385937819183     -0.16471589713927     -0.86824837785086
  O   3.02233904877959     -0.07860273065810     -0.48254714381689
  O   1.50685245232747     -0.55206612684873     -1.97547237144066
  N   -1.11562900081127      0.36459990149078     -1.46856053631649
  H   -0.58821246192466      0.08859949018760     -2.28522834962811
  H   -2.08177647291510      0.09665565461626     -1.60333493198773
  C   -1.59798382340577     -0.13155435275008      0.84832912460198
  H   -1.70508123837449      0.92206762053637      1.11450857483162
  H   -1.31903945820252     -0.71705450441052      1.72466945952840
  H   -2.57429818720341     -0.49579962607031      0.51907171717563
