17
Coordinates from ORCA-job run
  C   0.91540118731937     -0.12846610139333      0.25646945657281
  C   -0.61512037139171     -0.17090222373408      0.54245011671044
  Br  1.83531792228527     -1.12172061898113      1.67453783059442
  H   -0.74432581408118      0.17782301981735      1.57062853337160
  N   1.38533635333597     -0.60674961369582     -0.99156910056266
  H   1.05130524155373     -1.54290161325399     -1.17130038278308
  H   1.16552251041201      0.02930301603142     -1.74598824583396
  N   1.31860307384570      1.33763317491787      0.38298016584515
  O   1.64070884225389      1.91500857761696     -0.65196303055061
  O   1.17901994083947      1.85450693518441      1.48361452548309
  N   -1.18890313770233     -1.49483060677990      0.44087723816547
  H   -0.70984154967497     -2.15852526601799      1.03616279165290
  H   -1.18286461929267     -1.83082862403041     -0.51425010498773
  C   -1.35962409387703      0.76614683112362     -0.40072309669069
  H   -2.42666709923606      0.67633799487675     -0.19516952862339
  H   -1.19290682367260      0.49104688657221     -1.44656741254324
  H   -1.06996156291688      1.80911823174605     -0.26818975582055
