14

C	0.0	0.0	0.0
C	-0.279292	0.022529	-1.544572
F	1.378008	0.0	0.0
H	0.625853	-0.458635	-1.937252
H	-0.373171	0.877247	0.516748
C	-0.503619	-1.216579	0.664424
N	-0.582416	-2.188612	1.337934
C	-0.205132	1.411457	-2.008414
N	-0.116007	2.5091	-2.417814
C	-1.444339	-0.71045	-2.205788
H	-1.222714	-0.802612	-3.282329
H	-2.379998	-0.195811	-2.022453
H	-1.535644	-1.705752	-1.768088
H	-2.365265	0.0	0.0
