14

C	0.0	0.0	0.0
C	-0.219217	0.055905	-1.561141
F	1.3781	0.0	0.0
H	0.435798	-0.753902	-1.909702
H	-0.376543	0.876928	0.517642
C	-0.573966	-1.190188	0.621141
N	-0.679995	-2.097446	1.378409
C	0.39141	1.29807	-2.044376
N	0.833269	2.319092	-2.434724
C	-1.56462	-0.113398	-2.268351
H	-2.240308	0.695985	-2.009872
H	-1.375487	-0.135188	-3.35342
H	-2.05146	-1.030015	-1.948053
H	-2.297194	0.0	0.0
