14

C	0.0	0.0	0.0
C	-0.628951	0.083545	-1.35979
F	1.378928	0.0	0.0
H	-1.782013	-0.026642	-0.94724
H	-0.354747	0.85079	0.588603
C	-0.388974	-1.241416	0.707127
N	-0.517008	-2.260698	1.272567
C	-0.21039	-0.985318	-2.230725
N	0.125533	-1.845003	-2.964182
C	-0.460761	1.462137	-1.984339
H	-0.841417	1.472709	-3.006787
H	0.585769	1.787723	-2.003904
H	-1.046233	2.179631	-1.399879
H	-2.790839	0.0	0.0
