14

C	0.0	0.0	0.0
C	-0.576838	-0.013809	-1.400241
F	1.37889	0.0	0.0
H	-1.691882	-0.104348	-1.115023
H	-0.369399	0.891861	0.511578
C	-0.40456	-1.19122	0.777992
N	-0.509996	-2.180469	1.402832
C	-0.09884	-1.148632	-2.165741
N	0.292368	-2.049733	-2.81429
C	-0.325733	1.309962	-2.113863
H	-0.898492	2.091158	-1.604604
H	-0.666906	1.26061	-3.150056
H	0.735105	1.579009	-2.111707
H	-2.831167	0.0	0.0
