14

C	0.0	0.0	0.0
C	-0.200433	-0.00581	-1.556466
F	1.377962	0.0	0.0
H	0.513811	-0.779072	-1.863284
H	-0.344879	0.920538	0.464113
C	-0.681394	-1.135781	0.632436
N	-0.706422	-2.168067	1.23117
C	0.388399	1.243927	-2.040817
N	0.91011	2.233872	-2.395987
C	-1.510164	-0.30065	-2.281489
H	-2.24482	0.480493	-2.115194
H	-1.282009	-0.400846	-3.352911
H	-1.936669	-1.226381	-1.902949
H	-2.226528	0.0	0.0
