14

C	0.0	0.0	0.0
C	-0.213438	-0.086187	-1.557518
F	1.37806	0.0	0.0
H	0.431368	-0.929649	-1.836297
H	-0.376626	0.932898	0.409437
C	-0.584176	-1.10411	0.782622
N	-0.708661	-1.882241	1.670772
C	0.434958	1.109353	-2.110731
N	0.905351	2.085681	-2.563826
C	-1.548295	-0.280105	-2.275814
H	-2.041314	-1.182585	-1.925552
H	-2.231394	0.534455	-2.051146
H	-1.33327	-0.344458	-3.356064
H	-2.338201	0.0	0.0
