14

C	0.0	0.0	0.0
C	-0.223394	-0.054661	-1.563085
F	1.378114	0.0	0.0
H	0.593444	-0.720252	-1.87073
H	-0.345583	0.930056	0.440218
C	-0.676978	-1.128513	0.644645
N	-0.649614	-2.188497	1.19418
C	0.111196	1.260549	-2.118092
N	0.358491	2.299218	-2.608603
C	-1.489253	-0.594077	-2.229651
H	-1.768019	-1.542132	-1.769772
H	-2.325868	0.085637	-2.100136
H	-1.27235	-0.749759	-3.298536
H	-2.218027	0.0	0.0
