14

C	0.0	0.0	0.0
C	-0.577534	0.186443	-1.383796
F	1.344644	0.0	0.0
H	-1.689884	0.243369	-1.197785
H	-0.372731	0.842399	0.61103
N	-0.596018	-1.178288	0.647013
O	-1.749276	-1.456472	0.106963
O	-0.33389	-1.283729	1.866953
N	-0.323917	-0.963784	-2.301024
O	-0.875399	-0.900492	-3.399116
O	0.389051	-1.880391	-1.906547
C	-0.101847	1.403781	-2.019765
N	0.284205	2.409468	-2.489013
H	-2.772088	0.0	0.0
