14

C	0.0	0.0	0.0
C	-0.587352	0.49204	-1.304451
F	1.344362	0.0	0.0
H	-1.692188	0.548466	-1.090737
H	-0.370647	0.679528	0.787122
N	-0.594673	-1.295467	0.35516
O	-0.329877	-1.687317	1.514652
O	-1.750048	-1.436933	-0.234121
N	-0.404544	-0.459949	-2.440408
O	0.392074	-1.383752	-2.306177
O	-1.083577	-0.228647	-3.439468
C	-0.065572	1.790803	-1.694969
N	0.349341	2.85298	-1.980102
H	-2.774852	0.0	0.0
