14

C	0.0	0.0	0.0
C	-0.54683	0.070457	-1.423219
F	1.343102	0.0	0.0
H	-1.646829	0.139853	-1.308018
H	-0.386651	0.892449	0.523206
N	-0.595623	-1.117093	0.736935
O	-0.370064	-1.081436	1.969845
O	-1.737236	-1.44678	0.200188
N	-0.226199	-1.145242	-2.245436
O	0.967864	-1.405024	-2.403214
O	-1.166607	-1.753243	-2.743839
C	0.003605	1.232188	-2.109717
N	0.436895	2.207511	-2.602205
H	-2.784891	0.0	0.0
