16

C	0.0	0.0	0.0
C	-0.352188	-0.051839	-1.500941
F	1.392897	0.0	0.0
H	0.340546	0.66452	-1.962147
H	-0.330829	-0.911352	0.505022
C	-0.543495	1.219662	0.696018
H	-0.250333	2.129837	0.164895
H	-0.14829	1.267782	1.714173
H	-1.636309	1.147921	0.735913
C	-1.79216	0.315711	-1.871846
H	-2.017355	-0.014464	-2.889786
H	-2.559357	-0.077008	-1.178939
H	-1.90608	1.402237	-1.834548
C	0.035949	-1.363671	-2.030561
N	0.351322	-2.403585	-2.47596
H	-4.044444	0.0	0.0
