19

C	0.0	0.0	0.0
C	-0.538158	0.020563	-1.47592
Cl	1.779423	0.0	0.0
H	0.349001	0.145099	-2.10618
C	-0.519164	1.110732	0.874041
H	-0.279126	2.061279	0.403128
H	-1.605587	0.968082	0.912244
H	-0.073547	1.045951	1.86778
N	-0.320227	-1.34256	0.702247
O	-0.99403	-1.312874	1.723843
O	0.160135	-2.36234	0.212653
N	-1.381796	1.206858	-1.635165
H	-1.63639	1.241494	-2.617895
H	-2.238014	0.946026	-1.09391
C	-1.27731	-1.250034	-1.913125
H	-0.660257	-2.147295	-1.887807
H	-2.16058	-1.329302	-1.272401
H	-1.605504	-1.085236	-2.946236
F	-3.059828	0.0	0.0
