19

C	0.0	0.0	0.0
C	-0.526025	-0.008879	-1.508774
Cl	1.772131	0.0	0.0
H	0.376237	0.165324	-2.10535
C	-0.52484	1.156806	0.809901
H	-0.211242	2.093831	0.346486
H	-1.617041	1.040189	0.797771
H	-0.131482	1.119949	1.826367
N	-0.343906	-1.295272	0.767329
O	-1.048128	-1.204292	1.764918
O	0.141792	-2.343859	0.349194
N	-1.494039	1.021268	-1.819927
H	-2.307808	0.797234	-1.19783
H	-1.126399	1.932655	-1.573702
C	-1.156033	-1.333713	-1.928692
H	-1.478718	-1.210206	-2.964442
H	-2.038736	-1.475357	-1.301222
H	-0.472794	-2.178554	-1.854962
F	-3.044246	0.0	0.0
