19

C	0.0	0.0	0.0
C	-0.578518	-0.097152	-1.418501
Cl	1.762516	0.0	0.0
H	-1.623668	-0.374679	-1.191966
C	-0.544274	1.16755	0.786831
H	-0.198418	2.097394	0.333848
H	-0.188125	1.120339	1.814433
H	-1.642001	1.042058	0.717378
N	-0.376735	-1.283865	0.770103
O	-0.445717	-1.22028	1.9901
O	-0.511084	-2.320542	0.127659
N	0.178651	-1.024071	-2.27455
H	-0.255686	-0.984538	-3.189626
H	0.014585	-1.957092	-1.917221
C	-0.596457	1.269985	-2.082901
H	-0.881568	1.15308	-3.133038
H	0.382035	1.755759	-2.058499
H	-1.350021	1.889229	-1.60362
F	-2.928826	0.0	0.0
