19

C	0.0	0.0	0.0
C	-0.558583	-0.065208	-1.444647
Cl	1.769926	0.0	0.0
H	-1.601282	-0.364324	-1.2464
C	-0.524359	1.152841	0.818852
H	-1.622725	1.036112	0.745114
H	-0.167431	1.077021	1.845038
H	-0.172057	2.089891	0.386268
N	-0.377573	-1.300212	0.735948
O	-0.570821	-2.308741	0.065873
O	-0.399569	-1.273201	1.960357
N	0.104064	-0.978441	-2.367423
H	1.084651	-0.729727	-2.444827
H	0.055888	-1.910015	-1.978086
C	-0.602777	1.324819	-2.060546
H	-0.878466	1.208639	-3.111
H	0.363234	1.84359	-2.014396
H	-1.36716	1.918344	-1.561361
F	-2.869884	0.0	0.0
