19

C	0.0	0.0	0.0
C	-0.540144	-0.092048	-1.473228
Cl	1.773313	0.0	0.0
H	0.347334	-0.017703	-2.112086
C	-0.51798	1.175135	0.78735
H	-1.604027	1.036708	0.838292
H	-0.277221	2.086164	0.243835
H	-0.069048	1.187468	1.781503
N	-0.322047	-1.284437	0.805499
O	-0.977381	-1.172232	1.832917
O	0.145062	-2.34156	0.388252
N	-1.379248	1.082347	-1.72337
H	-1.641753	1.037699	-2.70362
H	-2.234207	0.867802	-1.160194
C	-1.281301	-1.391338	-1.81256
H	-0.662551	-2.284706	-1.733805
H	-2.156512	-1.428703	-1.157285
H	-1.624488	-1.29917	-2.849637
F	-3.051142	0.0	0.0
