19

C	0.0	0.0	0.0
C	-0.555894	-0.109809	-1.442007
Cl	1.779262	0.0	0.0
H	-1.597241	-0.40639	-1.233865
C	-0.520281	1.178402	0.783492
H	-0.163573	1.133443	1.811486
H	-1.61836	1.059483	0.713469
H	-0.166518	2.100825	0.321535
N	-0.370888	-1.278029	0.775345
O	-0.427738	-1.206493	1.996836
O	-0.517683	-2.317142	0.137833
N	0.109502	-1.047151	-2.338512
H	1.091252	-0.802133	-2.418139
H	0.059268	-1.967324	-1.922559
C	-0.604539	1.261835	-2.098477
H	0.362619	1.780098	-2.075311
H	-1.363909	1.871548	-1.611064
H	-0.888477	1.115369	-3.14264
F	-2.863728	0.0	0.0
