19

C	0.0	0.0	0.0
C	-0.521877	-0.014691	-1.510654
Cl	1.771799	0.0	0.0
H	0.381675	0.165764	-2.10425
C	-0.523834	1.163578	0.800605
H	-0.130679	1.13484	1.81739
H	-0.208923	2.096396	0.329546
H	-1.616095	1.048062	0.789219
N	-0.346126	-1.289106	0.775621
O	0.133917	-2.342026	0.361919
O	-1.045132	-1.189461	1.77606
N	-1.49642	1.007298	-1.827403
H	-2.309172	0.78193	-1.203515
H	-1.135041	1.922162	-1.5853
C	-1.138838	-1.345424	-1.931404
H	-0.450023	-2.184023	-1.851805
H	-1.456418	-1.227056	-2.969422
H	-2.023407	-1.494319	-1.308268
F	-3.040658	0.0	0.0
