14
Coordinates from ORCA-job run
  C   -0.62656168266670      0.38647202862444     -0.16294941599983
  C   0.61435204050818      0.22990568030402      0.37441834218661
  C   -1.39659816050022     -0.66155347987681     -0.91733116997275
  H   -2.42774204515690     -0.69217104375084     -0.55832900498981
  H   -1.43010577386244     -0.41170427325195     -1.98194505099209
  H   -0.96436758338622     -1.65356843319607     -0.80182340844991
  C   -1.27827796389442      1.65837494879297     -0.04533335649230
  N   -1.85884331964056      2.68090953516518      0.02118692061012
  C   1.20353223671746      1.32498404981202      1.08833426115778
  N   1.73315595574500      2.19124058225885      1.68519934577531
  C   1.44008007253218     -1.02643767264813      0.32601513451898
  H   1.41262727735043     -1.53401912870072      1.29496672696781
  H   2.48241502385897     -0.77603192534760      0.11813933521279
  H   1.09433392239523     -1.71640086818538     -0.44154865953271
