14
Coordinates from ORCA-job run
  C   -0.61599316514318      0.41588565581841     -0.14394508102267
  C   0.61022289263609      0.19545099585440      0.40412327008373
  C   -1.38890196551321     -0.57506463805237     -0.97109377457863
  H   -1.88512780575447     -0.06200922463282     -1.79716479986147
  H   -2.16730546947305     -1.05001016822501     -0.36595625966055
  H   -0.74568035979013     -1.34914599232461     -1.38630817229175
  C   -1.27096483961770      1.66813292153728      0.09618224487438
  N   -1.85335263921508      2.67777481430889      0.26522823527039
  C   1.23660112175276      1.24542822983456      1.15249124835382
  N   1.79308599306712      2.07522893021265      1.77614705225622
  C   1.40924245433339     -1.07166076002758      0.26438373969760
  H   0.78375342745478     -1.91947049956447     -0.00984282594923
  H   1.90589120310714     -1.30320112365744      1.20852644846637
  H   2.18852915215554     -0.94833914108189     -0.49377132563820
