14
Coordinates from ORCA-job run
  C   -0.64053012136112      0.37949511353535     -0.10827169202126
  C   0.62170344782240      0.20499934391819      0.37094592793729
  C   -1.42764653965995     -0.61541921457262     -0.91513132488130
  H   -2.25706661604846     -1.00875719403548     -0.32035406178379
  H   -1.85982154548084     -0.12220764318989     -1.78891260043981
  H   -0.81602322731191     -1.44724503640644     -1.25832333915301
  C   -1.32858422681157      1.60347321218056      0.18498731965247
  N   -1.93978556772565      2.58778224527059      0.39637201749335
  C   1.23231183770547      1.26909525243451      1.11418028653021
  N   1.78131980778203      2.11040582422805      1.72886399839423
  C   1.48239551989715     -1.01249604030993      0.17895371186217
  H   2.32530069150473     -0.77710620626918     -0.47709530197360
  H   1.89672119162739     -1.32589864352149      1.14001576483197
  H   0.92970534806033     -1.84812101326224     -0.24523070644891
