14
Coordinates from ORCA-job run
  C   -0.58846108109490      0.03975063524444     -0.33996001403961
  C   0.58615633576674     -0.04172797564522      0.34200742054408
  C   -1.59428058532136      1.14875339528560     -0.20965661221445
  H   -1.76346720908841      1.62036729380395     -1.18106684479094
  H   -1.25659746814077      1.90682466592097      0.49724274472957
  H   -2.55180516330473      0.74747732417228      0.13271828089440
  C   -0.91943156253295     -1.00718941665934     -1.26105659576038
  N   -1.22175551613147     -1.84978297250120     -2.02626431233736
  C   0.91929278017152      1.00727596456460      1.25982691712183
  N   1.22341455303424      1.85221114344239      2.02174987908439
  C   1.59399222814186     -1.14898999126323      0.21055266526186
  H   1.25734634377534     -1.90731223480506     -0.49653416927663
  H   1.76362820003493     -1.62074976375208      1.18192302584263
  H   2.55096814468995     -0.74490806780810     -0.13048238505937
