14
Coordinates from ORCA-job run
  C   0.64576747220876      0.22112859331054      0.31601375852120
  C   -0.65432267495339      0.36673791024589     -0.06056703018165
  C   1.50801810227632     -0.98707447985701      0.07697908057834
  H   2.28754455570145     -0.75248341035083     -0.65363622899005
  H   0.93626777088800     -1.84027771454489     -0.28191019973472
  H   2.00816578952045     -1.27294094716562      1.00522955579663
  C   1.29888050509012      1.31036110542368      0.98263956385414
  N   1.88551316524451      2.17294816318223      1.52927356030721
  C   -1.33440786854235      1.58811330010965      0.26059108294695
  N   -1.94001308757815      2.56978374310750      0.49850980057651
  C   -1.48889687263276     -0.65609039857012     -0.77995904007187
  H   -2.27045446676850     -1.03686938062927     -0.11615125915315
  H   -1.98628679379871     -0.19118220143306     -1.63444396545928
  H   -0.89677559665575     -1.49415428282868     -1.14156867899025
