14
Coordinates from ORCA-job run
  C   0.64192182652416      0.22205074901738      0.32384121307636
  C   -0.65043156963585      0.36971887518032     -0.07790099734976
  C   1.50208229374310     -0.99314615554835      0.11469747320097
  H   0.93270062383577     -1.84702049786273     -0.24641543029533
  H   1.98168864212805     -1.27194237824830      1.05590705124334
  H   2.29754621358470     -0.77072911819685     -0.60236770403516
  C   1.28783263286479      1.31512348903422      0.99120096657956
  N   1.86706724626400      2.18030491412596      1.54162396761536
  C   -1.33082128230294      1.59717226285297      0.21854302308091
  N   -1.93757785995603      2.58269877838510      0.43674494209979
  C   -1.47739981405045     -0.65733640903361     -0.80012646668954
  H   -0.88313433431260     -1.50128900780325     -1.14399063888445
  H   -1.95966850716777     -0.19936456670263     -1.66688997635276
  H   -2.27080611151893     -1.02824093520023     -0.14486742328930
