14
Coordinates from ORCA-job run
  C   0.63315228295616      0.20630747675700      0.35140241401948
  C   -0.63701786663598      0.38641441875547     -0.10410638424629
  C   1.47348698260630     -1.02670660725438      0.16852918091648
  H   1.90516213863306     -1.32382217321314      1.12715987507096
  H   0.90031684998665     -1.86407364974901     -0.22387058209923
  H   2.30435832764007     -0.81816618159445     -0.51148763501512
  C   1.27262842561428      1.27831820787512      1.05800193514046
  N   1.84323133715878      2.12550424147919      1.64435432990576
  C   -1.30478398397022      1.62400449642227      0.17851585714825
  N   -1.90295434604572      2.61731284999405      0.38454427213687
  C   -1.45378052378588     -0.61634500642765     -0.87084434568605
  H   -1.90361866333994     -0.13629310184160     -1.74297798541999
  H   -2.27135328874900     -0.98979137615527     -0.24753135843667
  H   -0.85882767206855     -1.46066359504762     -1.21268957343492
