14
Coordinates from ORCA-job run
  C   0.62081806439161     -0.43981846310596     -0.05594157649309
  C   -0.51016143304160      0.13267810479753     -0.55148852679541
  C   1.12278221027802     -0.25026070455222      1.35047096883240
  H   0.81175828518099      0.70964864857814      1.76168694641386
  H   0.74809855741662     -1.04724691700144      2.00069866655516
  H   2.21270562802072     -0.29549321044837      1.36902502828628
  C   1.38479198618283     -1.31936490382402     -0.88922278937774
  N   2.04619207696433     -2.05129593253133     -1.53281166637486
  C   -0.87413016277639     -0.10077291257660     -1.91708212315731
  N   -1.21525591153526     -0.26035582477387     -3.03312543055947
  C   -1.41057276329100      1.05058534544979      0.23102712563125
  H   -2.44348839467731      0.93537672339706     -0.10091483049006
  H   -1.36752533681818      0.84026018121911      1.29923057989809
  H   -1.12601280629538      2.09505986537218      0.06844762763089
