13
Coordinates from ORCA-job run
  C   -0.80580869077087      0.33861281346170      0.04357291912372
  C   0.44941807175731     -0.51160580506922      0.09418191653261
  Cl  -0.76077849195938      1.59243013614451      1.33238745525960
  H   0.32392785343797     -1.31296784283190     -0.64520463709586
  H   -0.82728477806560      0.91800912095229     -0.88862210533221
  H   0.48826152327717     -0.98354210702675      1.07930226897423
  N   -1.97343469941646     -0.48033170243391      0.27113050257878
  H   -2.81788223149284      0.06987429529092      0.17246219141040
  H   -1.99567205132888     -1.22782946449463     -0.41275784655434
  C   1.73188325179765      0.25456512053868     -0.20311133221251
  H   2.58950373365766     -0.42117826794535     -0.20752163084195
  H   1.91385105626252      1.02460063404132      0.54712696091920
  H   1.68401545284373      0.73936306937232     -1.18194666276167
