13
Coordinates from ORCA-job run
  C   -0.93871627923984      0.42110612902238     -0.32404797435674
  C   0.49718872765270      0.69445391368673      0.10807098557632
  Cl  -1.88452774922533      1.94132106617666     -0.08646799527346
  H   0.48998663083399      0.97288256767824      1.16763531547599
  H   -0.97403930560339      0.22434276618164     -1.39825042102933
  H   0.87446664906757      1.56004228918236     -0.44344749105620
  N   -1.61451140526689     -0.65560284616378      0.34400091200992
  H   -1.43872945718374     -0.63636232511015      1.34082093815433
  H   -1.33276569663603     -1.54952765133506     -0.03424759189826
  C   1.40193621828834     -0.51195197765712     -0.12338948641150
  H   1.38885028454566     -0.81918553425153     -1.17314727460445
  H   2.43515724656486     -0.27467640174250      0.13790170293471
  H   1.09670413620210     -1.36584199566788      0.48456838047867
