17

C	0.0	0.0	0.0
C	-0.664502	0.266057	-1.354077
Cl	1.763261	0.0	0.0
H	-1.750821	0.191245	-1.13216
C	-0.537916	0.923074	1.067338
H	-1.630196	0.867809	1.064951
H	-0.162057	0.617156	2.044905
H	-0.208289	1.943569	0.866216
N	-0.382126	-1.46017	0.366781
O	-1.437547	-1.583524	0.975902
O	0.358917	-2.369669	0.01649
N	-0.329839	-0.727898	-2.351634
H	-1.040576	-0.728802	-3.069886
H	0.571492	-0.541005	-2.769184
C	-0.372055	1.651485	-1.761592
N	-0.139458	2.745136	-2.123026
Cl	-3.950825	0.0	0.0
