17

C	0.0	0.0	0.0
C	-0.596076	-0.161511	-1.404905
Cl	1.764375	0.0	0.0
H	-1.689626	-0.182239	-1.229921
C	-0.512699	1.250228	0.684447
H	-0.182014	2.125673	0.12489
H	-0.113205	1.298647	1.695263
H	-1.60541	1.206213	0.706337
N	-0.407751	-1.200035	0.864681
O	-0.885049	-2.18191	0.308954
O	-0.195293	-1.097866	2.065814
N	-0.072979	-1.311666	-2.145825
H	-0.248789	-1.164648	-3.131967
H	-0.603913	-2.120258	-1.850755
C	-0.281799	1.05021	-2.16808
N	-0.029635	1.986364	-2.830622
Cl	-3.727675	0.0	0.0
