16

C	-0.468002	-0.003671	-1.446704
C	0.0	0.0	0.0
Br	0.012052	1.662868	-2.374642
H	1.095291	0.0	0.0
H	0.095327	-0.760218	-2.005101
N	-1.917481	-0.1187	-1.558312
H	-2.186001	-0.093393	-2.535311
H	-2.179249	-1.026021	-1.189271
C	-0.42928	-1.309273	0.662883
H	-1.501121	-1.324729	0.892354
H	-0.173167	-2.178957	0.047219
H	0.119158	-1.393396	1.602408
N	-0.487516	1.125338	0.787292
H	-1.396196	1.406385	0.433062
H	0.15345	1.897479	0.644838
H	3.013191	0.0	0.0
