16

C	-0.586327	0.032369	-1.401798
C	0.0	0.0	0.0
Br	0.074933	1.637366	-2.364932
H	1.09287	0.0	0.0
H	-0.190868	-0.796992	-1.990759
N	-2.029635	0.048283	-1.463041
H	-2.332603	0.621162	-0.678388
H	-2.364904	-0.895834	-1.309582
C	-0.43222	-1.287875	0.690348
H	0.144853	-1.400504	1.613066
H	-0.206157	-2.158885	0.068171
H	-1.499376	-1.284405	0.937212
N	-0.540766	1.146392	0.759559
H	-0.289251	0.992747	1.731509
H	0.003747	1.956073	0.473671
H	3.007644	0.0	0.0
