16

C	-0.226431	0.001458	-1.494397
C	0.0	0.0	0.0
Br	-2.166243	-0.241552	-1.966125
H	1.100758	0.0	0.0
H	-0.011728	1.006241	-1.856738
N	0.567029	-0.949436	-2.235042
H	1.531743	-0.744438	-1.946095
H	0.366637	-1.880073	-1.882555
C	-0.457283	-1.250487	0.73275
H	-1.550045	-1.30909	0.787507
H	-0.086328	-2.162671	0.256656
H	-0.050421	-1.231664	1.748175
N	-0.470699	1.246557	0.591739
H	0.153666	1.482409	1.357716
H	-1.40555	1.120031	0.97071
H	2.906857	0.0	0.0
