16

C	-0.159136	-0.005973	-1.509946
C	0.0	0.0	0.0
Br	-2.091536	-0.144934	-2.075898
H	1.101553	0.0	0.0
H	0.125543	0.980084	-1.885342
N	0.620072	-0.991968	-2.210927
H	1.583907	-0.805385	-1.901052
H	0.385095	-1.907656	-1.84205
C	-0.516245	-1.231964	0.712577
H	-0.143189	-1.21215	1.7384
H	-0.162652	-2.15522	0.245092
H	-1.610786	-1.248973	0.736921
N	-0.480725	1.209471	0.655973
H	-1.376112	1.480772	0.260103
H	0.186107	1.952825	0.474585
H	2.905787	0.0	0.0
