16

C	-0.452731	-0.013172	-1.462546
C	0.0	0.0	0.0
Br	-0.037338	1.71045	-2.324739
H	1.095199	0.0	0.0
H	0.160029	-0.737706	-2.0051
N	-1.852378	-0.295164	-1.746573
H	-2.436852	0.312156	-1.180915
H	-2.036288	-1.249561	-1.453238
C	-0.430735	-1.309251	0.656417
H	-0.143078	-2.175996	0.049821
H	-1.510382	-1.344292	0.846983
H	0.088525	-1.383412	1.61365
N	-0.454355	1.124589	0.810224
H	-1.355558	1.47141	0.489278
H	0.217524	1.876776	0.688295
H	2.964959	0.0	0.0
