17

C	-0.423804	0.017308	-1.463352
C	0.0	0.0	0.0
Cl	0.225457	-1.346115	-2.325302
H	1.094786	0.0	0.0
N	-1.954029	0.054932	-1.568695
O	-2.554395	-0.98424	-1.793505
O	-2.445446	1.155808	-1.337528
N	0.017134	1.278284	-2.212096
O	-0.455937	1.398936	-3.335894
O	0.804514	2.026633	-1.655342
C	-0.457449	-1.260978	0.581071
N	-0.840701	-2.238044	1.109561
C	-0.487754	1.161953	0.873014
H	-1.566744	1.138462	1.032175
H	0.016982	1.066355	1.836092
H	-0.199958	2.115481	0.438004
Br	3.377769	0.0	0.0
