17

C	-0.507905	0.007471	-1.42932
C	0.0	0.0	0.0
Cl	-2.241251	-0.239759	-1.558975
H	1.094038	0.0	0.0
N	-0.113445	1.341689	-2.069648
O	1.072841	1.42402	-2.352998
O	-0.971728	2.206261	-2.175529
N	0.154506	-1.060335	-2.301838
O	0.010867	-0.911583	-3.508474
O	0.720203	-1.97319	-1.722069
C	-0.479207	-1.190093	0.6941
N	-0.891712	-2.095323	1.318937
C	-0.431514	1.262792	0.757185
H	-1.512814	1.41224	0.736417
H	-0.100283	1.163475	1.791405
H	0.070648	2.134905	0.336525
Br	3.390199	0.0	0.0
