17

C	-0.434777	-0.000685	-1.454978
C	0.0	0.0	0.0
Cl	0.389764	1.227071	-2.368513
H	1.094189	0.0	0.0
N	-0.186078	-1.334346	-2.163916
O	0.562305	-2.12716	-1.614777
O	-0.742994	-1.457184	-3.248019
N	-1.955246	0.184407	-1.537452
O	-2.594322	-0.800048	-1.181775
O	-2.402342	1.275057	-1.858116
C	-0.481473	-1.171018	0.726225
N	-0.850644	-2.064503	1.394068
C	-0.459357	1.273514	0.721022
H	-0.115012	2.158227	0.186321
H	-1.545877	1.312979	0.833609
H	-0.001595	1.278149	1.710847
Br	3.379565	0.0	0.0
