16

C	0.0	0.0	0.0
C	-0.217763	-0.040963	-1.566768
Br	1.951109	0.0	0.0
H	0.451112	0.721429	-1.961088
H	0.175701	-1.012943	-1.885059
N	-0.636168	1.186892	0.579944
O	-0.68305	1.249811	1.833083
O	-0.659787	2.211564	-0.156213
C	-0.273151	-1.248958	0.852158
H	0.058683	-2.131745	0.297164
H	-1.3333	-1.335502	1.078307
H	0.291354	-1.186233	1.78454
N	-1.495753	0.187933	-2.217421
H	-1.788935	1.108321	-1.90504
H	-2.177254	-0.440994	-1.813177
H	-2.065848	0.0	0.0
