16

C	0.0	0.0	0.0
C	-0.573037	-0.004085	-1.412233
Br	1.950772	0.0	0.0
H	-0.11287	0.789122	-2.000761
H	-1.644343	0.219356	-1.240002
N	-0.325223	1.357858	0.640117
O	-0.440763	1.401304	1.859348
O	-0.387531	2.325626	-0.110519
C	-0.553629	-1.094041	0.865461
H	-0.187769	-1.017608	1.887677
H	-0.277733	-2.064416	0.450173
H	-1.652909	-0.95451	0.821606
N	-0.484056	-1.274415	-2.111179
H	-1.176554	-1.903681	-1.721855
H	0.434897	-1.688611	-1.995983
H	-3.264958	0.0	0.0
