16

C	0.0	0.0	0.0
C	-0.573531	0.029778	-1.412045
Br	1.950795	0.0	0.0
H	-1.645696	0.247044	-1.232359
H	-0.113991	0.837742	-1.981038
N	-0.321084	1.342183	0.673716
O	-0.431117	1.356432	1.894143
O	-0.379465	2.329058	-0.052619
C	-0.555576	-1.113395	0.838899
H	-0.189708	-1.061865	1.862484
H	-0.282088	-2.074149	0.400355
H	-1.654224	-0.969265	0.796685
N	-0.481631	-1.223982	-2.141444
H	-1.173761	-1.863921	-1.769262
H	0.436878	-1.640313	-2.034989
H	-3.256109	0.0	0.0
