16

C	0.0	0.0	0.0
C	-0.531712	0.110951	-1.426137
Br	1.950933	0.0	0.0
H	-1.606364	0.321172	-1.277467
H	-0.046122	0.946982	-1.929989
N	-0.342908	1.289779	0.751283
O	-0.485897	1.221839	1.966343
O	-0.386351	2.321634	0.0896
C	-0.531643	-1.180289	0.75946
H	-1.631666	-1.06123	0.731844
H	-0.158738	-1.190822	1.782301
H	-0.230443	-2.099995	0.25549
N	-0.403689	-1.10035	-2.22013
H	-1.103719	-1.762227	-1.907828
H	0.512715	-1.516821	-2.097704
H	-3.222094	0.0	0.0
