16

C	0.0	0.0	0.0
C	-0.31759	-0.109292	-1.525343
Br	1.948688	0.0	0.0
H	-1.403171	-0.132188	-1.598351
H	0.069906	-1.08346	-1.841287
N	-0.64106	1.168769	0.637392
O	-0.645331	1.17283	1.893642
O	-0.659363	2.236185	-0.037414
C	-0.300051	-1.273945	0.795608
H	-1.376577	-1.375345	0.912598
H	0.102357	-2.13303	0.252231
H	0.175497	-1.213438	1.774951
N	0.190577	0.911279	-2.431394
H	-0.125041	1.794595	-2.044866
H	1.202172	0.923115	-2.378153
H	-2.276	0.0	0.0
