12
Coordinates from ORCA-job run
  C   -0.43470275307074      0.60680372605231     -0.18690013964435
  C   1.08009153889634      0.40932638021296     -0.14534462822781
  F   -0.70004576823114      1.32021235969068     -1.35477005356644
  H   1.57192193921128      1.38302825596388     -0.21411696971429
  H   -0.74753481888131      1.23954902877464      0.64906421675491
  H   1.38752713861619     -0.18057761876384     -1.01368334045379
  C   -1.21393768099647     -0.68551327878997     -0.21397144007880
  H   -1.04514018254346     -1.26135446768276      0.69776704893335
  H   -0.91061117248959     -1.28606051267390     -1.07422109388460
  H   -2.28041965772667     -0.47322492908855     -0.29968679585789
  C   1.49727692399185     -0.26529529294833      1.08021712684649
  N   1.79757449322371     -0.80689365074710      2.07664606889322
