14
Coordinates from ORCA-job run
  C   -0.95213318788282     -0.04651138679404      0.34063701286317
  C   0.48988123396882     -0.28543535022025     -0.08893436873925
  Br  -1.16191400094825      1.59068248981978      1.31268636864892
  H   0.53149438796343     -1.26696801080524     -0.56619068389158
  H   -1.31215375833797     -0.86389902123356      0.96128090480637
  N   -1.78205365221349     -0.07981790162511     -0.92997663537454
  O   -1.79556975470593     -1.19052175826216     -1.45286887121929
  O   -2.32920950870752      0.93040951876672     -1.33456226218184
  N   1.29621627933660     -0.47791809318966      1.21272019755052
  O   2.25183276648002      0.26426307235957      1.40158375272068
  O   0.91393088053719     -1.38293582404089      1.94763206634162
  N   0.96414828298901      0.71570178583360     -0.95270646261100
  H   1.85897850637174      0.47665266160361     -1.35544348250188
  H   1.02855152514916      1.61629781778764     -0.49685753641190
