14
Coordinates from ORCA-job run
  C   -0.90884828031586     -0.07408124602728      0.34666876216590
  C   0.57363454246532     -0.28552165401348     -0.01009538698094
  Br  -1.20823560507037      1.55922061676053      1.29546699818456
  H   0.64916625368320     -1.27128764425052     -0.47395248906375
  H   -1.29279470079135     -0.90254275820424      0.93841168221276
  N   -1.64522041457524     -0.11503410504147     -0.97387183317478
  O   -2.02939721851576      0.92157159685887     -1.49379077382220
  O   -1.72232731182687     -1.24750551258686     -1.44544611364051
  N   1.28352206807094     -0.43640045626294      1.33100264191264
  O   0.94495959955481     -1.42052685148479      1.98426925148393
  O   2.08674171702754      0.42247888097263      1.66106887706718
  N   1.20607344392988      0.68599571424629     -0.80980506688791
  H   0.98581931217446      1.63717233321964     -0.55175556824119
  H   1.07790659418931      0.52746108581363     -1.79717098121569
