14
Coordinates from ORCA-job run
  C   -0.86984490535906     -0.19776755800646     -0.52181807509217
  C   0.44714021521987     -0.45146296955218      0.19111129998140
  Br  -1.78377140111132     -1.85168225616227     -0.87080169875865
  H   0.28772970579422     -1.00916502902780      1.11181008903170
  H   -0.74299330111410      0.33634258593105     -1.46062737399598
  N   -1.76465666038533      0.66195767156480      0.32787196751882
  O   -1.67829979437804      0.51314953386905      1.54352811636433
  O   -2.51616577033841      1.42218711560826     -0.26873217302370
  N   0.98677060184735      0.90328065410275      0.64683713123362
  O   0.81077140014602      1.85190822784793     -0.11888132771100
  O   1.63488035847526      0.91676255910082      1.68670338285374
  N   1.36532943875970     -1.11921030766478     -0.66123284937029
  H   2.18441231630353     -1.43040315083936     -0.15716906077113
  H   1.63869779614031     -0.54589707677181     -1.44959942826069
