14
Coordinates from ORCA-job run
  C   -0.96414830713579     -0.12201410645849      0.28349144580069
  C   0.50889901549844     -0.25146567952553     -0.08233623755619
  Br  -1.31540835060880      1.42501468246522      1.35760821711487
  H   0.63062970400874     -1.19134799098930     -0.62528851057151
  H   -1.30761076286675     -1.00111248939074      0.82400385534947
  N   -1.72560214464300     -0.10454385614343     -1.02917359819435
  O   -1.64951552640306     -1.17224110646483     -1.63040863979533
  O   -2.30922848290991      0.90214435060783     -1.38923904847779
  N   1.25804961208649     -0.49787732079978      1.24484511728238
  O   2.16091967929244      0.27618467841324      1.53678575770399
  O   0.89014298733204     -1.47338654387858      1.89145246652105
  N   0.96916035942875      0.83469547510615     -0.84473551953151
  H   1.89605175371975      0.67455529614969     -1.21255216103013
  H   0.95766046320068      1.70139461090856     -0.32345314461564
