14
Coordinates from ORCA-job run
  C   -0.79825356257756      0.32266558291952     -0.50401854870502
  C   0.47681282625338     -0.37659290392459     -0.08125069145298
  Br  -1.53917311086344     -0.53118401374490     -2.07055616464246
  H   0.26435873772488     -1.40842047739846      0.21510156452805
  H   -0.63363082624370      1.37317015282342     -0.72763774640599
  N   -1.83794982613673      0.25760601288266      0.58139032701721
  O   -1.80905376356119     -0.72008966056794      1.32148185690685
  O   -2.63804998822188      1.18209654470739      0.61397087988038
  N   0.99847886232501      0.28459342844835      1.17564816948477
  O   0.47334306678494      1.32678054750660      1.55380761654404
  O   1.95329618055716     -0.28170596962299      1.69480523107852
  N   1.51575259096867     -0.18387313343713     -1.06266370536718
  H   1.22721633762154     -0.56919791664925     -1.95300267175026
  H   2.34785247536891     -0.67584819394270     -0.75807611711593
