14
Coordinates from ORCA-job run
  C   -0.86558589746303      0.01149394407880     -0.56452907154580
  C   0.45723341713934     -0.48093194168991     -0.00351227542061
  Br  -1.74353628838733     -1.38062067799308     -1.55647814000591
  H   0.31036309284778     -1.36642606107824      0.61170767704317
  H   -0.75161660770650      0.88065527151190     -1.20818671819026
  N   -1.77807520020791      0.43811895532616      0.55247457263595
  O   -2.54414692053975      1.36099274982952      0.30756197681998
  O   -1.68927483547600     -0.18787439177403      1.60486258707561
  N   0.96694956842391      0.58473029602556      0.96465378431148
  O   0.77060935483247      1.75797635851155      0.64507384636965
  O   1.61374356254316      0.19029997837137      1.92776725421979
  N   1.38921222315899     -0.72865240299950     -1.04554951567135
  H   2.21462389959024     -1.20152299368659     -0.70361607203518
  H   1.65050063124463      0.11976091556650     -1.53222990560651
