14
Coordinates from ORCA-job run
  C   -0.94795271806263      0.04218634786868      0.35257425501960
  C   0.46024369525595     -0.32966635080174     -0.09405556787197
  Br  -0.99350781844109      1.69476273869212      1.32091882584902
  H   0.40505179292628     -1.31247936432396     -0.56738733505348
  H   -1.37298787339167     -0.73665628329030      0.98157858379212
  N   -1.79389284874867      0.08189797942550     -0.90698471820954
  O   -2.24868661711594      1.13756853638519     -1.31014213200801
  O   -1.91838874852359     -1.02467966291095     -1.42388065941319
  N   1.26238654854843     -0.59205197900276      1.19861752134325
  O   0.80665768247816     -1.45415843825567      1.94315498625450
  O   2.28636891461252      0.05727759304639      1.37039015755935
  N   1.01362402861316      0.62062465169744     -0.96757590551664
  H   1.16228296019013      1.51446705501319     -0.51832441768301
  H   1.87880100165895      0.30090717645687     -1.37888359406200
