14
Coordinates from ORCA-job run
  C   -0.82841195099865     -0.07715008261887     -0.55046730172564
  C   0.46446176562034     -0.35302669166878      0.18839972862606
  Br  -1.69430313092005     -1.73871038171223     -1.02193868628408
  H   0.25956598104905     -0.86226127628527      1.13521559287743
  H   -0.66616779833786      0.49755698903518     -1.45823243805356
  N   -1.78617544361580      0.70515601822551      0.30567236088802
  O   -1.72008979542953      0.52864965085013      1.51772155052298
  O   -2.56530389902390      1.43551783370326     -0.29060021821595
  N   1.08548594998217      0.96715040747559      0.58897947927055
  O   0.60363051350025      2.00355740071750      0.14321515015446
  O   2.06727303078775      0.87217868679790      1.31628444521420
  N   1.43141565596036     -0.97072887270833     -0.68480905527752
  H   2.27651137697924     -1.15633760908646     -0.15706633648621
  H   1.07310774444664     -1.85155207272512     -1.03137427151074
