14
Coordinates from ORCA-job run
  C   -0.92747708667371     -0.52605535035199      0.05725695003478
  C   0.61291012944177     -0.51332930352609      0.15457386379068
  Br  -1.73748782766313     -1.02517556928518      1.72107243802782
  H   0.91578160476306     -1.46716746909034      0.58638924896444
  H   -1.21630994246652     -1.25678825577888     -0.69753925412153
  N   -1.46734081371637      0.79645715144054     -0.45762995318434
  O   -2.07375102128541      1.54559053537113      0.28632528866472
  O   -1.21009269228608      0.98848907056479     -1.64592281656365
  N   1.01596806699095      0.52802892904462      1.16993203464347
  O   0.79464170625480      1.69028205056706      0.84171095284912
  O   1.54553682546197      0.14337492015515      2.20574667219675
  N   1.34683848230162     -0.25771844448932     -1.03834319703320
  H   1.48715253736538     -1.10138529320568     -1.57490317693621
  H   0.91363003151168      0.45439702858418     -1.61066905133284
