14
Coordinates from ORCA-job run
  C   -0.97602882532033      0.02359599199897      0.18255290465808
  C   0.50749353897433     -0.20442481378489     -0.05247090872780
  Br  -1.37564908480385      1.79795417871538      0.81021980888363
  H   0.63124265470834     -1.10718744084198     -0.65301755461105
  H   -1.37678962968726     -0.65870649037253      0.92994825231352
  N   -1.76828357933843     -0.25192063929928     -1.08647569729107
  O   -1.15339140471802     -0.64310620075738     -2.07252382167394
  O   -2.97927477806025     -0.10810126971420     -0.99453072627948
  N   1.17273139133832     -0.58086351633684      1.29041760053408
  O   0.50929624150191     -0.57596286092721      2.32399000171872
  O   2.36633616096214     -0.85010783901623      1.19980989249665
  N   1.15536720185750      0.86548293897973     -0.70773405557386
  H   2.07327050192315      0.59653082014530     -1.03195642993574
  H   1.21267961066248      1.69781714121115     -0.13722926651175
