14
Coordinates from ORCA-job run
  C   -0.89246829907880     -0.16654662782284      0.15262162172237
  C   0.64064629232649     -0.18812207100209      0.01588680101237
  Br  -1.54149235063389      1.46819954135713      0.92986770939411
  H   0.89298149560668     -1.09798128855878     -0.53456310150518
  H   -1.24744145049265     -0.99156661692615      0.76866187546553
  N   -1.54811716674051     -0.35533465399509     -1.19313437519879
  O   -0.89695256803686     -0.06267082722670     -2.19355834943331
  O   -2.69053914837436     -0.79448089261966     -1.17463861139035
  N   1.13610195977134     -0.43980038277328      1.42782936257533
  O   1.71636005662617      0.47249711067155      2.00061302440431
  O   0.87097709318306     -1.54587357473953      1.89242264821649
  N   1.33287587324853      0.91660169763683     -0.53743187077317
  H   1.13152952754911      1.77391618393986     -0.04047550533740
  H   1.09653868504567      1.01216240205873     -1.51510122915231
