14
Coordinates from ORCA-job run
  C   -0.91751474444835     -0.00537839622393      0.33217262471970
  C   0.55899982586629     -0.31251500043615      0.02284042247310
  Br  -1.15277314892836      1.70590750249824      1.15322417247060
  H   0.59394935246885     -1.33259124621511     -0.36553583945771
  H   -1.35138988010762     -0.76845223730868      0.97508047127645
  N   -1.63189604028849     -0.10859928649354     -0.99668471174656
  O   -1.95836539195370      0.90359391659873     -1.59772757895463
  O   -1.75393275829100     -1.26783801574601     -1.38686500924701
  N   1.23745494172175     -0.39637212325472      1.38561600509821
  O   2.07686232206686      0.44482476996028      1.66782589591138
  O   0.83908983450423     -1.31091605393988      2.10316176896748
  N   1.25114608968815      0.56553999679088     -0.83314588579393
  H   1.07398946968670      1.54275605973135     -0.65031221143644
  H   1.13338012801468      0.34004011403856     -1.80865012428065
