14
Coordinates from ORCA-job run
  C   -0.97790541541571      0.04821067939580      0.25515949632533
  C   0.47093622872709     -0.32753283716267     -0.02759504805965
  Br  -1.13580002058531      1.75807753931264      1.10558210042805
  H   0.47345538233090     -1.33941325838645     -0.43875621014332
  H   -1.45450856374153     -0.69567188475332      0.88949702681987
  N   -1.69707025143887     -0.00648742898101     -1.08017582038504
  O   -1.75800246278013     -1.14556187229087     -1.53408388508296
  O   -2.12237625522269      1.01341157559067     -1.59268865244025
  N   1.14556586439367     -0.49367923827128      1.35123009766998
  O   0.62803875458800     -1.31443499891647      2.10209218451920
  O   2.14027616068923      0.18297638845662      1.57953912687506
  N   1.09703337940358      0.57471869964273     -0.90309450634400
  H   1.18737765849947      1.49877296828094     -0.50186929618121
  H   2.00397954055233      0.24661366808267     -1.20283661400107
