14
Coordinates from ORCA-job run
  C   -0.86782251807819     -0.32963824044599     -0.44614973754569
  C   0.42217659665649     -0.37752545194862      0.36017626171247
  Br  -1.86785258554806     -1.95626918088629     -0.24392834676017
  H   0.20434756008021     -0.54946520532133      1.41270614398776
  H   -0.68244310958627     -0.16148551314709     -1.50488906979981
  N   -1.71433007197031      0.81914367309425      0.02453250308291
  O   -2.21492320566836      1.52270475332523     -0.84681805404133
  O   -1.83161795848177      0.95189190512886      1.23889665562916
  N   1.01730031775315      1.02917224387260      0.29233718401588
  O   1.29539723000188      1.58906386450203      1.34748715551249
  O   1.21727333541623      1.46295623454327     -0.84324644254707
  N   1.30305841547717     -1.35662308038815     -0.16222976880934
  H   1.63621288639652     -1.10804574435864     -1.08506988878190
  H   2.08222310755131     -1.53388025797013      0.45619540434464
