14
Coordinates from ORCA-job run
  C   -0.93154473028341     -0.05921503936384      0.25911276522749
  C   0.56303079538104     -0.23665585524640      0.02316494702035
  Br  -1.34490973431881      1.54898188013624      1.21833834033697
  H   0.69751462502559     -1.20239698037350     -0.48027340114929
  H   -1.33263849313232     -0.90501528588270      0.80864640041469
  N   -1.59671401661196     -0.08274280623529     -1.09711536764696
  O   -1.63988075366887      0.95148310938444     -1.75098600808030
  O   -1.98359677161717     -1.19298318171394     -1.45227117343881
  N   1.16555341335272     -0.53015709356811      1.42986221080578
  O   2.09755580086270      0.15158366145440      1.81904634966046
  O   0.64977978580249     -1.47925589381265      2.01546992296375
  N   1.18978770923277      0.84741427557720     -0.59957462608573
  H   1.88353829017179      0.60000604459066     -1.28386771802722
  H   0.58152407980345      1.58795316505348     -0.90955264200117
