14
Coordinates from ORCA-job run
  C   -0.97576001267938     -0.59758500152113      0.00937487725741
  C   0.55419634012265     -0.58281242931242      0.10675689332149
  Br  -1.82698243336849     -1.22498389203714      1.60350304580431
  H   0.87748374219395     -1.49257786927593      0.61309116659680
  H   -1.25302292669286     -1.24752941545539     -0.81817981516809
  N   -1.47034812282727      0.78562810912092     -0.38011085476591
  O   -1.92456563456169      1.52711101125627      0.47490356165771
  O   -1.31527146019343      1.04248741404212     -1.57271238297812
  N   0.95538185133141      0.54161349811459      1.07474266167997
  O   1.13847040034805      0.23282486592318      2.24759213154463
  O   1.06680024610458      1.66253349868537      0.58382559314232
  N   1.14423448473689     -0.47806771750371     -1.17428888552280
  H   2.15218862846065     -0.54230646287825     -1.12153925188787
  H   0.87719489702493      0.37566439084151     -1.64695874068184
