14
Coordinates from ORCA-job run
  C   -0.90200030451841      0.01696189659617     -0.49197862307367
  C   0.48259845381224     -0.46149997343285     -0.08612395299988
  Br  -1.79720705379063     -1.29030421162690     -1.57537793442151
  H   0.42413639595617     -1.40227346398751      0.45799217866665
  H   -0.86853587724839      0.96070376400769     -1.03224405952534
  N   -1.73600455230192      0.27166601238580      0.73405215467777
  O   -1.62766186001552     -0.53661352594280      1.65147100499068
  O   -2.46302378852014      1.25814419490064      0.70277987238845
  N   1.00561536553081      0.55242077012264      0.93401330917689
  O   0.96995463630742      1.73169332919297      0.57885553246937
  O   1.47640855060163      0.11899640579425      1.97972873268600
  N   1.33010410858339     -0.56127306907367     -1.21834656043707
  H   2.21069675807225     -1.00301809252393     -0.99169468864423
  H   1.49491916753109      0.34339596358750     -1.64212696595413
