14
Coordinates from ORCA-job run
  C   -0.92849640510142     -0.20233376818227      0.22197029807248
  C   0.59986357299867     -0.22244675490794      0.03737455153268
  Br  -1.51986018859080      1.28638497425138      1.26654188492377
  H   0.84040344145023     -1.14327070731419     -0.49817565402489
  H   -1.28051656733834     -1.12171742116255      0.68531720689247
  N   -1.49743986227913     -0.18440056207267     -1.17913473008810
  O   -1.93880736764147      0.85339319128746     -1.64868957850733
  O   -1.38586864857851     -1.26411040774087     -1.75588953801629
  N   1.16306417720370     -0.43360840359812      1.43800001706158
  O   1.81951298449639      0.46559895487177      1.94032746998727
  O   0.86601771744348     -1.50804595409343      1.95500763005252
  N   1.20390314522738      0.88470236162457     -0.58913318906102
  H   0.84805004921128      1.77735396340457     -0.27878062595452
  H   1.21017395149854      0.81350053363230     -1.59473574287062
