14
Coordinates from ORCA-job run
  C   -0.91906755699710     -0.54341669429765      0.00285933278959
  C   0.61570947881618     -0.50670543161916      0.16320987081665
  Br  -1.78536133385113     -1.11072763237437      1.61591058034713
  H   0.91875690962108     -1.46843782500224      0.57699733923657
  H   -1.16325947110154     -1.25485996893429     -0.78535863001394
  N   -1.46280819927380      0.78500198193757     -0.49154392355417
  O   -2.11327852886465      1.49831129742446      0.25049171509782
  O   -1.16221271043983      1.01977811267394     -1.66186996660204
  N   0.95771931104971      0.50832306471426      1.22656715055974
  O   0.72550578566062      1.67631210688147      0.92729873336223
  O   1.45453109802531      0.10021208411709      2.26963012509065
  N   1.39130844692944     -0.19975016772558     -0.99031247067557
  H   0.96715571430517      0.52102999577235     -1.55842061807369
  H   1.57330105612053     -1.02307092356785     -1.54545923838099
