14
Coordinates from ORCA-job run
  C   -0.98995758007624     -0.56782318371435      0.08183120313923
  C   0.54246882119359     -0.59299368849011      0.11259791567379
  Br  -1.78640760955992     -1.08685111868952      1.74159742312586
  H   0.86358592205383     -1.48494544262448      0.65106985171767
  H   -1.32115365910223     -1.25066802720488     -0.69813924422120
  N   -1.46401207169796      0.80767414229598     -0.35819106880891
  O   -1.35381141386701      0.99969221464540     -1.56784144704250
  O   -1.86190807451201      1.60381641134682      0.47550415898922
  N   1.01630790522100      0.56606038187766      1.00511269866518
  O   1.13446366350105      1.65823222924603      0.45470837250758
  O   1.24525029440219      0.30925605886038      2.18245112653192
  N   1.07826265910430     -0.56835967603186     -1.19562130984613
  H   0.81029977596060      0.26598280194362     -1.70111960398620
  H   2.08561136737882     -0.65707310346069     -1.18396007644552
