14
Coordinates from ORCA-job run
  C   -0.91952183088001     -0.53887831814954      0.06518713745460
  C   0.62145660709892     -0.50389851170886      0.15266550027943
  Br  -1.71104686446762     -1.04325714450340      1.73633433267503
  H   0.94019770581643     -1.45187762898795      0.58593393074766
  H   -1.20286659507709     -1.27683695827235     -0.68461958594505
  N   -1.48147182964663      0.77367332216026     -0.45116344790787
  O   -1.23480011494812      0.96484567000090     -1.64188771686126
  O   -2.09497154899770      1.51616002245050      0.29380002114235
  N   1.01584320485388      0.54661776136655      1.16153771170936
  O   1.56006749845934      0.17371526616960      2.19414000842854
  O   0.77374959099376      1.70440168667470      0.83176781241595
  N   1.34429631093758     -0.24212423971828     -1.04576104702093
  H   1.49119049524556     -1.08540056942169     -1.58118515102314
  H   0.89787737061172      0.46285964193958     -1.61674950609467
