14
Coordinates from ORCA-job run
  C   -0.98148728671798     -0.58549976846684      0.05333432471187
  C   0.55050458326673     -0.58679844737614      0.10836647169035
  Br  -1.79595789831218     -1.15454556554332      1.68790177469533
  H   0.87734352338529     -1.48502173438077      0.63276943824866
  H   -1.28935164986962     -1.25599220331969     -0.74661269675596
  N   -1.47079212747921      0.79174329751534     -0.36386594933307
  O   -1.89436198993922      1.56271798350969      0.48076793904377
  O   -1.34464148655215      1.01232514895563     -1.56705212974772
  N   0.99114735919871      0.55993380410327      1.03354862093229
  O   1.10075733421725      1.66561273090900      0.50897413659630
  O   1.20461708384900      0.28107571959262      2.20876561217484
  N   1.10620206042833     -0.52450955614226     -1.19013176180423
  H   0.83250460966424      0.31667149669635     -1.68103994991561
  H   2.11451588486081     -0.59771290605290     -1.16472583053680
