20

C	0.0	0.0	0.0
C	-0.39995	-0.007588	-1.478462
F	1.427961	0.0	0.0
H	0.179775	-0.83997	-1.907458
C	-0.462329	1.201265	0.791669
H	-0.047773	2.122039	0.380122
H	-1.553618	1.241848	0.789663
H	-0.115896	1.107357	1.825539
N	-0.452361	-1.192291	0.628762
H	-0.137397	-2.005179	0.115913
H	-0.114723	-1.245137	1.580488
C	0.052779	1.267768	-2.18706
H	1.094349	1.505716	-1.956716
H	-0.039549	1.141511	-3.269885
H	-0.576852	2.115395	-1.904012
C	-1.88656	-0.277905	-1.693883
H	-2.181893	-1.261952	-1.33232
H	-2.556947	0.402549	-1.161821
H	-2.119037	-0.216279	-2.763025
H	-4.78962	0.0	0.0
