20

C	0.0	0.0	0.0
C	-0.251968	-0.000911	-1.53732
F	1.399912	0.0	0.0
H	0.359079	0.847683	-1.875349
C	-0.460247	1.274454	0.676122
H	-1.555431	1.272843	0.691184
H	-0.083556	2.159488	0.154425
H	-0.083683	1.290435	1.705358
N	-0.511388	-1.19471	0.61209
H	-0.388632	-1.110401	1.619067
H	-1.52955	-1.152106	0.456731
C	-1.664535	0.214715	-2.056752
H	-2.323337	-0.620885	-1.831272
H	-2.166332	1.068393	-1.60699
H	-1.610169	0.352527	-3.145429
C	0.343006	-1.26656	-2.158858
H	0.263537	-1.215475	-3.250621
H	1.393284	-1.388528	-1.891984
H	-0.200636	-2.146638	-1.813348
H	-3.614107	0.0	0.0
