20

C	0.0	0.0	0.0
C	-0.254418	-0.000396	-1.542271
F	1.405795	0.0	0.0
H	0.524746	0.671227	-1.927324
C	-0.474517	1.276446	0.655979
H	-1.568978	1.297681	0.644702
H	-0.077896	2.14464	0.123327
H	-0.117365	1.291211	1.688431
N	-0.500486	-1.112623	0.749042
H	-1.515961	-0.983087	0.813863
H	-0.340825	-1.973212	0.238597
C	-1.61203	0.523158	-1.99529
H	-1.668564	1.610788	-1.888953
H	-1.766772	0.285914	-3.054971
H	-2.444128	0.12084	-1.398713
C	0.021454	-1.386137	-2.127261
H	0.955341	-1.807639	-1.740888
H	0.108176	-1.320461	-3.216483
H	-0.802292	-2.073362	-1.909026
H	-3.707688	0.0	0.0
