16

C	0.0	0.0	0.0
C	-0.356524	0.13596	-1.488357
Cl	1.783357	0.0	0.0
H	-0.114732	-0.82843	-1.954376
H	0.361671	0.863392	-1.88217
C	-0.581909	1.078363	0.87204
H	-0.215849	0.989236	1.893639
H	-0.308337	2.048144	0.45508
H	-1.672397	0.987006	0.857708
N	-0.390735	-1.376587	0.552519
O	-0.527468	-2.299074	-0.242939
O	-0.480903	-1.469747	1.771413
N	-1.683387	0.658634	-1.73471
H	-1.923149	0.49518	-2.704435
H	-2.425651	0.238481	-1.169984
Cl	-4.276272	0.0	0.0
