16

C	0.0	0.0	0.0
C	-0.403617	-0.266229	-1.467464
Cl	1.7836	0.0	0.0
H	0.211359	-1.096441	-1.818622
H	-0.077859	0.626836	-2.012329
C	-0.601244	1.238828	0.599914
H	-0.341365	2.094784	-0.025458
H	-0.247149	1.403394	1.615267
H	-1.689513	1.110752	0.610671
N	-0.3608	-1.212079	0.86166
O	-0.407992	-2.302075	0.29954
O	-0.520038	-1.023285	2.062223
N	-1.773299	-0.550233	-1.767958
H	-2.063112	-1.421604	-1.345435
H	-2.442781	0.133997	-1.428856
Cl	-4.37772	0.0	0.0
