16

C	0.0	0.0	0.0
C	-0.568159	0.165554	-1.400814
Cl	1.765136	0.0	0.0
H	-0.314139	1.18689	-1.697044
H	-1.655981	0.104124	-1.276661
C	-0.536559	1.051438	0.944912
H	-1.628251	0.9682	0.961455
H	-0.12993	0.905225	1.942972
H	-0.246319	2.03645	0.573219
N	-0.387735	-1.372277	0.570503
O	-0.179538	-1.552202	1.765843
O	-0.869434	-2.202421	-0.19266
N	-0.012907	-0.751534	-2.392802
H	-0.552599	-1.602418	-2.3587
H	-0.146289	-0.344368	-3.310625
Cl	-3.891383	0.0	0.0
