16

C	0.0	0.0	0.0
C	-0.596373	0.445326	-1.326808
Cl	1.785383	0.0	0.0
H	-1.594667	-0.002361	-1.36237
H	0.007805	0.041729	-2.141092
C	-0.508333	0.773847	1.186205
H	-0.092561	0.375968	2.109547
H	-0.207446	1.81313	1.05772
H	-1.599255	0.693913	1.199481
N	-0.326048	-1.489548	0.170949
O	-0.470944	-1.91883	1.30884
O	-0.348649	-2.166966	-0.852851
N	-0.644449	1.906971	-1.39068
H	-0.671632	2.178072	-2.365529
H	-1.538497	2.181886	-0.994054
Cl	-3.776964	0.0	0.0
