16

C	0.0	0.0	0.0
C	-0.583869	-0.17351	-1.397065
Cl	1.770533	0.0	0.0
H	-1.611388	-0.516668	-1.237688
H	-0.024868	-0.952659	-1.915924
C	-0.532338	1.204251	0.725354
H	-1.621823	1.117115	0.772065
H	-0.252243	2.085783	0.149404
H	-0.116215	1.264025	1.729409
N	-0.334056	-1.275823	0.791101
O	-0.552153	-1.172423	1.991576
O	-0.285854	-2.330024	0.162662
N	-0.536575	1.094083	-2.122977
H	-1.473009	1.483161	-2.129053
H	-0.260262	0.929389	-3.081215
Cl	-3.813759	0.0	0.0
