16

C	0.0	0.0	0.0
C	-0.405951	0.292217	-1.4632
Cl	1.783963	0.0	0.0
H	-0.085132	1.326398	-1.639494
H	0.215276	-0.344015	-2.096452
C	-0.597692	0.935531	1.013668
H	-1.688504	0.833034	0.973811
H	-0.25364	0.704042	2.01983
H	-0.318768	1.959119	0.757013
N	-0.359766	-1.442106	0.358579
O	-0.420624	-2.24892	-0.564572
O	-0.501813	-1.708416	1.547004
N	-1.775719	0.130798	-1.850897
H	-2.05318	-0.839098	-1.784581
H	-2.447122	0.628376	-1.273534
Cl	-4.373894	0.0	0.0
