18

C	0.0	0.0	0.0
C	-0.310336	0.057834	-1.528262
F	1.397639	0.0	0.0
H	0.494567	0.694257	-1.924488
C	-0.507184	1.258456	0.669087
H	-1.599343	1.197132	0.670759
H	-0.123336	1.298377	1.693872
H	-0.179654	2.148555	0.126632
C	-0.550077	-1.227766	0.680823
H	-1.641055	-1.164298	0.571072
H	-0.285733	-1.209558	1.742887
H	-0.156395	-2.143526	0.234465
N	-1.594046	0.636642	-1.859741
H	-2.342715	0.328695	-1.172302
H	-1.853216	0.36561	-2.800191
C	-0.071858	-1.27655	-2.13372
N	0.089318	-2.304248	-2.682695
F	-3.234392	0.0	0.0
