18

C	0.0	0.0	0.0
C	-0.33711	0.046514	-1.501429
F	1.410562	0.0	0.0
H	0.006821	-0.925199	-1.89869
C	-0.467355	1.228395	0.742614
H	-1.560535	1.161302	0.747793
H	-0.060967	1.211354	1.759708
H	-0.122685	2.127622	0.229181
C	-0.479195	-1.280576	0.636688
H	-1.574585	-1.219067	0.605849
H	-0.114307	-1.335218	1.667559
H	-0.101842	-2.149485	0.086134
N	0.397674	1.165263	-2.121682
H	1.386712	0.979565	-2.008646
H	0.176644	1.171403	-3.110416
C	-1.74383	0.176724	-1.94861
N	-2.503528	0.314607	-2.843154
F	-2.860064	0.0	0.0
