18

C	0.0	0.0	0.0
C	-0.551517	-0.00464	-1.421925
F	1.407325	0.0	0.0
H	-1.652426	-0.021469	-1.216006
C	-0.478951	1.240212	0.725988
H	-0.105722	2.148424	0.244431
H	-1.574035	1.186692	0.695299
H	-0.116083	1.220508	1.757975
C	-0.473728	-1.247033	0.717935
H	-0.098998	-1.232864	1.746377
H	-0.113372	-2.141987	0.20992
H	-1.56812	-1.19162	0.697241
N	-0.129742	-1.19642	-2.160732
H	-0.641565	-1.238881	-3.034125
H	0.85583	-1.110286	-2.385317
C	-0.185226	1.22615	-2.146255
N	0.122673	2.157653	-2.795569
F	-2.985983	0.0	0.0
