18

C	0.0	0.0	0.0
C	-0.549806	0.030074	-1.422688
F	1.402834	0.0	0.0
H	-1.650797	-0.018192	-1.220257
C	-0.482066	1.221721	0.755035
H	-0.153959	1.157181	1.797705
H	-1.57764	1.185364	0.694518
H	-0.077645	2.139953	0.317578
C	-0.477935	-1.264499	0.684712
H	-1.571741	-1.191929	0.683535
H	-0.142123	-2.145885	0.137321
H	-0.08177	-1.293008	1.704688
N	-0.083535	-1.123515	-2.198774
H	-0.567083	-1.138378	-3.088266
H	0.906197	-1.005692	-2.387634
C	-0.223812	1.298022	-2.102268
N	0.023143	2.270258	-2.717084
F	-2.984251	0.0	0.0
