18

C	0.0	0.0	0.0
C	-0.514572	0.029392	-1.441724
F	1.405628	0.0	0.0
H	-1.617432	0.033118	-1.285479
C	-0.460658	1.228758	0.756255
H	-0.055947	2.135228	0.297692
H	-0.099347	1.174809	1.788295
H	-1.555546	1.205948	0.722294
C	-0.468095	-1.263022	0.692396
H	-0.059857	-2.153475	0.205451
H	-0.116271	-1.256134	1.728354
H	-1.563866	-1.228996	0.649468
N	-0.088637	-1.101657	-2.27222
H	-0.646798	-1.905545	-2.015838
H	0.87839	-1.31142	-2.043557
C	-0.09023	1.264214	-2.116409
N	0.277219	2.240386	-2.656992
F	-2.95287	0.0	0.0
