18

C	0.0	0.0	0.0
C	-0.313865	0.055662	-1.527079
F	1.397704	0.0	0.0
H	0.498129	0.679497	-1.928321
C	-0.503529	1.260925	0.667394
H	-1.596091	1.20305	0.673028
H	-0.116074	1.302555	1.690755
H	-0.176034	2.14908	0.121663
C	-0.549082	-1.225384	0.685889
H	-0.156912	-2.142885	0.242051
H	-0.281445	-1.203525	1.747064
H	-1.640699	-1.161387	0.578664
N	-1.590161	0.652087	-1.855092
H	-1.847227	0.39906	-2.801326
H	-2.342568	0.338951	-1.174166
C	-0.09132	-1.282971	-2.12871
N	0.075074	-2.312432	-2.671652
F	-3.22961	0.0	0.0
