16
Coordinates from ORCA-job run
  C   0.60860566086887      0.45556101192232     -0.18414657633623
  C   -0.59789292083314     -0.45623241980603      0.15065826671186
  Cl  0.92193694709189      1.57190768888841      1.18556036499061
  H   -0.72971005749748     -1.10337345136315     -0.72676437051849
  C   0.25953522599401      1.26059099164972     -1.35657261002354
  N   -0.02553056382212      1.86558415853575     -2.32283873842977
  C   1.87588834312784     -0.34667219972260     -0.45919316525710
  H   2.15206863896081     -0.91523005452960      0.42983866553605
  H   1.70427057334488     -1.03445263361083     -1.29147780605236
  H   2.69493749204154      0.32480013176738     -0.71838122059692
  C   -1.90467889049270      0.29641166499637      0.40967482932820
  H   -2.15876766336131      0.91804464117407     -0.45081930030861
  H   -1.82005830077662      0.92787298821613      1.29362729284678
  H   -2.71290376075665     -0.41883023588028      0.57028615389553
  C   -0.25965218603528     -1.32310568918942      1.28112870540300
  N   -0.00704853785454     -2.02187659304823      2.19041950881100
