16
Coordinates from ORCA-job run
  C   0.75106865282360      0.49885614035250      0.06453398757419
  C   -0.40679564323735     -0.23667460254988      0.77868787570317
  Cl  1.83107386145444      1.18193349767755      1.32688022455771
  H   0.06318361516088     -0.98512799639626      1.42771841239656
  C   0.21989043114132      1.60475409538095     -0.73327575561637
  N   -0.22404399080324      2.45340860197050     -1.41437686127606
  C   1.57338475267399     -0.43747086966870     -0.81493217000871
  H   0.97965096390917     -0.79411463214823     -1.65783414355923
  H   2.44217105686463      0.09357391054639     -1.20462616221914
  H   1.91826843637144     -1.28736611076938     -0.22184841329221
  C   -1.36985994510409     -0.92163892263833     -0.19737445883682
  H   -0.86988229856242     -1.72196863111350     -0.74333838327876
  H   -1.77980213033019     -0.20109440435058     -0.90837475171451
  H   -2.20083769408561     -1.35931294665999      0.35788401434195
  C   -1.14681910542395      0.69270095059011      1.63619211268500
  N   -1.78265096285261      1.41954191977685      2.30408447254323
