16
Coordinates from ORCA-job run
  C   0.81614514154400      0.39946410288638      0.06145486034700
  C   -0.52299778978266      0.04042740245112      0.75980645065481
  Cl  2.15065066228529     -0.36991791610926      0.99043981515692
  H   -0.43859822300509      0.38120891256973      1.79789536578492
  C   1.01739829102568      1.84800664273978      0.14068252772294
  N   1.16424801568446      3.01310171913569      0.18710569660823
  C   0.88605393820600     -0.06320556068288     -1.38800233965542
  H   0.83096351134314     -1.15056346154352     -1.43927968885362
  H   1.82880609193502      0.25702928424070     -1.83243422359412
  H   0.06098186506223      0.37342502964161     -1.95626386894258
  C   -0.86136501339859     -1.45296945051880      0.74137342188978
  H   -1.06851867235609     -1.80053218793968     -0.27108029122157
  H   -1.75482589636705     -1.62463670932911      1.34385163470915
  H   -0.04362821778653     -2.03633732623948      1.16409189518388
  C   -1.59888376771653      0.80331244744808      0.12092926556008
  N   -2.46642993667330      1.38218707124966     -0.41957052135039
