16
Coordinates from ORCA-job run
  C   0.79688725908157      0.41423463342467      0.15369883413686
  C   -0.60301934643816      0.02226229152308      0.69777284207628
  Cl  2.03689717868186     -0.34092451806806      1.21589600634944
  H   -0.64007986138310      0.35384453898802      1.74157220947141
  C   0.95908786894864      1.86530622094293      0.26892354509412
  N   1.07400198393831      3.03240697772426      0.34604385181015
  C   1.03411013967288     -0.02964433580859     -1.28378615065451
  H   1.00284548138423     -1.11684640409995     -1.35270278823786
  H   0.26991936018736      0.40165485570936     -1.93495742037154
  H   2.01478267534272      0.31024614771831     -1.61783376955466
  C   -0.90747120887585     -1.47722908030127      0.63008075497245
  H   -0.99710818626473     -1.81737690433414     -0.40195197000837
  H   -1.85748436129148     -1.67170717511654      1.13050770944604
  H   -0.12908099087128     -2.04992266494372      1.13384692216016
  C   -1.61833516575300      0.76945203356857     -0.04980576028130
  N   -2.43495282635996      1.33324338307304     -0.67830481640866
