16
Coordinates from ORCA-job run
  C   0.52286651214297      0.51155772835483     -0.27590231258078
  C   -0.50617376221431     -0.52187379298452      0.24600560485631
  Cl  0.40082654283331      2.02362965215105      0.68331984723772
  H   -0.37220539975066     -1.41365570122815     -0.38085783008453
  C   0.18808068614404      0.82762694122029     -1.66580264258071
  N   -0.07158828030003      1.03695573132670     -2.79266943234118
  C   1.95361875816272     -0.00805789922848     -0.18747133797998
  H   2.20842670796247     -0.20985055486121      0.85371556367256
  H   2.64681272727169      0.73445411735810     -0.58364092897300
  H   2.04898806186427     -0.92818940270397     -0.76987105231218
  C   -1.96329923932038     -0.06440352839048      0.14989411662684
  H   -2.13970799530022      0.80383879188259      0.78451898364515
  H   -2.62187752948765     -0.87146236384836      0.47504490514830
  H   -2.21170782503823      0.19048791271828     -0.88213634709283
  C   -0.16703210130311     -0.90130476599989      1.61915739395766
  N   0.08497213633312     -1.20975286576678      2.72369546880063
