16

C	-0.546876	0.0411	-1.412227
C	0.0	0.0	0.0
Cl	0.300224	-1.070829	-2.493179
H	1.086042	0.0	0.0
H	-0.305403	0.887832	0.54611
C	-2.048484	-0.169086	-1.537389
H	-2.283181	-1.187208	-1.239328
H	-2.565789	0.538217	-0.887364
H	-2.359866	-0.014151	-2.573448
N	-0.321339	1.482747	-1.927798
O	-0.679813	2.373772	-1.161281
O	0.078953	1.656437	-3.071013
N	-0.444293	-1.136175	0.773113
O	-0.397442	-1.00532	2.005995
O	-0.721938	-2.205768	0.204065
H	2.548713	0.0	0.0
