16

C	-0.5339	-0.065669	-1.417416
C	0.0	0.0	0.0
Cl	0.307196	-1.265264	-2.405243
H	1.088457	0.0	0.0
H	-0.309304	0.929848	0.470001
C	-2.03388	-0.274219	-1.538719
H	-2.338957	-0.191753	-2.585284
H	-2.272989	-1.270237	-1.172103
H	-2.554363	0.477793	-0.943513
N	-0.265555	1.335564	-2.020417
O	-0.790932	2.262269	-1.405616
O	0.36702	1.448846	-3.058943
N	-0.449974	-1.068566	0.856216
O	-0.434874	-0.834526	2.076379
O	-0.691432	-2.188821	0.372335
H	2.535757	0.0	0.0
