16

C	-0.433567	0.017268	-1.437
C	0.0	0.0	0.0
Cl	0.187915	1.426132	-2.304545
H	1.088315	0.0	0.0
H	-0.30243	-0.931443	0.476202
C	0.108727	-1.237704	-2.101704
H	-0.332754	-2.122216	-1.635988
H	1.190888	-1.239714	-1.9414
H	-0.117101	-1.226901	-3.169708
N	-1.965024	-0.020861	-1.570753
O	-2.530108	-0.762858	-0.769388
O	-2.513595	0.583173	-2.481382
N	-0.551166	1.073454	0.826084
O	-0.268223	1.03438	2.023915
O	-1.243535	1.950558	0.297012
H	2.66148	0.0	0.0
