16

C	-0.427392	-0.058695	-1.439185
C	0.0	0.0	0.0
Cl	0.059093	1.389131	-2.329309
H	1.088281	0.0	0.0
H	-0.303469	-0.91068	0.516221
C	0.245955	-1.264901	-2.072648
H	0.02549	-1.303781	-3.141378
H	-0.102252	-2.178823	-1.586616
H	1.322273	-1.152679	-1.904363
N	-1.945966	-0.2549	-1.576809
O	-2.420868	-1.081383	-0.800364
O	-2.563611	0.319603	-2.461781
N	-0.575797	1.108973	0.769728
O	-0.159433	1.245018	1.919198
O	-1.440487	1.820191	0.245267
H	2.702807	0.0	0.0
