16

C	-0.647588	0.145767	-1.362245
C	0.0	0.0	0.0
Cl	-0.2571	-1.338263	-2.288838
H	1.088991	0.0	0.0
H	-0.306406	-0.944273	0.448898
C	-2.151042	0.307848	-1.320804
H	-2.572683	-0.536596	-0.773076
H	-2.566564	0.328907	-2.328273
H	-2.401067	1.240403	-0.817251
N	-0.031971	1.297622	-2.172855
O	-0.805863	2.144914	-2.61437
O	1.177544	1.270395	-2.336507
N	-0.392373	1.055014	0.887007
O	-0.504183	0.790214	2.098346
O	-0.424311	2.212603	0.417313
H	2.503974	0.0	0.0
