16

C	-0.432506	-0.090672	-1.444007
C	0.0	0.0	0.0
Cl	-0.232594	1.554187	-2.128604
H	1.088484	0.0	0.0
H	-0.363462	0.893965	0.498379
C	0.362938	-1.062204	-2.275223
H	0.128156	-2.07665	-1.964363
H	1.419232	-0.864057	-2.065427
H	0.135842	-0.94008	-3.332982
N	-1.941341	-0.368779	-1.559041
O	-2.660194	0.068173	-0.668299
O	-2.330227	-0.978819	-2.550359
N	-0.427479	-1.142413	0.79717
O	-0.35849	-1.017141	2.022254
O	-0.748398	-2.192794	0.222023
H	2.643938	0.0	0.0
