13
Coordinates from ORCA-job run
  C   0.58621974128729      0.44881943880965      0.29708709453006
  C   -0.35264747208030     -0.76645328506983      0.44118419872508
  F   0.31835666903276      1.30331722328426      1.34374426587185
  H   0.03168433467080     -1.62964487140777     -0.09937750028081
  H   -0.48831289021797     -1.00469005958341      1.49759183819196
  C   1.96586574943934     -0.06466345658844      0.45822185975300
  N   3.04225336013886     -0.51543106520959      0.58325322501012
  N   0.51488340336305      1.20150385713982     -0.91028806360726
  H   -0.42980165651100      1.51088364020293     -1.09864182914741
  H   0.91175609916488      0.71760828759664     -1.70325366249766
  N   -1.69799232982139     -0.47545190731746     -0.12781747916773
  O   -2.18402652294658     -1.31963949787177     -0.87521700695343
  O   -2.21823848551974      0.59084169601499      0.19351305957223
