13
Coordinates from ORCA-job run
  C   0.55323537318007      0.35660305015667      0.17575537828903
  C   -0.32665670079472     -0.89380916401332      0.14790852339283
  F   0.03495304657624      1.16658517818216      1.20591978623921
  H   -0.21658420784788     -1.45696604107920      1.07126578405944
  H   -0.08746857751012     -1.50499119220458     -0.72260969310007
  C   1.90900656861169     -0.04149253711077      0.60758190823811
  N   2.97910549001876     -0.37911658687335      0.95186502570271
  N   0.63059983001011      1.00494149580759     -1.06835530000323
  H   -0.29091095765968      1.21969906495551     -1.42669670883190
  H   1.21159709451451      1.83166320195359     -1.02380692506039
  N   -1.77074400176362     -0.52166405755417      0.05647663422059
  O   -2.10143048718419      0.21611340920464     -0.87062439509947
  O   -2.52470247015117     -0.99756582142476      0.89631998195311
