13
Coordinates from ORCA-job run
  C   0.42976695770808      0.41671322076430      0.16736581860782
  C   -0.77394525375173     -0.27329870661243     -0.46234382798738
  F   0.12180211463018      0.59854812506641      1.52426171426646
  H   -1.61129821026640      0.42116062284257     -0.51372997696924
  H   -0.52130452316980     -0.65397617217732     -1.45161863624501
  C   1.66300309841322     -0.39049261596155      0.11182427676851
  N   2.68546296094465     -0.96325030235274      0.05197410438677
  N   0.65387505007723      1.63315232391132     -0.51705541987081
  H   1.50394214072286      2.08774387517913     -0.20994916803853
  H   -0.13217443562983      2.26236105493875     -0.41051415919626
  N   -1.22796203833450     -1.42483034861779      0.36841697096001
  O   -2.39723383823896     -1.41928990018685      0.74066842291656
  O   -0.39293402310500     -2.29354117679381      0.59969988040110
