13
Coordinates from ORCA-job run
  C   0.59584552274919      0.35370740279248      0.32790460328258
  C   -0.66007430209147     -0.43435992552246      0.69559318043734
  F   1.03801589402474      0.87126696552243      1.56428892259298
  H   -0.40349842505892     -1.28355759489582      1.32593474246850
  H   -1.35764456722159      0.23274727102837      1.20011961793490
  C   1.68446074519530     -0.51167538019140     -0.16275616700820
  N   2.57074016170293     -1.19082296453958     -0.52420551700794
  N   0.30759170290557      1.33633602464180     -0.63030094747346
  H   1.11904927251727      1.87349061762810     -0.90307268132035
  H   -0.45888964830029      1.93767945673371     -0.35882985900803
  N   -1.32143272516272     -0.94101245268178     -0.53489168755268
  O   -0.82513667537310     -1.93723614519124     -1.05341237625789
  O   -2.29002695588693     -0.30756327532462     -0.94637183108776
