13
Coordinates from ORCA-job run
  C   0.60194833616232      0.35646587631127      0.31217458522356
  C   -0.64721877572072     -0.42571434111101      0.71363048392110
  F   1.06860428173081      0.88854022027941      1.53315342739900
  H   -1.33462451623162      0.24803030676024      1.22320775360786
  H   -0.37944943222928     -1.26757644300981      1.34919396075469
  C   1.68063040110406     -0.51486117418327     -0.18978201272753
  N   2.56382262464837     -1.19243757896770     -0.56158343828002
  N   0.29531375811489      1.32782475059726     -0.65203766587109
  H   1.10197928281922      1.85965014214127     -0.94851662973291
  H   -0.46356573764834      1.93460066716373     -0.37134943582681
  N   -1.33206382443416     -0.94659888173115     -0.49794475115702
  O   -2.31292612380619     -0.32223369496891     -0.89394817822567
  O   -0.84245027450939     -1.94568984928134     -1.01719809908517
