13
Coordinates from ORCA-job run
  C   0.53742169628778      0.26033392524436      0.40710789262940
  C   -0.26385516850137     -0.93455038155327     -0.10766606295199
  F   0.39131125952946      0.33334207554892      1.78009709082305
  H   0.00608449804473     -1.17745069743942     -1.13438350198512
  H   -0.10643506917845     -1.78017915403951      0.55913927064737
  C   1.97600922229908     -0.02664927123280      0.16210928164664
  N   3.10666342574076     -0.23645040270833     -0.07841668233233
  N   0.07394997309775      1.47406298088432     -0.15688982777556
  H   0.72554166219128      2.23609652008541     -0.03492733431295
  H   -0.22765477681616      1.39356743209817     -1.11723524824399
  N   -1.71619760857191     -0.60526185457320     -0.09438366769192
  O   -2.33187176811486     -0.82510357017419      0.94220156398870
  O   -2.17096734600806     -0.11175760214047     -1.12575277444130
