13
Coordinates from ORCA-job run
  C   0.50484770088933      0.34912245457411      0.10839571198057
  C   -0.90307412417333     -0.12562161651413     -0.22907026474322
  F   0.66123503052667      0.18489972301092      1.49306367099105
  H   -1.63298892908991      0.58107463461860      0.16309426926605
  H   -1.01707872031368     -0.24679140259329     -1.30599670243919
  C   1.56282594927223     -0.44745911678484     -0.54087178724947
  N   2.43611141530072     -1.02327718345430     -1.07259459476238
  N   0.63187733085950      1.69439742812269     -0.30728271347180
  H   1.57889103741354      2.03431358832694     -0.20051544552916
  H   -0.00937462455273      2.29473018761592      0.19626196916500
  N   -1.19701486148985     -1.43889382596303      0.41221050180242
  O   -0.42738564392994     -2.35821063670231      0.15221867446693
  O   -2.18887156071253     -1.49928423425730      1.13208671052318
