13
Coordinates from ORCA-job run
  C   0.60541541788260      0.42665672317206      0.39407820176603
  C   -0.61625261295627     -0.41379666831269      0.76442539202932
  F   1.21745227388972      0.72278879537618      1.60473691659025
  H   -0.31827207910510     -1.21481015139053      1.43615823180606
  H   -1.35654615583438      0.24290461296972      1.22273275011660
  C   1.58318769808047     -0.39165158856373     -0.36835483428095
  N   2.33678146481093     -1.01634880782061     -1.01813505062284
  N   0.23089488487486      1.63855544421231     -0.23550270286687
  H   -0.52243566789123      1.49200060368927     -0.89534012204818
  H   1.01417549283947      2.09287080917005     -0.68628274473333
  N   -1.23529216717183     -1.04060471061184     -0.43674841505503
  O   -1.70956094135274     -0.27364241938056     -1.27610764958581
  O   -1.22854760806648     -2.26492264250963     -0.50565997311526
