13
Coordinates from ORCA-job run
  C   0.55444501828451      0.43621381002271      0.45528306079806
  C   -0.79357962670758     -0.25384076968688      0.66177141705626
  F   0.93744846048330      0.86050669720423      1.72075691776660
  H   -0.71643488226349     -0.96730106386199      1.47825914710760
  H   -1.54228424048199      0.51259286868851      0.86544768073916
  C   1.57886395341055     -0.55131239952097      0.02826223937176
  N   2.37499362180594     -1.32300047669481     -0.36035149643076
  N   0.43580987482135      1.56724648454614     -0.38800454961582
  H   -0.18030278519226      1.38094894797257     -1.16893552832215
  H   1.33417397559538      1.89725600844788     -0.71512867901893
  N   -1.21979658913218     -1.00333916511198     -0.55281698854069
  O   -1.42845001361438     -0.33628103743325     -1.56721817603162
  O   -1.33288676700914     -2.22068990457215     -0.45832504487945
