13
Coordinates from ORCA-job run
  C   0.53307987112032      0.45394424044249      0.44936124009778
  C   -0.66598540363395     -0.46317193979905      0.68189706090123
  F   1.01265314889889      0.74731184048685      1.71672588288122
  H   -1.49020015836405      0.14079350238017      1.06545103649049
  H   -0.39530160070756     -1.24856182437485      1.38358416689833
  C   1.62097914783453     -0.28708674876558     -0.24178065852651
  N   2.46451133475642     -0.85433215530366     -0.83087733653178
  N   0.15214676031108      1.67311854477436     -0.17056774933702
  H   0.96329309579274      2.22177953943807     -0.42822878113580
  H   -0.41414938471401      1.48758413364921     -0.98910396795677
  N   -1.13354871687111     -1.12821505543528     -0.56791160350608
  O   -1.28908217728339     -0.41187660623851     -1.55711901419223
  O   -1.35939591713997     -2.33128747125424     -0.51243027608287
