13
Coordinates from ORCA-job run
  C   0.65882835894209      0.37864322723759      0.41184191255336
  C   -0.67141771208833     -0.33709512344300      0.66336493139863
  F   1.02217546179974      0.79274383222405      1.69092802776234
  H   -0.54457262468292     -1.18634416223598      1.33621473138514
  H   -1.37789804791225      0.36383674399772      1.11144147405553
  C   1.68976706822977     -0.56530868252245     -0.06037246742922
  N   2.51819282794033     -1.32596976849237     -0.39496203519920
  N   0.63067484146001      1.51971921971829     -0.43189557583920
  H   0.69108062866050      1.26709817942469     -1.40769174662826
  H   -0.18961340826467      2.08878451021193     -0.26610714724726
  N   -1.31176217515495     -0.86282552849664     -0.58008113851184
  O   -2.44004500960498     -1.31910566513346     -0.44094227095778
  O   -0.67641020932438     -0.81417678249037     -1.63173869534227
