13
Coordinates from ORCA-job run
  C   0.52707427996832      0.32687909879168      0.25664999968971
  C   -0.87662369585476     -0.06719907795801     -0.18920404976862
  F   0.58603283054905      0.03980518622572      1.62551059816081
  H   -0.94604288523120     -0.09919786965801     -1.27693118919270
  H   -1.59545182669133      0.63351423197642      0.23466257337258
  C   1.58635230232746     -0.47418314747175     -0.38863348714184
  N   2.46096612645951     -1.02339728367518     -0.94643664054696
  N   0.74645406957648      1.68981801838135      0.00593873369215
  H   -0.04286741034070      2.26312260582453     -0.23318262850404
  H   1.61690450116965      1.96042722922872     -0.41490675236137
  N   -1.25709558774864     -1.41543023593332      0.32373096807242
  O   -2.28966284649416     -1.49053927948913      0.98181940930350
  O   -0.51503985768967     -2.34361947624300      0.01998246522438
