13
Coordinates from ORCA-job run
  C   0.59328555590681      0.28542881078142      0.17453014081158
  C   -0.33150278410480     -0.89677011735875     -0.11782955216595
  F   0.33001885470369      0.65682693161063      1.50831675464847
  H   -0.06526948713258     -1.74939276183420      0.50179214521867
  H   -0.30019722699475     -1.14894167208377     -1.17794321479305
  C   1.98803941174059     -0.20125592547910      0.15063492907430
  N   3.08826038746366     -0.60925694108001      0.12639366702368
  N   0.45009591717470      1.33905857646448     -0.74397749886967
  H   -0.51336089414242      1.64180182115915     -0.80594055069912
  H   1.06571055240782      2.11122905535514     -0.52547747233749
  N   -1.74581359806350     -0.55838077910436      0.22528875585003
  O   -2.33756361045977     -1.32497532737497      0.97526558566576
  O   -2.22070307849945      0.45262832894436     -0.29005368942723
