13
Coordinates from ORCA-job run
  C   0.54601354914758      0.43216528640641      0.47026162489746
  C   -0.66104932349474     -0.48062238148947      0.68327083370670
  F   1.02212079285599      0.69749112760893      1.74829500486709
  H   -0.38522540765821     -1.30321403644667      1.33814081217299
  H   -1.47055297165483      0.11669740017870      1.10402513664813
  C   1.63378728949728     -0.30097625524500     -0.22636358386472
  N   2.47503707390860     -0.85051435649803     -0.83519656102010
  N   0.17318517653833      1.65234050580948     -0.14207564199728
  H   0.96832958838638      2.15742789306949     -0.50985208803044
  H   -0.52266152981522      1.50850758742899     -0.86257721965801
  N   -1.13681705293210     -1.06680685009442     -0.60055671589689
  O   -1.03806495496706     -2.28109123395662     -0.74153685432497
  O   -1.60410222981199     -0.28040468677181     -1.42583474749998
