13
Coordinates from ORCA-job run
  C   0.52644648493081      0.36490833988147      0.19069398398384
  C   -0.88562717185017     -0.11172020890775     -0.13179739862273
  F   0.67488457919313      0.20762581467021      1.57433994991383
  H   -1.60359263329083      0.60293814768360      0.26949401730752
  H   -1.01434011420713     -0.24747999626265     -1.20594635804501
  C   1.57524432794716     -0.46118873306497     -0.44018209035640
  N   2.44103304436924     -1.03264475764648     -0.98936669485355
  N   0.68055621692747      1.70342392854227     -0.19714980872492
  H   -0.13953537205269      2.22911538722161     -0.44103609345413
  H   1.52265056935238      1.96715363566843     -0.67570142408961
  N   -1.18475699486643     -1.41706810692624      0.52460571847090
  O   -2.15659928462360     -1.45624130066806      1.27230728569724
  O   -0.43536365182935     -2.34882215019141      0.25073891277301
