13
Coordinates from ORCA-job run
  C   0.60366811891997      0.40610017031398      0.41783925548645
  C   -0.64833426234199     -0.40905406614858      0.74003379302265
  F   1.18595128352233      0.67049075951541      1.65043272495419
  H   -0.38919533839956     -1.22643079621483      1.40817696600286
  H   -1.38529190123427      0.25921953449998      1.18685997995855
  C   1.58389553448268     -0.42543812094939     -0.32701560196395
  N   2.33985470006112     -1.05900829341570     -0.96534433417926
  N   0.27780750786435      1.63497318682703     -0.20542178342630
  H   1.08459280191380      2.07615302653189     -0.62668709079575
  H   -0.45990610368709      1.51668989486728     -0.88810590927333
  N   -1.24765419108740     -1.00361083037075     -0.48713669344960
  O   -1.27243759803654     -2.22669641204752     -0.57191700169789
  O   -1.67595055197743     -0.21338805340880     -1.32971430463864
