13
Coordinates from ORCA-job run
  C   0.54320445915188      0.43970648613637      0.46319378536356
  C   -0.65176860474060     -0.48597079270665      0.68821494422426
  F   1.03600370074899      0.70492453655477      1.73364358048613
  H   -1.46652341862427      0.10398463678057      1.10984030023058
  H   -0.36295403532349     -1.30027774509124      1.34791056122815
  C   1.62637172353485     -0.28185911341307     -0.25376330872439
  N   2.46126684081326     -0.82716872120363     -0.87506267498281
  N   0.15009998029126      1.66196797713333     -0.13496741190070
  H   -0.52173422844533      1.50586107747521     -0.87575472928847
  H   0.94220428337678      2.18782686697922     -0.48062943104281
  N   -1.13094700579461     -1.08951008284702     -0.58666191259169
  O   -1.08365743520224     -2.31041568987045     -0.68969539671777
  O   -1.54256625978648     -0.30906943592738     -1.44626830628403
