15

C	-0.485432	-0.136633	-1.436183
C	0.0	0.0	0.0
Br	-0.417425	1.620809	-2.348964
H	1.094998	0.0	0.0
H	-1.551679	-0.385948	-1.483171
H	-0.359891	0.936256	0.435993
C	0.349528	-1.12359	-2.23351
H	0.048435	-1.155221	-3.28362
H	0.223049	-2.124127	-1.809033
H	1.404625	-0.854786	-2.143389
C	-0.473648	-1.178773	0.850911
H	-1.56692	-1.269047	0.876078
H	-0.056478	-2.121933	0.489405
H	-0.116494	-1.051129	1.87636
H	3.134613	0.0	0.0
