16

C	-0.285057	0.072183	-1.488953
C	0.0	0.0	0.0
Br	-2.230329	0.307699	-1.863544
H	1.096816	0.0	0.0
H	-0.08248	-0.899875	-1.939438
N	0.44523	1.179769	-2.035898
H	0.479065	1.104787	-3.044808
H	1.401058	1.130142	-1.676729
N	-0.444111	-1.318082	0.541531
O	-0.217531	-2.317847	-0.135109
O	-0.977301	-1.338695	1.650497
C	-0.51065	1.159296	0.819714
H	-0.22758	2.079666	0.307624
H	-1.594502	1.127288	0.932564
H	-0.047484	1.145077	1.805877
Br	3.426373	0.0	0.0
