16

C	-0.371324	-0.047356	-1.478539
C	0.0	0.0	0.0
Br	-0.307689	1.875329	-2.243833
H	1.091997	0.0	0.0
H	-1.416579	-0.289825	-1.652987
N	0.499254	-0.934754	-2.109803
H	1.475018	-0.759914	-1.871964
H	0.362822	-1.01544	-3.106068
N	-0.462861	-1.313273	0.569312
O	0.327168	-1.967692	1.239322
O	-1.643649	-1.619288	0.373958
C	-0.598384	1.093345	0.85822
H	-0.150532	2.050149	0.596964
H	-0.371309	0.884279	1.906239
H	-1.681406	1.149915	0.726309
Br	3.533893	0.0	0.0
