16

C	-0.591958	0.070353	-1.40283
C	0.0	0.0	0.0
Br	-0.072311	1.776811	-2.227783
H	1.090536	0.0	0.0
H	-1.684413	0.147672	-1.330967
N	-0.110732	-0.979823	-2.263875
H	-0.421458	-1.864414	-1.880936
H	-0.509318	-0.869961	-3.187766
N	-0.428169	-1.294149	0.642388
O	0.106848	-1.59217	1.702846
O	-1.324827	-1.961049	0.107605
C	-0.481157	1.104055	0.933192
H	-1.574918	1.154611	0.965956
H	-0.092639	0.911341	1.933122
H	-0.08523	2.060098	0.596114
Br	3.5317	0.0	0.0
