16

C	-0.502589	0.007351	-1.448646
C	0.0	0.0	0.0
Br	-0.087018	-1.722824	-2.281706
H	1.088889	0.0	0.0
H	0.133894	0.718943	-1.980079
N	-1.882863	0.324815	-1.699142
H	-2.461724	-0.183552	-1.040262
H	-2.025763	1.318497	-1.564009
N	-0.526184	-1.18407	0.734433
O	0.26089	-1.969101	1.248654
O	-1.7597	-1.290831	0.78815
C	-0.445569	1.251898	0.743188
H	-1.530741	1.311692	0.83867
H	0.007525	1.257792	1.737275
H	-0.069562	2.129706	0.21089
Br	3.528348	0.0	0.0
