16

C	-0.475525	0.064978	-1.440195
C	0.0	0.0	0.0
Br	0.155592	-1.583628	-2.419507
H	1.090241	0.0	0.0
H	0.119999	0.84226	-1.92001
N	-1.859226	0.326491	-1.609315
H	-2.083458	0.422754	-2.590822
H	-2.392589	-0.437093	-1.213486
N	-0.493666	-1.210648	0.718685
O	0.166032	-1.606288	1.672509
O	-1.576892	-1.695364	0.370049
C	-0.46439	1.210527	0.802987
H	-1.55144	1.24371	0.888774
H	-0.122396	2.117664	0.301408
H	-0.000858	1.174134	1.790201
Br	3.518217	0.0	0.0
