16

C	-0.402157	-0.000532	-1.458445
C	0.0	0.0	0.0
Br	-2.463482	-0.383547	-1.58024
H	1.094745	0.0	0.0
H	-0.010653	-0.878859	-1.962243
N	-0.047777	1.172318	-2.113678
H	-0.193009	1.133619	-3.110764
H	-0.450399	2.006624	-1.716471
N	-0.39028	-1.313907	0.599415
O	-0.946567	-1.321328	1.698519
O	-0.099091	-2.320599	-0.042804
C	-0.503589	1.164736	0.81741
H	-0.043026	2.080931	0.440654
H	-0.183641	1.047137	1.851134
H	-1.591925	1.245716	0.789697
Br	3.458985	0.0	0.0
