16

C	-0.373351	-0.085976	-1.475586
C	0.0	0.0	0.0
Br	-0.322879	1.818895	-2.287049
H	1.092655	0.0	0.0
H	-1.417648	-0.336976	-1.642557
N	0.49935	-0.98422	-2.086817
H	1.475693	-0.801181	-1.857064
H	0.358242	-1.092636	-3.080236
N	-0.46136	-1.296537	0.608228
O	-1.624699	-1.640651	0.378275
O	0.312895	-1.897243	1.343775
C	-0.595047	1.115851	0.83115
H	-0.14387	2.063874	0.546211
H	-1.678207	1.173201	0.6985
H	-0.366574	0.931641	1.883688
Br	3.529841	0.0	0.0
