15

C	-0.357764	0.012725	-1.463646
C	0.0	0.0	0.0
F	-0.202812	-1.24068	-2.006456
H	1.089139	0.0	0.0
H	-0.362463	0.901525	0.489578
N	-1.827297	0.373639	-1.726919
O	-2.404854	1.0456	-0.880529
O	-2.288951	0.024715	-2.80938
N	0.410458	0.998291	-2.105964
H	1.385158	0.920434	-1.815042
H	0.334757	0.903002	-3.110983
N	-0.569848	-1.153642	0.730914
O	-0.003742	-1.487707	1.765723
O	-1.601926	-1.659512	0.289207
Br	3.447095	0.0	0.0
