15

C	-0.652349	-0.022937	-1.360569
C	0.0	0.0	0.0
F	-0.2132	1.121668	-2.026064
H	1.087783	0.0	0.0
H	-0.330554	0.91109	0.501122
N	-0.171227	-1.144563	-2.27852
O	0.975413	-1.529084	-2.136774
O	-0.96086	-1.491145	-3.159127
N	-2.049515	-0.110525	-1.275882
H	-2.424322	0.679122	-0.768841
H	-2.464691	-0.198022	-2.193569
N	-0.499208	-1.12817	0.821585
O	-0.451212	-2.250062	0.330623
O	-0.919925	-0.865645	1.94728
Br	3.481408	0.0	0.0
