15

C	-0.383933	-0.156079	-1.454403
C	0.0	0.0	0.0
F	-1.68589	-0.607636	-1.603793
H	1.095791	0.0	0.0
H	-0.4299	0.890196	0.442529
N	-0.541929	1.287316	-2.082326
O	-0.259728	1.385368	-3.273772
O	-1.007784	2.181487	-1.385847
N	0.500012	-0.937514	-2.168584
H	1.448254	-0.887432	-1.802016
H	0.462027	-0.749237	-3.159537
N	-0.477253	-1.157714	0.794456
O	-0.127355	-2.280069	0.445447
O	-1.180519	-0.904922	1.775545
Br	3.43043	0.0	0.0
