15

C	-0.350858	0.055024	-1.473953
C	0.0	0.0	0.0
F	-0.185489	-1.167307	-2.025732
H	1.090394	0.0	0.0
H	-0.367718	0.894368	0.503563
N	-1.806803	0.464862	-1.69848
O	-2.524811	-0.250691	-2.376435
O	-2.118581	1.540027	-1.187498
N	0.437122	0.999537	-2.195717
H	0.240266	1.930062	-1.845395
H	1.419564	0.794018	-2.000582
N	-0.595368	-1.164634	0.694106
O	0.054915	-1.707224	1.579113
O	-1.741555	-1.472974	0.357337
Br	3.463481	0.0	0.0
