12
Coordinates from ORCA-job run
  C   -0.07906632356048      0.27416635989674     -0.28984136387451
  C   -1.09985082140368     -0.76337191704184      0.08073102411011
  Cl  -0.62230973884158      1.33670408377155     -1.55742406190127
  H   -1.36757575371484     -1.34488214426793     -0.79914136165388
  H   -0.68969723633657     -1.42484280447487      0.84248162653862
  H   -1.98739056770447     -0.25727645684224      0.46449969663378
  N   1.24160754978362     -0.35266409831881     -0.74337244787878
  O   2.20137582206372      0.40334078814675     -0.77652770162200
  O   1.21109021638867     -1.53466551563966     -1.05647440319222
  N   0.31079110100233      1.05989921068040      0.97040040312182
  O   0.86303836773644      0.36349207553102      1.81334080788431
  O   0.01998738458683      2.24010041855889      1.05132778183403
