12
Coordinates from ORCA-job run
  C   -0.11039206152291      0.31868223496794     -0.22732095162489
  C   -1.05310713835333     -0.83089187435733     -0.01382972281087
  Cl  -0.78929472977328      1.57591877346830     -1.22196113697476
  H   -0.59424650275473     -1.56227339227994      0.64991821892925
  H   -1.97850314291694     -0.46864182910399      0.42936711498825
  H   -1.26918200397231     -1.28833978616603     -0.98088236810059
  N   1.20060444647173     -0.21741550413433     -0.82016180808606
  O   1.51411439255966      0.09561101789068     -1.95493725494075
  O   1.79342543590546     -0.97205875795417     -0.05885711698532
  N   0.32864967022561      0.95697180335727      1.09276210223764
  O   -0.34792288003565      0.70204612171446      2.07934699976774
  O   1.30485451416670      1.68939119259713      1.02655592360035
