12
Coordinates from ORCA-job run
  C   -0.13825787446508      0.27978646223348     -0.26667045148808
  C   -1.06023236234823     -0.85252254282107      0.07800776484208
  Cl  -0.84257195337885      1.39142962481893     -1.40179269481356
  H   -1.30765428027956     -1.39570434613975     -0.83447434631804
  H   -1.97440417016941     -0.44449283673917      0.50977512670271
  H   -0.58814886813195     -1.52418133527199      0.78778391287306
  N   1.21165250845755     -0.24003690282910     -0.81216393938354
  O   1.86695252377563      0.51979396371790     -1.50688007043427
  O   1.52454896329395     -1.36444911499063     -0.43810088526399
  N   0.31386345483361      1.04458847811626      0.99817726686197
  O   0.74115664148937      2.17736141053421      0.84252594374386
  O   0.25309541692298      0.40842713937094      2.04381237267781
