12
Coordinates from ORCA-job run
  C   -0.12859597207064      0.28472698962272     -0.26712172253478
  C   -1.08038667665313     -0.82934013713997      0.05490990979986
  Cl  -0.78963358813678      1.41903363949835     -1.40547740668808
  H   -0.63429775483493     -1.51615638468676      0.76693834556127
  H   -1.99203196196807     -0.40385541080053      0.47523750007679
  H   -1.32568730686592     -1.36063161449983     -0.86506136924289
  N   1.21872766661119     -0.25982473012701     -0.79489525996792
  O   1.90908982775674      0.49922773704488     -1.45620482074967
  O   1.49400225240581     -1.40067638812794     -0.44176785933827
  N   0.32084342846758      1.02915819821853      1.01126524908755
  O   0.26125069962892      0.37265293199161      2.04446048532379
  O   0.74571938565923      2.16568516900594      0.87771694867236
