17

C	0.0	0.0	0.0
C	-0.567473	0.030292	-1.437638
Br	1.962296	0.0	0.0
H	-1.668695	-0.031185	-1.237171
N	-0.466322	1.239209	0.561692
H	-1.49469	1.122589	0.515018
H	-0.198018	1.223222	1.541378
N	-0.460326	-1.131626	0.758051
H	-0.182375	-1.989401	0.297543
H	-1.486564	-1.02274	0.70257
N	-0.165267	-1.074596	-2.349868
O	-0.362167	-0.887672	-3.548652
O	0.259859	-2.122449	-1.864066
N	-0.281269	1.302078	-2.159343
O	-1.214989	2.088933	-2.28498
O	0.861529	1.4745	-2.57627
F	-2.815409	0.0	0.0
