17

C	0.0	0.0	0.0
C	-0.235365	0.04171	-1.544614
Br	1.961099	0.0	0.0
H	0.254175	-0.836232	-1.950699
N	-0.490383	1.150964	0.680261
H	-0.289442	1.02059	1.667476
H	-1.520593	1.011544	0.544947
N	-0.466725	-1.304414	0.407342
H	-1.496935	-1.133701	0.378185
H	-0.19086	-1.436418	1.376243
N	0.400864	1.203573	-2.254993
O	0.99555	0.902291	-3.293753
O	0.264696	2.336067	-1.817948
N	-1.640776	-0.027028	-2.124484
O	-2.176298	1.018175	-2.459906
O	-2.037378	-1.159974	-2.355833
F	-2.71815	0.0	0.0
