17

C	0.0	0.0	0.0
C	-0.251812	0.12372	-1.537689
Br	1.949601	0.0	0.0
H	0.310251	0.989886	-1.869377
N	-0.459213	1.252423	0.553497
H	-0.166762	1.279805	1.526447
H	-1.49043	1.092688	0.519618
N	-0.485476	-1.219856	0.555722
H	-1.51628	-1.071438	0.438288
H	-0.277886	-1.194382	1.550412
N	-1.648479	0.390844	-2.085882
O	-2.247869	-0.527341	-2.62316
O	-1.965339	1.571149	-2.088904
N	0.281265	-1.021173	-2.346674
O	1.004654	-0.695157	-3.293691
O	-0.050572	-2.163922	-2.066873
F	-2.709449	0.0	0.0
