16

C	-0.652223	0.017813	-1.362275
C	0.0	0.0	0.0
Cl	-0.015365	1.46242	-2.210352
H	1.089544	0.0	0.0
H	-0.290656	0.907218	0.533395
N	-0.203945	-1.170169	-2.220257
O	0.958378	-1.523314	-2.122385
O	-1.043967	-1.648037	-2.982493
C	-2.163355	0.093349	-1.354181
H	-2.571251	-0.817857	-0.917138
H	-2.458495	0.955921	-0.753966
H	-2.555051	0.205008	-2.363177
N	-0.486126	-1.117672	0.805772
O	-0.487006	-0.984252	2.030341
O	-0.819383	-2.160037	0.225045
F	2.495793	0.0	0.0
