16

C	-0.304964	0.071883	-1.482764
C	0.0	0.0	0.0
Cl	-0.218162	-1.614816	-2.09699
H	1.088481	0.0	0.0
H	-0.43275	-0.866075	0.489815
N	-1.749386	0.488933	-1.755649
O	-1.977193	1.118082	-2.784178
O	-2.594559	0.128494	-0.942194
C	0.690549	0.916391	-2.23955
H	0.516205	1.965273	-2.00353
H	0.609551	0.761587	-3.314355
H	1.669824	0.622864	-1.842701
N	-0.468305	1.182998	0.730124
O	-0.606371	1.067662	1.946711
O	-0.660548	2.232896	0.108215
F	2.572809	0.0	0.0
