16

C	-0.652224	0.020061	-1.362078
C	0.0	0.0	0.0
Cl	-0.016009	1.466747	-2.207508
H	1.089548	0.0	0.0
H	-0.290603	0.906168	0.535149
N	-0.20394	-1.165825	-2.222562
O	0.957179	-1.521823	-2.122899
O	-1.042715	-1.639226	-2.989069
C	-2.163451	0.094868	-1.35357
H	-2.57054	-0.817872	-0.918836
H	-2.555426	0.20914	-2.362199
H	-2.458737	0.955483	-0.750561
N	-0.486144	-1.11918	0.803869
O	-0.819458	-2.160656	0.221368
O	-0.487176	-0.987574	2.028737
F	2.495855	0.0	0.0
