16

C	0.0	0.0	0.0
C	-0.55272	0.145311	-1.418585
F	1.392596	0.0	0.0
H	-1.647315	0.188279	-1.272348
C	-0.375731	1.189542	0.795046
N	-0.570225	2.160265	1.426192
C	-0.47569	-1.273404	0.663835
H	-1.566325	-1.260598	0.713733
H	-0.052022	-1.32605	1.669202
H	-0.135209	-2.119322	0.068167
N	-0.212299	-1.021096	-2.222458
H	0.695738	-0.900133	-2.65336
H	-0.905366	-1.139078	-2.949459
C	-0.08912	1.403313	-2.031268
N	0.31585	2.353764	-2.591608
Cl	-3.66438	0.0	0.0
