16

C	0.0	0.0	0.0
C	-0.398292	-0.024389	-1.501525
F	1.383159	0.0	0.0
H	0.430643	0.48876	-2.002445
C	-0.371648	1.313792	0.573264
N	-0.511472	2.344934	1.117159
C	-0.5638	-1.124178	0.834076
H	-0.208951	-2.082012	0.450765
H	-1.65754	-1.082523	0.789806
H	-0.241183	-1.005751	1.870933
N	-1.608699	0.711061	-1.755561
H	-1.857107	0.658713	-2.735588
H	-2.415417	0.387631	-1.20183
C	-0.348775	-1.424107	-1.994188
N	-0.275175	-2.507758	-2.442336
Cl	-4.132584	0.0	0.0
