16

C	0.0	0.0	0.0
C	-0.524662	0.167489	-1.427499
F	1.392429	0.0	0.0
H	-1.623154	0.159465	-1.320425
C	-0.377857	1.174913	0.814611
N	-0.56009	2.130407	1.47231
C	-0.482678	-1.284383	0.635734
H	-1.572395	-1.253877	0.703129
H	-0.166394	-2.119035	0.011166
H	-0.043325	-1.371539	1.631718
N	-0.094998	-0.961365	-2.245673
H	0.860915	-0.818491	-2.550023
H	-0.686504	-1.021007	-3.065189
C	-0.101046	1.462216	-1.993374
N	0.253127	2.44671	-2.528774
Cl	-3.652805	0.0	0.0
