16

C	0.0	0.0	0.0
C	-0.52358	-0.192248	-1.436283
F	1.390733	0.0	0.0
H	-1.608434	-0.008755	-1.369511
C	-0.380901	1.34277	0.485583
N	-0.563565	2.438751	0.865494
C	-0.479456	-1.07755	0.947412
H	-1.572457	-1.101271	0.932462
H	-0.064035	-2.038166	0.638153
H	-0.125984	-0.850943	1.954853
N	-0.307619	-1.516435	-1.995669
H	-0.997612	-2.151257	-1.613368
H	0.621997	-1.849995	-1.766695
C	0.09403	0.810327	-2.318579
N	0.598018	1.590995	-3.035604
Cl	-3.60815	0.0	0.0
