13

C	-0.46618	-0.010837	-1.432694
C	0.0	0.0	0.0
Cl	-0.164099	-1.55861	-2.242284
H	1.092494	0.0	0.0
H	-2e-05	0.782359	-2.012993
H	-0.364692	-0.89524	0.510077
N	-1.949911	0.257194	-1.518393
O	-2.340371	0.937825	-2.463745
O	-2.670678	-0.241899	-0.657441
N	-0.465436	1.256049	0.58922
H	-1.248923	1.094488	1.203473
H	0.288601	1.660355	1.123595
Br	3.595228	0.0	0.0
