13

C	-0.460462	-0.0453	-1.434956
C	0.0	0.0	0.0
Cl	-2.242429	-0.056711	-1.569905
H	1.094725	0.0	0.0
H	-0.08662	-0.923258	-1.953075
H	-0.357806	0.92448	0.462112
N	0.026016	1.145093	-2.210514
O	0.532788	0.920017	-3.307013
O	-0.136327	2.250122	-1.702765
N	-0.442063	-1.226342	0.661949
H	-1.246381	-1.050436	1.247191
H	0.314173	-1.558456	1.245311
Br	3.56033	0.0	0.0
