13

C	-0.528077	-0.048475	-1.42535
C	0.0	0.0	0.0
Cl	0.15847	1.436248	-2.276943
H	1.091825	0.0	0.0
H	-0.312549	0.948544	0.451168
C	-0.024004	-1.207708	-2.174142
N	0.301528	-2.140175	-2.809988
N	-1.956295	-0.070609	-1.477662
H	-2.324879	0.695861	-0.927858
H	-2.283991	0.01607	-2.432286
C	-0.507576	-1.108611	0.790092
N	-0.878169	-2.001961	1.458366
H	2.691975	0.0	0.0
