13

C	-0.50605	0.017464	-1.432609
C	0.0	0.0	0.0
Cl	0.026007	1.519069	-2.263797
H	1.092496	0.0	0.0
H	-0.291446	-0.955795	0.454456
C	0.087042	-1.113693	-2.179266
N	0.393049	-2.058608	-2.808344
N	-1.954777	-0.009497	-1.492152
H	-2.285469	-0.803544	-0.954361
H	-2.260937	-0.1165	-2.453945
C	-0.548537	1.09038	0.784841
N	-0.951653	1.959529	1.465698
H	2.691947	0.0	0.0
