13

C	-0.256554	-0.126718	-1.493091
C	0.0	0.0	0.0
Cl	-1.978035	-0.696145	-1.843535
H	1.096142	0.0	0.0
H	-0.312641	-0.931242	0.478058
C	-0.167072	1.177885	-2.176943
N	-0.04539	2.183781	-2.774522
N	0.675424	-1.094564	-1.972894
H	0.762862	-1.054497	-2.980327
H	1.589672	-0.896162	-1.525355
C	-0.609097	1.143263	0.63765
N	-1.084852	2.070896	1.180473
H	2.690225	0.0	0.0
