13

C	-0.525466	-0.019264	-1.431121
C	0.0	0.0	0.0
Cl	0.160849	1.447329	-2.308835
H	1.091355	0.0	0.0
H	-0.333141	-0.918792	0.49343
C	-0.021853	-1.187983	-2.168314
N	0.288179	-2.105986	-2.832673
N	-1.955846	-0.049861	-1.484717
H	-2.323482	0.757297	-0.991682
H	-2.274142	-0.019476	-2.44773
C	-0.527122	1.150514	0.708111
N	-0.958075	2.087099	1.273144
H	2.691857	0.0	0.0
