13

C	-0.527771	0.007451	-1.428652
C	0.0	0.0	0.0
Cl	0.036348	1.512651	-2.234156
H	1.092268	0.0	0.0
H	-0.348026	0.914338	0.488987
C	0.020551	-1.120914	-2.209054
N	0.308352	-2.050023	-2.868964
N	-1.978379	0.023855	-1.459635
H	-2.317475	-0.772907	-0.928724
H	-2.300048	-0.069768	-2.418152
C	-0.514748	-1.158825	0.707749
N	-0.944172	-2.105445	1.258787
H	2.700524	0.0	0.0
