13

C	-0.247362	0.065206	-1.512714
C	0.0	0.0	0.0
Cl	-0.059871	-1.714346	-2.129077
H	1.094402	0.0	0.0
H	-0.402925	-0.908073	0.445739
C	-1.617139	0.405863	-1.917164
N	-2.710315	0.699712	-2.233187
N	0.692327	0.950311	-2.048782
H	1.618745	0.769924	-1.628417
H	0.715217	0.953489	-3.059513
C	-0.499931	1.181984	0.677396
N	-0.89773	2.124286	1.256661
H	2.737499	0.0	0.0
