13

C	-0.225646	-0.090699	-1.511896
C	0.0	0.0	0.0
Cl	-1.959507	-0.462189	-1.936702
H	1.095884	0.0	0.0
H	-0.401574	0.911366	0.447587
C	0.052598	1.228388	-2.101723
N	0.245495	2.291132	-2.562537
N	0.625381	-1.075601	-2.138228
H	0.363142	-1.984386	-1.764213
H	1.569792	-0.874653	-1.770136
C	-0.474557	-1.183629	0.685619
N	-0.827691	-2.156506	1.243119
H	2.690788	0.0	0.0
