13

C	-0.555458	-0.010809	-1.427656
C	0.0	0.0	0.0
Cl	0.106329	1.406453	-2.312895
H	1.093356	0.0	0.0
H	-0.303094	-0.934555	0.488881
C	-0.106174	-1.234033	-2.109978
N	0.16302	-2.242053	-2.648593
N	-2.006044	0.0517	-1.571554
H	-2.400549	-0.741644	-1.072588
H	-2.323448	0.895108	-1.101504
C	-0.55565	1.116886	0.73951
N	-1.02236	2.022417	1.327086
H	2.691494	0.0	0.0
