13

C	-0.25058	0.034951	-1.513069
C	0.0	0.0	0.0
Cl	-0.057988	-1.758009	-2.092801
H	1.095928	0.0	0.0
H	-0.401946	-0.899055	0.464786
C	-1.623163	0.360873	-1.920378
N	-2.721394	0.625145	-2.245669
N	0.684697	0.911062	-2.069709
H	0.701614	0.898144	-3.080252
H	1.613494	0.742255	-1.650468
C	-0.500709	1.195357	0.65251
N	-0.902362	2.151683	1.205291
H	2.736883	0.0	0.0
