13

C	-0.504663	0.004891	-1.43335
C	0.0	0.0	0.0
Cl	0.024306	1.500888	-2.275627
H	1.092622	0.0	0.0
H	-0.292017	-0.951649	0.462745
C	0.091131	-1.131072	-2.170088
N	0.39741	-2.08093	-2.792314
N	-1.953529	-0.026005	-1.494134
H	-2.257571	-0.138096	-2.456116
H	-2.282054	-0.819698	-0.954216
C	-0.549848	1.09691	0.774717
N	-0.965599	1.967018	1.446741
H	2.693721	0.0	0.0
