13

C	-0.525394	-0.005094	-1.428071
C	0.0	0.0	0.0
Cl	0.152573	1.509942	-2.231723
H	1.092728	0.0	0.0
H	-0.316038	0.933045	0.479765
C	-0.013755	-1.136872	-2.214126
N	0.304868	-2.045278	-2.886904
N	-1.952133	-0.03739	-1.482729
H	-2.281202	0.065871	-2.435804
H	-2.330443	0.710501	-0.913984
C	-0.510436	-1.132109	0.753808
N	-0.912972	-2.030349	1.396381
H	2.696708	0.0	0.0
