13

C	0.0	0.0	0.0
C	-0.48957	-0.060075	-1.439561
F	1.381892	0.0	0.0
H	-1.605501	-0.092525	-1.223796
H	-0.377276	0.893818	0.489136
C	-0.428733	-1.197062	0.744143
N	-0.645165	-2.2002	1.312347
N	0.034191	-1.260301	-2.081242
H	-0.461831	-1.432826	-2.945687
H	1.019414	-1.144853	-2.293158
C	-0.111913	1.179268	-2.129013
N	0.194732	2.161352	-2.701338
F	-2.566734	0.0	0.0
