13

C	0.0	0.0	0.0
C	-0.518455	0.426448	-1.402965
F	1.36931	0.0	0.0
H	-1.229816	1.233932	-1.21288
H	-0.355188	0.712083	0.7416
C	-0.439132	-1.346671	0.40043
N	-0.563354	-2.439155	0.812525
N	-1.173143	-0.699182	-2.072856
H	-1.491775	-0.372138	-2.980481
H	-2.003377	-0.763352	-1.45289
C	0.588192	0.942644	-2.224907
N	1.408418	1.416486	-2.919077
F	-2.531633	0.0	0.0
