13

C	0.0	0.0	0.0
C	-0.422374	-0.111563	-1.487875
F	1.375971	0.0	0.0
H	0.525386	-0.126501	-2.041225
H	-0.367222	0.944141	0.390298
C	-0.440302	-1.104814	0.861972
N	-0.546989	-2.018812	1.59222
N	-1.178204	1.073227	-1.87003
H	-1.452555	0.977955	-2.842459
H	-2.01303	0.942163	-1.262068
C	-1.098595	-1.385734	-1.81095
N	-1.550608	-2.390083	-2.220515
F	-2.464622	0.0	0.0
