13

C	0.0	0.0	0.0
C	-0.513035	0.396391	-1.415109
F	1.369308	0.0	0.0
H	-1.21338	1.219431	-1.24932
H	-0.355986	0.727137	0.725189
C	-0.438901	-1.338607	0.423043
N	-0.54928	-2.43211	0.834736
N	-1.180065	-0.737401	-2.058017
H	-1.493153	-0.429266	-2.974163
H	-2.010277	-0.779453	-1.436678
C	0.602396	0.871356	-2.250301
N	1.435708	1.28406	-2.96733
F	-2.530182	0.0	0.0
