17

C	-0.280883	0.011109	-1.494463
C	0.0	0.0	0.0
Br	0.042504	2.009336	-2.135188
H	1.091071	0.0	0.0
N	0.487691	-0.900904	-2.144014
H	1.442143	-0.913886	-1.763305
H	0.413716	-0.897796	-3.150282
N	-1.74385	-0.112642	-1.902751
O	-1.981708	-0.577141	-3.014749
O	-2.578985	0.268395	-1.086985
N	-0.460654	-1.336202	0.539071
O	0.175634	-2.332789	0.188206
O	-1.416885	-1.350474	1.315358
N	-0.448139	1.050856	0.830726
H	-1.301509	1.480553	0.515497
H	0.297305	1.727958	0.908397
H	2.642247	0.0	0.0
