17

C	-0.621105	0.022673	-1.380729
C	0.0	0.0	0.0
Br	0.467797	-1.101974	-2.689534
H	1.08799	0.0	0.0
N	-1.985438	-0.289027	-1.401544
H	-2.089278	-1.24426	-1.080483
H	-2.371407	-0.170112	-2.328635
N	-0.4343	1.42216	-1.971471
O	0.651316	1.95563	-1.818021
O	-1.381424	1.882236	-2.606965
N	-0.360558	-1.187317	0.717536
O	-0.664402	-2.230485	0.08487
O	-0.189989	-1.167081	1.953662
N	-0.304731	1.2109	0.709374
H	0.554091	1.492857	1.177171
H	-1.009561	1.03012	1.410518
H	2.344185	0.0	0.0
