17

C	-0.562262	0.017586	-1.37746
C	0.0	0.0	0.0
Br	-2.719999	-0.231019	-1.270119
H	1.090853	0.0	0.0
N	-0.249122	1.190608	-2.022536
H	-0.338792	1.972165	-1.385454
H	-0.706957	1.296497	-2.915718
N	-0.124339	-1.102365	-2.306091
O	-0.629057	-1.103126	-3.425673
O	0.782515	-1.826267	-1.921916
N	-0.417951	-1.140591	0.811081
O	-0.318956	-0.998311	2.039533
O	-0.750632	-2.192809	0.258675
N	-0.244461	1.265076	0.638615
H	-1.044073	1.202455	1.257466
H	0.58394	1.467308	1.196545
H	2.3855	0.0	0.0
