19

C	-0.012244	-0.003344	0.014328
C	-0.511271	0.20707	-1.459497
F	1.418801	0.005052	-0.052785
H	0.415175	0.255815	-2.046459
C	-0.412351	1.101815	0.967528
H	0.058763	0.925669	1.940825
H	-1.49989	1.065659	1.055163
H	-0.104488	2.070856	0.577841
C	-0.411553	-1.344522	0.591931
H	-1.502728	-1.364814	0.612888
H	-0.016895	-2.171283	-0.004809
H	-0.008267	-1.437959	1.605037
N	-1.214126	1.480414	-1.57703
H	-1.494825	1.52888	-2.552591
H	-2.081188	1.293298	-1.050814
N	-1.356985	-0.847369	-2.025389
H	-0.91504	-1.75225	-1.902006
H	-2.197917	-0.806707	-1.427347
F	-3.041947	0.025329	-0.085817
