19

C	-0.012554	0.000959	0.020742
C	-0.538917	0.064137	-1.44602
F	1.415616	-0.024757	-0.0739
H	0.367415	0.113849	-2.061159
C	-0.369847	1.22218	0.84126
H	-1.45546	1.232163	0.948338
H	0.107684	1.144058	1.823714
H	-0.044463	2.133662	0.342099
C	-0.421707	-1.255253	0.759646
H	0.037227	-1.250939	1.754032
H	-1.510159	-1.238684	0.840425
H	-0.107893	-2.141832	0.210699
N	-1.30772	1.294092	-1.668808
H	-1.542318	1.309065	-2.65788
H	-2.184144	1.095812	-1.155743
N	-1.254112	-1.171021	-1.788865
H	-2.138975	-1.057816	-1.266724
H	-1.486299	-1.102708	-2.776334
F	-3.090478	-0.033604	-0.121864
