15
Coordinates from ORCA-job run
  C   0.83797300311977      0.92954352627240     -0.22561643878908
  C   -0.28052849076516     -0.11842848501521     -0.31670964630368
  Br  1.14238946615334      1.56816983904590      1.60358179157334
  H   -0.32917670824890     -0.35873081545522     -1.38852505498475
  H   0.55823251720571      1.82380320312130     -0.78801311144270
  C   2.09985731173774      0.42151607856110     -0.74992619832933
  N   3.10068338564065      0.01065456508113     -1.20823703684565
  C   -1.62547149865162      0.46771019815868      0.09990050496347
  H   -1.64257893920883      0.68971873188259      1.16867005836188
  H   -1.85011109770930      1.38870536827560     -0.44539578424119
  H   -2.42309761433734     -0.24915258454560     -0.10854186311387
  C   0.04732354769097     -1.39714798260655      0.44529225404207
  H   0.08983343278089     -1.20989977730936      1.52025532504576
  H   1.00339276272302     -1.82216794800574      0.13091623621293
  H   -0.72872107813095     -2.14429391746102      0.26334896385081
