15
Coordinates from ORCA-job run
  C   0.93019074192351      0.73827098154537     -0.56210073197406
  C   -0.36258291080470     -0.08306301787232     -0.47352096097249
  Br  0.60601418527726      2.56592580441792     -1.18669323781135
  H   -0.83357461341206     -0.01218196790850     -1.46089754862514
  H   1.59704989473425      0.30646194439669     -1.31208156743140
  C   1.63259778287502      0.79073763551376      0.71468931836417
  N   2.20925024679396      0.80362634518281      1.73837299591785
  C   -1.32405718052138      0.45132694800343      0.58107181608594
  H   -1.60332570991417      1.48794526336177      0.38729239478089
  H   -0.87763364333465      0.39434641640653      1.57780631418125
  H   -2.23709562544550     -0.14860566919800      0.58771355126952
  C   0.00267858929173     -1.54325156957278     -0.20147638241256
  H   0.46959406754498     -1.65467828710226      0.78096523669711
  H   0.69005028474310     -1.93659622000815     -0.95557843054136
  H   -0.89815610975134     -2.16126460716629     -0.21556276752839
