18

C	0.0	0.0	0.0
C	-0.509124	-0.026932	-1.435343
Br	2.035578	0.0	0.0
H	-1.615662	-0.024435	-1.292797
C	-0.400509	1.322353	0.631176
H	-1.50027	1.323105	0.595589
H	0.007313	2.180468	0.100439
H	-0.070524	1.336759	1.674335
N	-0.501883	-1.142506	0.684135
H	-0.351747	-1.0027	1.677507
H	-1.532629	-1.075891	0.53069
N	-0.181786	-1.363423	-2.092792
O	-0.92966	-2.311347	-1.878692
O	0.804338	-1.400309	-2.837099
N	-0.057633	1.075022	-2.213894
H	-0.573191	1.110994	-3.082999
H	0.925547	0.954864	-2.424733
H	-3.060022	0.0	0.0
