18

C	0.0	0.0	0.0
C	-0.473916	0.009878	-1.465601
Br	1.994564	0.0	0.0
H	-1.578548	-0.08527	-1.34559
C	-0.43566	1.3036	0.645373
H	-0.143615	1.272864	1.696547
H	-0.005782	2.170221	0.148959
H	-1.532174	1.319455	0.566078
N	-0.505726	-1.071233	0.794513
H	-1.533927	-0.894164	0.780111
H	-0.366504	-1.949731	0.307847
N	-0.00451	-1.248428	-2.196694
O	-0.386732	-2.343864	-1.781696
O	0.723565	-1.104732	-3.181707
N	-0.112714	1.187634	-2.172289
H	0.889711	1.201236	-2.325474
H	-0.571434	1.202493	-3.07426
H	-3.07753	0.0	0.0
