18

C	0.0	0.0	0.0
C	-0.518263	0.000695	-1.441421
Br	2.037617	0.0	0.0
H	-0.314356	-0.975101	-1.894987
C	-0.405453	1.217128	0.805818
H	-0.13079	2.11247	0.25165
H	0.07545	1.196574	1.787887
H	-1.492414	1.173355	0.938962
N	-0.462398	-1.185923	0.635601
H	-0.159364	-1.210572	1.601627
H	-0.106166	-2.008158	0.162733
N	0.081737	1.000003	-2.325987
O	-0.286216	2.244166	-1.981764
O	0.145403	0.634308	-3.58434
N	-1.956247	0.223763	-1.322773
H	-2.002958	1.244833	-1.463234
H	-2.417111	-0.209107	-2.120914
H	-3.004871	0.0	0.0
