18

C	0.0	0.0	0.0
C	-0.534989	0.137338	-1.420967
Br	1.967984	0.0	0.0
H	-0.300116	-0.77426	-1.977457
C	-0.375878	1.1683	0.918542
H	0.101498	1.02137	1.894531
H	-1.462872	1.178428	1.057784
H	-0.071514	2.106242	0.449666
N	-0.408193	-1.308262	0.522304
H	-1.42453	-1.235896	0.643696
H	-0.00146	-1.405772	1.449455
N	-0.086996	1.268554	-2.202176
O	-0.428754	2.446946	-1.652018
O	0.960336	1.092143	-2.952803
N	-2.02338	0.319271	-1.293093
H	-2.076909	1.352258	-1.3845
H	-2.48813	-0.116223	-2.090002
H	-2.808025	0.0	0.0
