18

C	0.0	0.0	0.0
C	-0.553445	0.116482	-1.419077
Br	1.965705	0.0	0.0
H	-1.655913	0.084992	-1.248296
C	-0.430281	1.242091	0.771257
H	-0.095088	1.151034	1.809104
H	-1.529076	1.235726	0.738282
H	-0.034726	2.157395	0.333475
N	-0.493147	-1.224208	0.563048
H	-1.524459	-1.144744	0.454979
H	-0.30177	-1.207749	1.560612
N	-0.22046	-1.130373	-2.227984
O	-0.943112	-2.114077	-2.102936
O	0.74583	-1.063985	-2.995547
N	-0.145382	1.305773	-2.086748
H	-0.733924	1.458119	-2.89408
H	0.813357	1.205176	-2.395232
H	-3.11325	0.0	0.0
