13
Coordinates from ORCA-job run
  C   -0.56610207318061     -0.53931235694429      0.38301000315036
  C   0.93852351527516     -0.33264905592151      0.46275297129393
  Cl  -0.85477099947473     -2.29682435781522      0.56505898010768
  H   1.45882215169620     -0.83750514526117     -0.34926572786183
  H   -1.03651214394430     -0.06089485288882      1.24223499766994
  H   1.32723844673334     -0.64812991872861      1.43102568249847
  C   -1.16427980545650     -0.03692333248158     -0.91487112325484
  H   -1.04001465842773      1.04596811030718     -0.99340656169917
  H   -2.23123895094256     -0.25898780461091     -0.95095801758546
  H   -0.68180445816238     -0.50977460981775     -1.77264697292049
  N   1.22469186406796      1.12513329095420      0.33256074892919
  O   0.77160640221105      1.84846434637990      1.21782990561774
  O   1.85384070960510      1.50143568682858     -0.65332488594553
