13
Coordinates from ORCA-job run
  C   -0.46740532763037     -0.72856059605764      0.18727350386667
  C   0.72169567540767     -0.03863816946336      0.84051152879186
  Cl  0.11293453261943     -2.03486523871881     -0.89084460569064
  H   1.37797443713942     -0.76272527034761      1.31904400695828
  H   -1.00176020376427     -1.23239175841356      0.99690473458955
  H   0.36401019363213      0.70236764983437      1.55756474761708
  C   -1.41461476348932      0.18611031018025     -0.56549531676083
  H   -1.74965327145797      0.99710351480937      0.08585812706363
  H   -2.28460526637692     -0.38165721153318     -0.89734870691134
  H   -0.93288178326837      0.62622023894494     -1.43713619091939
  N   1.55466896747586      0.70210948272938     -0.14846439924731
  O   2.61280985462047      0.18658569472111     -0.49883320038579
  O   1.10782695509224      1.77634135331473     -0.55003422897176
