13
Coordinates from ORCA-job run
  C   -0.45993211012770     -0.73144085560028      0.19353598936659
  C   0.70620643684891     -0.01031525389366      0.85415189388595
  Cl  0.16026896966346     -2.04999795598871     -0.84696426064847
  H   0.32422836687529      0.74017292538386      1.54848162804249
  H   -1.00125088967358     -1.22706093988893      1.00364148020867
  H   1.36403768491404     -0.71413490290607      1.35999158516332
  C   -1.40701803128474      0.15279173978404     -0.59476136349310
  H   -2.26098964084241     -0.43555743297267     -0.93230511445529
  H   -0.91564298515273      0.58444025646188     -1.46523880430224
  H   -1.76793211509439      0.97008961964248      0.03454571440314
  N   1.54697009024796      0.72254554945251     -0.13438503029067
  O   1.09140191546368      1.78073468107597     -0.56750962894634
  O   2.61965230816221      0.21673256944956     -0.45318408893405
