15

C	-0.396687	0.012859	-1.454693
C	0.0	0.0	0.0
Cl	-0.128907	1.592512	-2.193177
H	1.094059	0.0	0.0
H	0.171231	-0.718344	-2.019252
N	-1.850219	-0.343117	-1.687209
O	-2.645603	-0.113425	-0.778619
O	-2.137862	-0.827222	-2.777522
N	-0.379753	-1.348857	0.529956
O	-0.61697	-1.45301	1.732249
O	-0.378865	-2.299501	-0.25978
N	-0.467807	1.07641	0.792294
H	0.184183	1.219431	1.550166
H	-1.392918	0.907427	1.160493
F	2.508905	0.0	0.0
