15

C	-0.346191	-0.025919	-1.472617
C	0.0	0.0	0.0
Cl	0.070617	1.521456	-2.233913
H	1.101159	0.0	0.0
H	0.192672	-0.805472	-1.998425
N	-1.806284	-0.264242	-1.774421
O	-2.627382	0.213455	-0.993937
O	-2.075586	-0.891346	-2.793717
N	-0.440867	-1.30661	0.575374
O	-0.689911	-2.218619	-0.227686
O	-0.467065	-1.437734	1.791736
N	-0.42847	1.090672	0.797048
H	0.340368	1.734465	0.908513
H	-1.259749	1.54922	0.456113
F	2.513138	0.0	0.0
