15

C	-0.354695	0.01976	-1.470979
C	0.0	0.0	0.0
Cl	0.043953	1.597272	-2.179459
H	1.097451	0.0	0.0
H	0.188257	-0.738388	-2.023372
N	-1.815485	-0.221516	-1.771528
O	-2.63703	0.219871	-0.971199
O	-2.084127	-0.817715	-2.808281
N	-0.433722	-1.327632	0.532324
O	-0.466161	-1.498225	1.743125
O	-0.668405	-2.21594	-0.302823
N	-0.435305	1.057229	0.834492
H	-1.279216	1.509383	0.522398
H	0.320859	1.710862	0.970823
F	2.513436	0.0	0.0
