15

C	-0.588299	-0.274807	-1.382896
C	0.0	0.0	0.0
Cl	0.574915	-0.973315	-2.50831
H	1.095811	0.0	0.0
H	-1.447582	-0.939465	-1.353485
N	-1.130667	1.021799	-1.930059
O	-0.408805	1.759053	-2.580892
O	-2.299643	1.245999	-1.616899
N	-0.394193	-1.136797	0.883862
O	-0.532656	-2.250877	0.370686
O	-0.497859	-0.916283	2.092414
N	-0.348052	1.276406	0.534012
H	-1.200806	1.259021	1.078064
H	0.41987	1.580228	1.117028
F	2.495211	0.0	0.0
