15

C	-0.542658	-0.16303	-1.423781
C	0.0	0.0	0.0
Cl	0.510703	-1.122959	-2.458456
H	1.090342	0.0	0.0
H	-1.534405	-0.605303	-1.45508
N	-0.716578	1.212125	-2.013194
O	0.231415	1.776202	-2.538359
O	-1.840222	1.699043	-1.85284
N	-0.449508	-1.206449	0.781391
O	-0.967248	-2.150634	0.170055
O	-0.227728	-1.207868	1.985677
N	-0.373813	1.184771	0.696012
H	-1.202123	1.654843	0.36248
H	0.423145	1.801446	0.747345
F	2.512606	0.0	0.0
