15

C	-0.56443	-0.063694	-1.411491
C	0.0	0.0	0.0
Cl	0.069173	-1.443411	-2.306286
H	1.09309	0.0	0.0
H	-1.651604	-0.114389	-1.429496
N	-0.222558	1.225841	-2.115857
O	0.836348	1.335524	-2.711565
O	-1.075434	2.10828	-1.993191
N	-0.565175	-1.205137	0.715268
O	-1.746054	-1.505328	0.487532
O	0.148578	-1.777615	1.530713
N	-0.415874	1.152468	0.744602
H	0.384643	1.759416	0.846276
H	-1.20247	1.649965	0.353008
F	2.541321	0.0	0.0
