18

C	0.0	0.0	0.0
C	-0.691882	-0.033135	-1.347121
Cl	1.764176	0.0	0.0
H	-1.788153	-0.211741	-0.997556
C	-0.491707	1.196372	0.794956
H	-0.164583	2.10637	0.297383
H	-1.585414	1.117259	0.785971
H	-0.080789	1.141496	1.802273
N	-0.409256	-1.247684	0.823665
O	-0.026711	-1.262681	1.990492
O	-1.088102	-2.112405	0.294948
N	-0.208812	-1.132081	-2.258425
O	0.479488	-2.051621	-1.819041
O	-0.553251	-1.035471	-3.441329
N	-0.620796	1.237693	-2.004398
H	0.211274	1.308263	-2.577654
H	-1.429924	1.339761	-2.599667
F	-2.919919	0.0	0.0
