18

C	0.0	0.0	0.0
C	-0.62247	0.003929	-1.39337
Cl	1.794883	0.0	0.0
H	-1.721782	-0.007421	-1.139974
C	-0.496122	1.199894	0.770719
H	-1.590994	1.095635	0.754483
H	-0.169576	2.099111	0.25193
H	-0.093785	1.176535	1.781994
N	-0.40654	-1.270556	0.741548
O	-0.455957	-1.215931	1.962896
O	-0.583939	-2.281166	0.071012
N	-0.321194	-1.213632	-2.245854
O	-1.2796	-1.75309	-2.795673
O	0.857307	-1.504444	-2.456223
N	-0.203481	1.176085	-2.109162
H	0.742398	1.055059	-2.455278
H	-0.83114	1.33746	-2.885716
F	-2.866636	0.0	0.0
