16

C	-0.341241	-0.060093	-1.488781
C	0.0	0.0	0.0
Br	-2.272938	-0.307257	-1.850385
H	1.093214	0.0	0.0
C	0.015496	1.202214	-2.156835
N	0.352266	2.112723	-2.82165
N	0.365996	-1.19655	-2.008181
H	1.332718	-1.166387	-1.673876
H	0.356453	-1.176324	-3.02051
N	-0.498746	-1.211691	0.716886
O	0.238852	-2.189089	0.717829
O	-1.614197	-1.136018	1.229211
N	-0.497998	1.190006	0.733557
O	-0.216377	1.216229	1.926721
O	-1.114321	2.052044	0.113338
Cl	3.129833	0.0	0.0
