16

C	-0.572708	-0.018393	-1.435446
C	0.0	0.0	0.0
Br	-0.014383	1.703143	-2.222072
H	1.090224	0.0	0.0
C	0.095559	-1.069421	-2.207811
N	0.568505	-1.91208	-2.876564
N	-1.994211	-0.144489	-1.619795
H	-2.464611	0.52462	-1.020689
H	-2.265909	-1.080362	-1.339086
N	-0.442892	-1.193333	0.786013
O	-0.269421	-1.132893	1.997157
O	-0.898613	-2.156808	0.169668
N	-0.512659	1.182012	0.760122
O	0.293704	2.009081	1.157523
O	-1.736987	1.228208	0.924778
Cl	3.142401	0.0	0.0
