16

C	-0.553991	-0.016504	-1.426982
C	0.0	0.0	0.0
Br	0.047877	1.744232	-2.248797
H	1.087954	0.0	0.0
C	0.113232	-1.019585	-2.25916
N	0.519517	-1.796782	-3.04147
N	-1.948621	-0.237234	-1.470855
H	-2.284915	-0.310221	-2.42208
H	-2.435509	0.489105	-0.96123
N	-0.47142	-1.242867	0.705334
O	-1.175557	-1.119318	1.703019
O	-0.098622	-2.2931	0.20144
N	-0.489637	1.151865	0.816089
O	0.224281	1.477282	1.754689
O	-1.577376	1.659757	0.534864
Cl	3.134917	0.0	0.0
