16

C	-0.582966	0.001396	-1.418742
C	0.0	0.0	0.0
Br	0.331642	1.359762	-2.499154
H	1.088334	0.0	0.0
C	-0.268144	-1.275821	-2.081974
N	-0.122281	-2.299746	-2.642391
N	-1.986423	0.337065	-1.405523
H	-2.332075	0.391125	-2.356368
H	-2.481431	-0.395186	-0.906599
N	-0.460676	-1.192699	0.78158
O	0.144751	-1.405044	1.823458
O	-1.412501	-1.851965	0.353937
N	-0.511916	1.192325	0.754872
O	-1.438977	1.013177	1.541422
O	0.030132	2.257802	0.502291
Cl	3.155237	0.0	0.0
