16

C	-0.488893	0.018039	-1.447626
C	0.0	0.0	0.0
Br	-2.535349	0.453986	-1.441343
H	1.090407	0.0	0.0
C	0.065214	1.144743	-2.198676
N	0.463106	1.969661	-2.935896
N	-0.182841	-1.169601	-2.110273
H	-0.632909	-1.97269	-1.695951
H	-0.316354	-1.110758	-3.108851
N	-0.417313	-1.202543	0.776552
O	0.095123	-1.302744	1.883305
O	-1.208648	-2.007056	0.278458
N	-0.46494	1.215109	0.741229
O	-1.213274	1.078993	1.701556
O	-0.045334	2.272814	0.286922
Cl	3.097928	0.0	0.0
