17

C	0.0	0.0	0.0
C	-0.535829	0.034857	-1.427885
F	1.367392	0.0	0.0
H	0.004938	0.892009	-1.852255
C	-0.436285	1.140772	0.816027
N	-0.693876	2.082248	1.469505
N	-0.38276	-1.272951	0.767575
O	0.192113	-1.413028	1.840784
O	-1.192639	-2.036599	0.261595
C	-2.03323	0.301522	-1.510689
H	-2.304655	0.427261	-2.56238
H	-2.638076	-0.506157	-1.100301
H	-2.342676	1.202079	-0.977368
N	-0.061328	-1.16471	-2.114114
H	0.154103	-0.93347	-3.074629
H	-0.803727	-1.854193	-2.116994
Br	-5.260234	0.0	0.0
