12

C	-0.385324	0.129588	-1.473788
C	0.0	0.0	0.0
Cl	-0.317679	-1.594401	-2.208855
H	1.09443	0.0	0.0
H	-1.430779	0.396861	-1.630707
H	-0.368639	-0.926202	0.439978
N	0.475527	1.053118	-2.084581
H	1.449027	0.868102	-1.850781
H	0.345896	1.123089	-3.083265
C	-0.509499	1.139997	0.753641
N	-0.940435	2.03447	1.380157
Cl	3.363682	0.0	0.0
