12

C	-0.5216	-0.031443	-1.429083
C	0.0	0.0	0.0
Cl	0.071172	1.500426	-2.248
H	1.091712	0.0	0.0
H	-0.042948	-0.836915	-1.986952
H	-0.330389	0.919779	0.494083
N	-1.939119	-0.175162	-1.489125
H	-2.258792	-0.178368	-2.449491
H	-2.388722	0.593685	-1.004326
C	-0.493817	-1.149998	0.75317
N	-0.895227	-2.072308	1.357827
Cl	3.392246	0.0	0.0
