12

C	-0.377882	0.132968	-1.475714
C	0.0	0.0	0.0
Cl	-0.334054	-1.593657	-2.20683
H	1.094281	0.0	0.0
H	-1.418562	0.413006	-1.635614
H	-0.37127	-0.925756	0.437906
N	0.496245	1.041777	-2.085401
H	0.375142	1.109993	-3.086019
H	1.465134	0.849606	-1.842428
C	-0.510206	1.139778	0.754435
N	-0.941153	2.033729	1.381365
Cl	3.36452	0.0	0.0
