12

C	-0.562802	-0.05019	-1.422068
C	0.0	0.0	0.0
Cl	-0.127457	1.442906	-2.295282
H	1.094758	0.0	0.0
H	-0.064886	-0.866023	-1.947238
H	-0.295457	-0.9352	0.493976
N	-1.9975	-0.231161	-1.532823
H	-2.460602	0.515218	-1.024613
H	-2.24153	-1.10781	-1.086541
C	-0.570798	1.102727	0.762794
N	-1.068833	1.987991	1.351789
Cl	3.362781	0.0	0.0
