12

C	-0.317819	-0.066838	-1.482676
C	0.0	0.0	0.0
Cl	-2.105048	-0.113982	-1.797569
H	1.095636	0.0	0.0
H	-0.004122	0.881736	-1.931821
H	-0.361283	0.932982	0.435782
N	0.29897	-1.235523	-2.039173
H	1.258896	-1.275008	-1.699312
H	0.316204	-1.179198	-3.049655
C	-0.520751	-1.133925	0.751765
N	-0.930957	-2.032312	1.385673
Cl	3.336468	0.0	0.0
