12

C	-0.404861	0.140278	-1.479094
C	0.0	0.0	0.0
Cl	-0.317053	-1.498029	-2.231651
H	1.09397	0.0	0.0
H	-1.446741	0.449888	-1.58424
H	-0.379613	-0.91079	0.465652
N	0.430805	1.044521	-2.218802
H	0.209462	1.994382	-1.940213
H	1.402692	0.865224	-1.9717
C	-0.484171	1.169771	0.725112
N	-0.905707	2.133372	1.248208
Cl	3.359507	0.0	0.0
