12

C	-0.544461	-0.076734	-1.417051
C	0.0	0.0	0.0
Cl	-0.021266	1.416041	-2.341489
H	1.091203	0.0	0.0
H	-0.04864	-0.896086	-1.936543
H	-0.317319	-0.91666	0.509145
N	-1.957987	-0.272182	-1.432476
H	-2.417948	0.498478	-0.95997
H	-2.300465	-0.306535	-2.38449
C	-0.562592	1.132371	0.726586
N	-1.077052	2.007927	1.315909
Cl	3.375812	0.0	0.0
