12

C	-0.466586	0.138534	-1.437935
C	0.0	0.0	0.0
Cl	-2.250466	0.780093	-1.414329
H	1.09123	0.0	0.0
H	0.067361	0.958006	-1.914288
H	-0.324433	0.867272	0.577935
N	-0.321242	-1.040347	-2.175668
H	-0.796832	-1.828461	-1.756756
H	-0.581944	-0.933893	-3.144082
C	-0.537742	-1.206333	0.613534
N	-0.999126	-2.189968	1.058429
Cl	3.360979	0.0	0.0
