12

C	-0.321363	-0.003008	-1.492995
C	0.0	0.0	0.0
Cl	-2.10541	0.092546	-1.760073
H	1.095415	0.0	0.0
H	0.091661	0.91102	-1.921247
H	-0.365559	0.902583	0.494443
N	0.212276	-1.121228	-2.220489
H	-0.079908	-1.982901	-1.771458
H	1.226998	-1.066106	-2.141278
C	-0.513638	-1.185847	0.669276
N	-0.921185	-2.160771	1.181404
Cl	3.333238	0.0	0.0
