14

C	-0.406629	0.00286	-1.46767
C	0.0	0.0	0.0
F	-1.785999	-0.152638	-1.604706
H	1.096802	0.0	0.0
H	0.073564	-0.831107	-1.985948
C	-0.041778	1.262251	-2.136205
N	0.192232	2.264084	-2.701055
C	-0.471726	-1.246835	0.599214
N	-0.879428	-2.231235	1.09348
C	-0.515617	1.213179	0.771999
H	-0.214043	1.1336	1.817172
H	-1.604299	1.288046	0.719306
H	-0.067941	2.121114	0.363691
Br	3.426846	0.0	0.0
