14

C	-0.40019	0.01009	-1.471377
C	0.0	0.0	0.0
F	-0.102417	-1.197462	-2.068831
H	1.095893	0.0	0.0
H	0.181655	0.786955	-1.977429
C	-1.839716	0.275694	-1.664165
N	-2.981233	0.510913	-1.80425
C	-0.534991	-1.180214	0.668045
N	-0.988345	-2.102228	1.237324
C	-0.440497	1.286808	0.703233
H	-0.030392	1.296994	1.713725
H	-1.52793	1.38083	0.756071
H	-0.026679	2.149151	0.173786
Br	3.437149	0.0	0.0
