14

C	-0.400724	0.023613	-1.468351
C	0.0	0.0	0.0
F	-1.785507	-0.071119	-1.608164
H	1.096756	0.0	0.0
H	0.042435	-0.830149	-1.987527
C	0.02254	1.266656	-2.133394
N	0.303329	2.25954	-2.693396
C	-0.48542	-1.24845	0.584045
N	-0.907591	-2.237519	1.055604
C	-0.505295	1.21234	0.780814
H	-0.187857	1.131383	1.821207
H	-0.062698	2.120716	0.367705
H	-1.594253	1.288422	0.743856
Br	3.431297	0.0	0.0
