14

C	-0.400223	0.015242	-1.471327
C	0.0	0.0	0.0
F	-0.102075	-1.189881	-2.07287
H	1.095878	0.0	0.0
H	0.181609	0.793962	-1.974245
C	-1.839767	0.28155	-1.664663
N	-2.981263	0.517292	-1.805099
C	-0.534919	-1.182471	0.663766
N	-0.988521	-2.104772	1.231928
C	-0.440621	1.284128	0.70778
H	-1.528022	1.377898	0.760738
H	-0.026865	2.148384	0.181652
H	-0.030551	1.290507	1.7183
Br	3.437308	0.0	0.0
