14

C	0.0	0.0	0.0
C	-0.668248	-0.132341	-1.352586
Br	1.936718	0.0	0.0
H	-1.741321	-0.121405	-1.031398
H	-0.313491	-0.859265	0.592652
C	-0.391839	1.232948	0.688699
N	-0.579666	2.250555	1.246017
N	-0.356893	-1.424679	-1.931134
H	0.342382	-1.282503	-2.649457
H	-1.195305	-1.787307	-2.367049
N	-0.324314	0.976147	-2.249393
H	-0.128131	1.809916	-1.705659
H	-1.160363	1.189912	-2.786889
H	-3.205383	0.0	0.0
