14

C	0.0	0.0	0.0
C	-0.601092	0.134096	-1.404859
Br	1.949955	0.0	0.0
H	-1.607424	0.524995	-1.189587
H	-0.337623	-0.922324	0.467958
C	-0.370543	1.14005	0.845022
N	-0.51772	2.078341	1.536739
N	-0.701601	-1.22038	-1.963302
H	-1.002515	-1.11069	-2.928447
H	-1.508949	-1.620665	-1.476701
N	0.136584	1.064151	-2.223209
H	0.944322	0.606727	-2.631703
H	-0.463561	1.399232	-2.965841
H	-3.011575	0.0	0.0
