14

C	0.0	0.0	0.0
C	-0.240787	-0.048272	-1.567721
Br	1.956361	0.0	0.0
H	0.615925	-0.605415	-1.963359
H	-0.30757	-0.929009	0.468951
C	-0.565585	1.151527	0.676953
N	-0.587441	2.164232	1.29331
N	-0.222291	1.344533	-2.053608
H	0.558027	1.835818	-1.624381
H	-0.022758	1.314159	-3.048167
N	-1.392594	-0.796081	-2.03958
H	-2.186832	-0.437074	-1.502565
H	-1.504702	-0.575933	-3.027522
H	-2.202618	0.0	0.0
