14

C	0.0	0.0	0.0
C	-0.580797	0.091126	-1.413847
Br	1.950383	0.0	0.0
H	-1.615126	0.415371	-1.211437
H	-0.343434	-0.907135	0.494053
C	-0.377717	1.167261	0.802724
N	-0.531338	2.135242	1.450685
N	-0.569468	-1.264619	-1.982857
H	-1.337612	-1.744662	-1.509292
H	-0.870834	-1.17012	-2.949092
N	0.112716	1.068207	-2.214299
H	0.953726	0.663311	-2.610668
H	-0.492186	1.37788	-2.963738
H	-3.006184	0.0	0.0
