14

C	0.0	0.0	0.0
C	-0.452659	0.34979	-1.458219
Br	1.956308	0.0	0.0
H	0.236356	-0.234887	-2.091406
H	-0.303165	-1.017731	0.244865
C	-0.436808	0.919411	1.039322
N	-0.693814	1.613683	1.950141
N	-0.295399	1.78862	-1.635597
H	-0.812184	2.023904	-2.475063
H	0.681286	2.028855	-1.764811
N	-1.78782	-0.018318	-1.809366
H	-2.521014	0.15796	-1.048251
H	-1.82811	-1.024986	-1.947136
H	-3.609652	0.0	0.0
