14

C	0.0	0.0	0.0
C	-0.41248	0.124678	-1.508553
Br	1.959089	0.0	0.0
H	0.269997	-0.569006	-2.02677
H	-0.316916	-0.95911	0.409614
C	-0.436489	1.093385	0.855817
N	-0.651294	1.936251	1.645971
N	-0.198092	1.514739	-1.898933
H	0.773773	1.685621	-2.124616
H	-0.767681	1.65895	-2.722157
N	-1.754627	-0.244803	-1.8354
H	-1.817512	-1.256693	-1.881604
H	-2.47173	0.014586	-1.082932
H	-3.507345	0.0	0.0
