14

C	0.0	0.0	0.0
C	-0.480573	0.000105	-1.479354
Br	1.94783	0.0	0.0
H	-1.562049	-0.142736	-1.347789
H	-0.356554	-0.905421	0.491853
C	-0.435254	1.168751	0.759699
N	-0.572884	2.151524	1.393697
N	0.05589	-1.066418	-2.296204
H	-0.31425	-1.951434	-1.970551
H	1.067113	-1.08946	-2.216368
N	-0.117234	1.266858	-2.102255
H	-0.385306	1.178615	-3.076287
H	-0.706091	1.989067	-1.695359
H	-2.829364	0.0	0.0
