14

C	0.0	0.0	0.0
C	-0.466769	0.031913	-1.51343
Br	1.946708	0.0	0.0
H	0.421703	-0.243538	-2.089751
H	-0.313876	-0.932338	0.466676
C	-0.421498	1.1198	0.831279
N	-0.612367	2.036211	1.543154
N	-0.801364	1.409725	-1.840335
H	-1.053218	1.40265	-2.824142
H	-1.666924	1.606429	-1.335839
N	-1.52499	-0.887056	-1.86365
H	-2.306786	-0.661279	-1.1995
H	-1.225982	-1.842118	-1.674681
H	-3.0627	0.0	0.0
