12
Coordinates from ORCA-job run
  C   0.68989183953944      0.74942102269892      0.30667015985598
  C   -0.35970697223726     -0.06438403389736     -0.45305004138176
  F   0.34307864565882      0.76175260120820      1.64429582686727
  H   -0.04475234120165     -0.11541314617306     -1.50083843667892
  H   0.71092168296551      1.78565587942998     -0.04265014232637
  C   2.01936893478935      0.14639848517896      0.14830574914925
  N   3.09520155439675     -0.29353618574562     -0.00968999914523
  C   -1.65083537921047      0.65525455420705     -0.39831438378611
  N   -2.69712956960503      1.18626288995041     -0.34578098333657
  N   -0.38624716107179     -1.40698633376805      0.08893897723289
  H   -0.97245077517354     -2.01150791446906     -0.47150071766191
  H   -0.74734045885013     -1.39391781862036      1.03461399121148
