12
Coordinates from ORCA-job run
  C   0.69299719249228      0.64508370521179      0.48260020449267
  C   -0.36532146642672      0.05472514830111     -0.45139370739485
  F   0.36143262968532      0.30692932986382      1.78087794700425
  H   -0.06304400246440      0.28042711003281     -1.47967618715490
  H   0.70984029559814      1.73663346775533      0.41555671676512
  C   2.02115710137085      0.10904580633866      0.15880620392270
  N   3.09742975403755     -0.26798606138239     -0.11610324636227
  C   -1.65540646752380      0.73122998960734     -0.19477294169145
  N   -2.69988094125379      1.22760435354325      0.01031462352626
  N   -0.38532658916984     -1.38304950068569     -0.27896492553938
  H   -0.98057603272606     -1.82135244851971     -0.96939886241700
  H   -0.73330147361952     -1.61829090006634      0.64215417484884
