12
Coordinates from ORCA-job run
  C   -0.32712608265394      0.27089030508459      0.09093918422067
  C   0.97663314473045      0.09104147768896      0.30465511318139
  H   1.56246432432791      0.77972475845408      0.89816718681730
  N   -1.21774782762825     -0.58449513368381     -0.68700419140854
  O   -1.33639431022341     -0.28678847931144     -1.86786410149824
  O   -1.78105666990015     -1.47069243387933     -0.05879855344184
  N   -1.02465481514459      1.44082829209492      0.66702457665454
  O   -0.34887931126772      2.21606615475747      1.32769195098874
  O   -2.22396167815618      1.51544848168561      0.42274251931492
  N   1.71206158110251     -1.04161774392565     -0.23460911796505
  O   1.10541090497490     -1.85101852725633     -0.93235732554750
  O   2.90425073983847     -1.07838715170906      0.07041275868361
