12
Coordinates from ORCA-job run
  C   -0.42752135734826     -0.04109090335128      0.06724766876858
  C   0.67295379145555     -0.75921962806847     -0.15845273134964
  H   0.65284826327471     -1.83867343360395     -0.22250277544219
  N   -1.73469364097830     -0.70979505144047      0.23965600262577
  O   -1.74481068865242     -1.92997794482007      0.16577781361059
  O   -2.68804214926297      0.03460150890209      0.44142877540702
  N   -0.52298839359042      1.41146753044593      0.17483027322178
  O   -0.75892243814898      2.00394113940383     -0.86942171797689
  O   -0.40329667263654      1.86565177747070      1.30471510852996
  N   1.98354248375142     -0.15405495607543     -0.33475895669708
  O   2.89987246510616     -0.95177047479036     -0.53401359281346
  O   2.07305833703006      1.06992043592748     -0.27350586788445
