12
Coordinates from ORCA-job run
  C   -0.42709171584618     -0.02780052333982      0.07526200538576
  C   0.65156656750101     -0.78065707451715     -0.14280541566393
  H   0.60313288832074     -1.86078601603240     -0.16929002862578
  N   -1.74706122377291     -0.65764202958246      0.29226728622380
  O   -1.78919517360234     -1.87875733325637      0.25480034898056
  O   -2.67710043834281      0.11653719412886      0.49068550296625
  N   -0.48569368701200      1.42948364708967      0.13401457650762
  O   -0.33165752797138      1.91977027854220      1.24441802629331
  O   -0.72955017885873      1.99060584353627     -0.92563295889786
  N   1.97336134099632     -0.21518814097496     -0.36151237738237
  O   2.09311616694117      1.00766649892340     -0.34936764357284
  O   2.86717298164711     -1.04223234451723     -0.54283932221451
