12
Coordinates from ORCA-job run
  C   -0.42698456659142     -0.02304718748498      0.08029106964635
  C   0.68653120119379     -0.75596224250980      0.10683141228020
  H   0.68729304954935     -1.79147357709188      0.41896510501265
  N   -1.72128998843187     -0.61389892912481      0.48215717971896
  O   -2.68726954528587      0.13946169368760      0.42739120419418
  O   -1.70911395687799     -1.78606290296028      0.82885896191445
  N   -0.54939754925771      1.37547129520059     -0.31920343432144
  O   -0.80275021505461      1.56612551095433     -1.50099571561192
  O   -0.43176893944657      2.19449104217585      0.58224848201840
  N   1.98576650370963     -0.22531558492890     -0.27462030230505
  O   2.91888218257072     -1.02301558765294     -0.18097306133599
  O   2.05110182392255      0.94322646973522     -0.64895090121079
