12
Coordinates from ORCA-job run
  C   -0.43041892566787     -0.06382095747862      0.00001680368997
  C   0.72065668757847     -0.67275307286476      0.28604865578898
  H   0.75976547057094     -1.69789472041380      0.62857420763844
  N   -0.60565000010949      1.30405598289465     -0.47638696538892
  O   -0.80729198890114      2.14103751714829      0.39337317690772
  O   -0.57897292232394      1.45114234733456     -1.69098283357518
  N   -1.71359573171790     -0.78232407139403      0.15075632033197
  O   -2.71489522356274     -0.15271736745895     -0.17301705281439
  O   -1.65862275449821     -1.92691094778235      0.57673702754461
  N   2.01191608497727     -0.02082981736870      0.13704770655333
  O   2.98514101277414     -0.74365954856750      0.35186443770595
  O   2.03196829088048      1.16567465595122     -0.18203148438246
