12
Coordinates from ORCA-job run
  C   -0.30705808499212      0.29525230188478      0.08701489283638
  C   0.95282560589909     -0.02671630140752      0.38169614099086
  H   1.55143657152268      0.55933567181027      1.06576594925116
  N   -1.20828951740485     -0.41495201622254     -0.81509132016761
  O   -1.19679050396949     -0.03641948591383     -1.97861260618187
  O   -1.90579149501842     -1.27513967139436     -0.29472145149585
  N   -0.93690266592677      1.48564108061903      0.69704372341769
  O   -2.09769844850620      1.69967127237812      0.36465882007837
  O   -0.25004671703497      2.13982032400783      1.46817467721849
  N   1.62146219576823     -1.18569994493955     -0.18789997592965
  O   0.99451888207053     -1.89185399724769     -0.97417664151256
  O   2.78333417759229     -1.34893923357454      0.18514779149459
