12
Coordinates from ORCA-job run
  C   -0.44988221439157     -0.07771118934579      0.06604571511032
  C   0.69465041001640     -0.71394496641817      0.30459213228708
  H   0.74722111215554     -1.74385175584299      0.63407045320970
  N   -0.52137601496106      1.28705794864741     -0.45761181376981
  O   -0.54784865668948      2.18608393372038      0.37494376911828
  O   -0.52691807155866      1.37986262751865     -1.68166076568717
  N   -1.75624526576401     -0.69575850504829      0.30532867685130
  O   -1.75670583783618     -1.88128003925734      0.60945799874359
  O   -2.72898841772496      0.03201296497731      0.12787705133385
  N   1.97339080353556     -0.08509363470077      0.00364647725557
  O   2.64518497341951     -0.67559492717942     -0.83695583787275
  O   2.22551717979891      0.98621754292902      0.54926614342006
