12
Coordinates from ORCA-job run
  C   -0.42856529123054     -0.01003072653870      0.07158372152794
  C   0.66105490873297     -0.77705321978004      0.11650600287558
  H   0.62242777436845     -1.81550806814002      0.41627732956499
  N   -0.49982963113407      1.39519155112123     -0.31620619929984
  O   -0.38626334605078      2.20103067802122      0.59757647655703
  O   -0.71327007804652      1.60517050263571     -1.50264762667888
  N   -1.74933623259888     -0.56521477968185      0.43772289718872
  O   -1.78002293451958     -1.73934545660707      0.77653561140084
  O   -2.69134254471248      0.21631796048439      0.36384497887463
  N   1.98360089264126     -0.28436049605567     -0.23404413707593
  O   2.09520332343256      0.88992635072468     -0.57843932411818
  O   2.88634315911761     -1.11712429618388     -0.14870973081691
