12
Coordinates from ORCA-job run
  C   -0.32485189182223      0.27492419279648      0.09166024218118
  C   0.99784068668631      0.14558875399590      0.19729504104624
  H   1.62231847469648      0.92612946141474      0.61024461074443
  N   -1.26161639184774     -0.70213822547716     -0.45453618785538
  O   -1.80661213350849     -1.42110134972426      0.37225117441474
  O   -1.43000660604333     -0.66165565537874     -1.66579500857661
  N   -0.99463100267285      1.51224575449414      0.54489579095168
  O   -0.29231962045519      2.35315766633762      1.08717528879761
  O   -2.19927187602444      1.57377640959298      0.32424631634849
  N   1.70740199078227     -1.04004108940311     -0.25677273091096
  O   2.93460357423656     -0.94401796245934     -0.24802819833951
  O   1.04714479597265     -2.01686795618928     -0.60263633880190
