12
Coordinates from ORCA-job run
  C   -0.30164622617838      0.31200723630678      0.02463156566681
  C   1.00150385184088      0.09519409474250      0.20494169756804
  H   1.67504992465914      0.87617632055987      0.53069966271770
  N   -1.30327547997243     -0.65759892482282     -0.40766929719334
  O   -1.49783057909943     -0.71208195223036     -1.61451329838563
  O   -1.86691789023048     -1.27047993501944      0.48892489837643
  N   -0.87717368657041      1.65206590623515      0.26814767345881
  O   -0.10429596760048      2.52797114705240      0.62834475536370
  O   -2.08532809505547      1.75114492965575      0.08296922872811
  N   1.62019121819485     -1.20217784831110     -0.01589184778833
  O   0.91023007231877     -2.12829704250550     -0.40086965754205
  O   2.82949285769345     -1.24492393166322      0.21128461902975
