12
Coordinates from ORCA-job run
  C   -0.30670746336585      0.30629705941511      0.03674029833160
  C   1.00176003225277      0.10681760746873      0.19772003289937
  H   1.66686342283208      0.89118692633036      0.53255030772027
  N   -0.90173316857834      1.63016626693345      0.31784447235681
  O   -2.11217454276634      1.71544412032723      0.14099402534832
  O   -0.14028190470825      2.50872597364584      0.69564437261958
  N   -1.29672921410829     -0.67010735650981     -0.40736331245057
  O   -1.49651804119503     -0.70781620313338     -1.61396644809039
  O   -1.84737453291826     -1.30493599212829      0.48199219827919
  N   1.63929462263988     -1.17381021341214     -0.06408777098142
  O   0.93692947046734     -2.10797909843794     -0.44335142345143
  O   2.85567131944827     -1.19498909049916      0.12528324741866
