12
Coordinates from ORCA-job run
  C   -0.43263995322186     -0.04182244991537     -0.00871252572380
  C   0.68395454859441     -0.73298087173914      0.22209542041711
  H   0.66736404097018     -1.78028663063739      0.49156187500894
  N   -0.53482929328744      1.36655991237550     -0.37866672480645
  O   -0.54161999657124      1.59715654446513     -1.58033263431254
  O   -0.64938371127159      2.15017747189505      0.55401121948065
  N   -1.75368179963311     -0.69695672616368      0.10002990464876
  O   -2.72130569233404      0.02024221089844     -0.13027993428162
  O   -1.75962419901210     -1.88025075958025      0.40675171895668
  N   2.00863249033719     -0.13995462298693      0.12878469365774
  O   2.93948611291285     -0.91239444616436      0.35805297350634
  O   2.09464745251674      1.05051036755300     -0.16329598655182
