12
Coordinates from ORCA-job run
  C   -0.43292870711185     -0.03175160166435     -0.01853083756529
  C   0.67632964260800     -0.77023762824263     -0.06196286661267
  H   0.64758569473259     -1.84482422571973     -0.18107945712710
  N   -1.76157458070030     -0.67075906752390     -0.13345523744550
  O   -1.78013956170756     -1.88542126720531     -0.26957762335424
  O   -2.72166101200197      0.09015315628793     -0.07998392369426
  N   -0.52026018170375      1.41674675904001      0.13782897904178
  O   -0.54095920914995      2.05962733911197     -0.90306562289059
  O   -0.61071456187048      1.81867030122381      1.29000372299526
  N   2.00759358305783     -0.19523209963103      0.04699668277698
  O   2.92968535277572     -1.00927854669783     -0.00591914173982
  O   2.10704354107172      1.02230688102105      0.17974532561546
