12
Coordinates from ORCA-job run
  C   -0.43203840927978     -0.04395051727120     -0.01641783686603
  C   0.68747127823652     -0.74350721008956      0.17108090897326
  H   0.67531443460703     -1.80842058837824      0.35964043974027
  N   -1.74889213580376     -0.71464974125793      0.02821372821817
  O   -1.74902900549864     -1.91753825302930      0.24590879928525
  O   -2.71950206448651      0.01081243300801     -0.15984376485349
  N   -0.54133049186209      1.38815254075768     -0.27646391142614
  O   -0.67097115831817      2.09539571715553      0.71359127882848
  O   -0.53918789912107      1.71228950683703     -1.45632129694618
  N   2.00829946183927     -0.13610482640969      0.13695872208151
  O   2.08811073742328      1.07345102375576     -0.06439776883663
  O   2.94275525226391     -0.91693008507807      0.31805070180154
