12
Coordinates from ORCA-job run
  C   -0.43080536456292     -0.05492098349278      0.01847994953525
  C   0.71839892978957     -0.71005759215299      0.18523733503678
  H   0.75018024739467     -1.75478539655062      0.46319314314700
  N   -0.59857722896182      1.34607212193590     -0.35495257088292
  O   -0.67847154522904      2.13519820640241      0.57666503382309
  O   -0.68860277213635      1.56456496916671     -1.55561574091319
  N   -1.72217613824984     -0.74838448246660      0.21348181391758
  O   -2.72341301260349     -0.06180775823463      0.04089404075098
  O   -1.67306724479909     -1.92927346800137      0.52551344687443
  N   2.01592227249383     -0.07846277596749      0.00537567341952
  O   2.98240725470738     -0.81991592383172      0.18403201391920
  O   2.04720460215710      1.11077308319320     -0.30230413862772
