12
Coordinates from ORCA-job run
  C   -0.31927302580302      0.28121471757189      0.08935865893607
  C   0.94363301051867     -0.00718998183149      0.40498433678091
  H   1.50490289021884      0.57471903448218      1.12337757098257
  N   -1.17202103881042     -0.42750710583659     -0.85974438772300
  O   -1.14519631675221     -0.00734551334364     -2.00870452790387
  O   -1.85150372501922     -1.32917300129539     -0.38801239921330
  N   -1.00580354071650      1.42709592673536      0.72304942765328
  O   -2.16549204842859      1.61127846379724      0.36960316309179
  O   -0.36122681921748      2.07811745947189      1.53243215511124
  N   1.66630449657892     -1.12216293073719     -0.18631040458376
  O   1.08432468865812     -1.82108622538319     -1.01259318017809
  O   2.82335142877288     -1.25896084363107      0.21155958704616
