12
Coordinates from ORCA-job run
  C   -0.42576211322755     -0.02310836222808      0.08358075542219
  C   0.71212766486641     -0.70032621216826      0.23992252191998
  H   0.74690296331324     -1.66020688822416      0.73703314965908
  N   -1.70006402363859     -0.57388173380890      0.59267803357335
  O   -2.69048306728039      0.12523188893886      0.40858407782860
  O   -1.64912866807384     -1.66361585837554      1.14419107946540
  N   -0.59583132012084      1.27350572418874     -0.56476342742032
  O   -0.86427687617544      1.23461039017431     -1.75787129107512
  O   -0.49848478321409      2.24823884489947      0.16848378428508
  N   1.99334929397352     -0.20305480140420     -0.23541903567316
  O   2.95704222081665     -0.92481547296415      0.02181394265436
  O   2.01560870876091      0.86742248097190     -0.83823359063946
