12
Coordinates from ORCA-job run
  C   -0.29440138855518      0.30023832579535      0.11060532982169
  C   1.01010159908213      0.03403847955214      0.18135467385983
  H   1.71032052498170      0.70893083762111      0.65461992688100
  N   -0.83468206318576      1.55151113759300      0.68397065037715
  O   -0.03320772517369      2.30673668659731      1.21467565915597
  O   -2.04536018656528      1.70775380700297      0.56808410367195
  N   -1.32951163559599     -0.52945164403780     -0.49802009940321
  O   -1.56562092204257     -0.29930215878405     -1.67632697897564
  O   -1.87544789273895     -1.32704627836124      0.25244007849610
  N   1.59467600868346     -1.18104754947665     -0.36330467438427
  O   2.81093483104439     -1.28714357040367     -0.20477461988710
  O   0.85219885006574     -1.98421807309846     -0.92332404961347
