12
Coordinates from ORCA-job run
  C   -0.41947332785254     -0.05489043842890      0.10040801704049
  C   0.75928107874816     -0.67652319882441      0.14179452399434
  H   0.86954647043652     -1.67508283917458      0.54239935525869
  N   -0.68978418129152      1.28454357513605     -0.41256043609332
  O   -0.62114273565124      2.18824374281219      0.40962473976421
  O   -1.00058790751655      1.34445964655765     -1.59448308584965
  N   -1.63657873356936     -0.72470447847277      0.60666192872069
  O   -2.67250124160692     -0.07380377941133      0.52433378186520
  O   -1.49934690055100     -1.85346495656663      1.05548155728338
  N   1.98747065746625     -0.06473775235029     -0.33996730090307
  O   2.99540821508316     -0.76123716897915     -0.21901040466658
  O   1.92670860630505      1.06619764770217     -0.81668267641438
