12
Coordinates from ORCA-job run
  C   -0.43387003248708     -0.02573529341095     -0.00387344565565
  C   0.66014150787896     -0.77211065329621      0.15044513004176
  H   0.60909289909456     -1.83674355541395      0.33395085230765
  N   -1.77600551902027     -0.64138198413808      0.07323870941050
  O   -1.82033079835038     -1.84479254218431      0.28331680898112
  O   -2.72015495193929      0.12528285100131     -0.08322217564646
  N   -0.49045039016406      1.41079057739925     -0.25537111370376
  O   -0.50637011703768      1.74057798386214     -1.43358593159751
  O   -0.56331661044406      2.11795639821819      0.74055140687851
  N   2.00373227749079     -0.22000554443356      0.08084016480237
  O   2.12799185205857      0.98661572097436     -0.11553845870335
  O   2.90953988291993     -1.04045395857821      0.22924805288482
