12
Coordinates from ORCA-job run
  C   -0.42026645763381     -0.04319637780407      0.10289759587570
  C   0.73479165819802     -0.70932323536412      0.10653643486326
  H   0.80998273226722     -1.72786368861737      0.46244642008497
  N   -1.65667572393188     -0.68715955231270      0.59529742794088
  O   -1.55851607219778     -1.83883333728043      0.99342515564754
  O   -2.66748005054801      0.00591177542706      0.55448647398400
  N   -0.64462560048997      1.32608831483894     -0.35050396102914
  O   -0.53763661639992      2.19075808726403      0.50862520815149
  O   -0.96033822444277      1.44738593290471     -1.52645886200087
  N   1.98013358886857     -0.12534265475768     -0.36517763768899
  O   2.95955273066088     -0.86822582485301     -0.29674839684531
  O   1.96007803564944      1.02980056055466     -0.78382585898350
