12
Coordinates from ORCA-job run
  C   -0.32807395592571      0.27338543466978      0.08081101439521
  C   0.95296904368443      0.05468291288885      0.37887340074881
  H   1.50699909613292      0.70180461012876      1.04524093740877
  N   -1.17501046436145     -0.52526593385632     -0.79992442745707
  O   -1.80498493706057     -1.42200201860544     -0.25575909465016
  O   -1.19406740027591     -0.17619078206691     -1.97252689012753
  N   -1.04512389154998      1.42760388027819      0.66348209776236
  O   -0.40770796782278      2.15176898421982      1.41426512886880
  O   -2.21986638962444      1.54407586074447      0.33164845273862
  N   1.70587455411932     -1.06444554317729     -0.16436949277540
  O   1.13228374436415     -1.83545949660889     -0.93021219315441
  O   2.87770856832002     -1.12995790861502      0.20747106624198
