12
Coordinates from ORCA-job run
  C   -0.31639862608178      0.28202748070124      0.09652360650081
  C   1.01074618293142      0.15385430418434      0.09557519157163
  H   1.66594890181203      0.94922476965886      0.42394404463826
  N   -1.29656547924572     -0.71556377076016     -0.32124356242791
  O   -1.70448249869846     -1.45716111991358      0.56240894515530
  O   -1.63281953551519     -0.66506101424418     -1.49663688736625
  N   -0.94610786486990      1.53876164997315      0.55524685550869
  O   -2.17170156215611      1.55986941798446      0.52193986051819
  O   -0.19503948179436      2.43118775216904      0.92094031369244
  N   1.68264339703935     -1.05845609958803     -0.34470541943319
  O   2.91168982369256     -1.02103726758856     -0.28343782434824
  O   0.99308674288615     -1.99864610257658     -0.73255512400973
