12
Coordinates from ORCA-job run
  C   -0.31589944011425      0.27652856689557      0.11238951426695
  C   1.00784265139258      0.12256786746001      0.15472667064334
  H   1.65943586438814      0.86534388757520      0.59453632115258
  N   -1.29181166409084     -0.65090173716234     -0.45158675156894
  O   -1.57813616783472     -0.46467718682730     -1.62655233932294
  O   -1.74649899610991     -1.47775709642200      0.32734483541442
  N   -0.94615517102836      1.48961644414788      0.67563007540452
  O   -2.16904434151338      1.53619716973049      0.59781487087317
  O   -0.19828835398186      2.32510933747590      1.16247767754658
  N   1.67997270996893     -1.04974237091008     -0.38254521703770
  O   2.90450459194906     -1.04875660243966     -0.25478703255161
  O   0.99507831697461     -1.92452827952366     -0.90744862482037
