12
Coordinates from ORCA-job run
  C   -0.32117335617602      0.28664688573080      0.05993846136354
  C   0.99678417929332      0.14259922533427      0.20125551967313
  H   1.62355546690824      0.93312964315028      0.59106196219045
  N   -0.97958355205972      1.55534741150331      0.43875750046563
  O   -0.26014277272725      2.44176356909146      0.87578147967800
  O   -2.19427914112208      1.59121352842409      0.27492553371700
  N   -1.26446471350123     -0.70258591944898     -0.45172282831865
  O   -1.47285339033630     -0.65848797478793     -1.65669962990439
  O   -1.77429204283575     -1.43078332609649      0.38906536724615
  N   1.69576591177560     -1.08207903602655     -0.15438121931309
  O   1.03915700004365     -2.01724302781925     -0.60632327378851
  O   2.91152641073755     -1.05952097905499      0.03834112699074
