12
Coordinates from ORCA-job run
  C   -0.33368120917625      0.26605656329278      0.08202984890958
  C   0.95871671437625      0.08809023103251      0.35719321378490
  H   1.50623855955751      0.75635034053848      1.00787104620185
  N   -1.17401767660754     -0.56689129518498     -0.77260889086115
  O   -1.24139819322706     -0.21940934482523     -1.94385785220485
  O   -1.75229049277170     -1.48724567322126     -0.21066795266882
  N   -1.07287038760998      1.40536715532473      0.66657485307122
  O   -0.43999503712374      2.16188766621974      1.38873309041458
  O   -2.25948523815709      1.47739700425821      0.36588875701171
  N   1.73173853814105     -1.01874280318412     -0.18346409383732
  O   1.17599875420306     -1.79329491222903     -0.95884215527689
  O   2.90004566839549     -1.07156493202183      0.20115013545519
