12
Coordinates from ORCA-job run
  C   -0.42833066983836     -0.01609089997024      0.07239341924416
  C   0.70055948449940     -0.68680596999804      0.30352995030038
  H   0.71643555849947     -1.61144094322035      0.86436007735140
  N   -1.71902112162853     -0.52577213503816      0.58275821607729
  O   -2.69903458733808      0.16702687929846      0.33125212435196
  O   -1.69041486340131     -1.57906084130018      1.20253610951564
  N   -0.57265112644300      1.23651722068524     -0.66280861179072
  O   -0.48365293901915      2.25655195253956      0.00714277499429
  O   -0.81426320196913      1.12119049944338     -1.85671981918963
  N   1.99752330849750     -0.22765291083665     -0.16766004315875
  O   2.94972223480877     -0.93273280494623      0.16676449972737
  O   2.04212792333242      0.79826995334320     -0.84254869742339
