12
Coordinates from ORCA-job run
  C   -0.31375698894238      0.29963840188645     -0.02904493290466
  C   0.90952846076013      0.10591272760378      0.46465757603607
  H   1.43912147902580      0.87518609715823      1.01005924764391
  N   -0.99891570969282      1.59646194955090      0.15781445508892
  O   -2.12056572853687      1.67828260597207     -0.33094973747119
  O   -0.39063116182059      2.45830733056876      0.77554770841578
  N   -1.12191776420071     -0.65765695409046     -0.77801008378249
  O   -1.87332914099978     -1.35212667191632     -0.10689499544390
  O   -0.99049508607397     -0.62276477775160     -1.99400948874959
  N   1.62964058903483     -1.14815133828848      0.30995238576674
  O   2.75201185451590     -1.16669404283405      0.81563396297275
  O   1.07930919693047     -2.06539532785929     -0.29475609757235
