12
Coordinates from ORCA-job run
  C   -0.43228507580894     -0.04379147631370      0.00244808235981
  C   0.69301340127270     -0.72893668009580      0.20716360503420
  H   0.68786202164596     -1.77674221731996      0.47517865978390
  N   -0.55145638772214      1.36415920696886     -0.36330848430742
  O   -0.58046645808092      1.59780874705157     -1.56408422073330
  O   -0.65574776273237      2.14466084924158      0.57320811673108
  N   -1.74684734549653     -0.70647168174310      0.14290594248810
  O   -2.72335710259201      0.00475501387775     -0.06764201948559
  O   -1.73914691321013     -1.88896412606185      0.45253820769277
  N   2.01188295228708     -0.13003424126848      0.07766596492391
  O   2.95244720744637     -0.90278134883371      0.26167829113714
  O   2.08410146299093      1.06533795449685     -0.19775214562459
