12
Coordinates from ORCA-job run
  C   -0.31173774716014      0.29282809187743      0.08174680921098
  C   0.94113230319453     -0.02195012167891      0.41170032725257
  H   1.50205182855632      0.54001633879897      1.14609050495672
  N   -1.16424964276329     -0.39438503542080     -0.88342416251853
  O   -1.18102467468415      0.09475518777889     -2.00502692344634
  O   -1.79764355576356     -1.34868779955752     -0.45313549563520
  N   -0.98864900790686      1.43989798781935      0.72252744625350
  O   -2.16881879504676      1.59153809238179      0.42593917250162
  O   -0.31848107347794      2.12087278604687      1.48511968110447
  N   1.64355761220838     -1.15441489051524     -0.17070600123506
  O   2.72672730876064     -1.41650573154959      0.35222768778774
  O   1.11813544408282     -1.74396490598125     -1.11205904623247
