12
Coordinates from ORCA-job run
  C   -0.42891715589562     -0.03750605210221      0.06432805996915
  C   0.73191049520753     -0.60908979740998      0.38566462635001
  H   0.79089084864406     -1.45836592480002      1.05277301720795
  N   -1.69709560071203     -0.55379431581739      0.62131742650747
  O   -2.70022322704344      0.09464522034301      0.34377214867824
  O   -1.62891662167262     -1.56529494230041      1.30435329475077
  N   -0.62834449249981      1.11152977860661     -0.81331674775697
  O   -0.53703257327529      2.21081806877409     -0.28379668811759
  O   -0.91056629219924      0.83927882256887     -1.97250579455634
  N   2.00862740619181     -0.12508987800583     -0.11500258940844
  O   2.00174511083764      0.74096220286183     -0.98662547532225
  O   2.99792210241701     -0.64709318271857      0.39903872169801
