18

C	-0.619398	0.029501	-1.378134
C	0.0	0.0	0.0
Cl	0.232275	-1.191758	-2.468774
H	1.091693	0.0	0.0
N	-2.023163	-0.13743	-1.384188
H	-2.243576	-1.075268	-1.077581
H	-2.392311	0.021105	-2.31316
N	-0.321591	1.357743	-2.074585
O	0.757338	1.878743	-1.862899
O	-1.182661	1.77689	-2.851534
C	-0.412223	-1.256842	0.755957
H	-0.194609	-2.162949	0.184008
H	-1.47483	-1.255616	1.040669
H	0.189574	-1.298905	1.666745
N	-0.422303	1.234928	0.668562
H	0.39734	1.596739	1.141311
H	-1.153612	1.061035	1.346935
F	2.62828	0.0	0.0
