18

C	-0.347928	0.00561	-1.462958
C	0.0	0.0	0.0
Cl	-2.24209	-0.490052	-1.698363
H	1.09376	0.0	0.0
N	-0.084107	1.191351	-2.117129
H	-0.462395	1.982693	-1.624062
H	-0.325702	1.163469	-3.096238
N	0.311171	-1.09777	-2.289923
O	0.765731	-2.071123	-1.710032
O	0.323263	-0.924127	-3.50809
C	-0.529815	-1.168477	0.808102
H	-0.386465	-2.120409	0.301916
H	-1.592293	-1.044225	1.040867
H	0.036053	-1.182606	1.741535
N	-0.386832	1.246224	0.653413
H	-1.319455	1.562049	0.409625
H	0.309766	1.955753	0.469963
F	2.588441	0.0	0.0
