18

C	-0.071694	-0.10578	-1.537524
C	0.0	0.0	0.0
Cl	-0.300554	1.612174	-2.321773
H	1.10353	0.0	0.0
N	1.064325	-0.752784	-1.94653
H	1.906404	-0.486148	-1.364828
H	1.192657	-0.823555	-2.943213
N	-1.329365	-0.797172	-2.088101
O	-2.404413	-0.475648	-1.594083
O	-1.180683	-1.636005	-2.976576
C	-0.514292	-1.273414	0.646803
H	-0.139612	-1.32546	1.674669
H	-0.134352	-2.148574	0.115554
H	-1.607601	-1.292108	0.664769
N	-0.647929	1.167551	0.587294
H	-0.097857	1.981369	0.336066
H	-0.542152	1.065749	1.591991
F	2.775886	0.0	0.0
