18

C	-0.01929	0.011512	-1.55388
C	0.0	0.0	0.0
Cl	-0.144369	1.818887	-2.198631
H	1.098498	0.0	0.0
N	1.090624	-0.650611	-1.9951
H	1.932339	-0.43566	-1.382987
H	1.225947	-0.660767	-2.994309
N	-1.29816	-0.538562	-2.187799
O	-2.358113	-0.234388	-1.644362
O	-1.195469	-1.251222	-3.183754
C	-0.518438	-1.332416	0.517279
H	-0.167309	-1.451389	1.543635
H	-0.130885	-2.16009	-0.080793
H	-1.612604	-1.366753	0.518526
N	-0.583787	1.101983	0.722807
H	-1.499055	1.311695	0.341533
H	-0.00119	1.91857	0.591443
F	2.756734	0.0	0.0
