18

C	-0.629093	0.027931	-1.373852
C	0.0	0.0	0.0
Cl	0.225852	-1.183249	-2.473507
H	1.091675	0.0	0.0
N	-2.030971	-0.154729	-1.367423
H	-2.238725	-1.091843	-1.049868
H	-2.410251	-0.008947	-2.294249
N	-0.351619	1.360464	-2.070449
O	0.725448	1.889355	-1.870755
O	-1.224855	1.773224	-2.835884
C	-0.400124	-1.261593	0.75643
H	0.217144	-1.307859	1.657144
H	-0.190278	-2.164777	0.176033
H	-1.458341	-1.262437	1.058027
N	-0.423915	1.23072	0.67602
H	-1.151187	1.052812	1.358311
H	0.397433	1.593831	1.145815
F	2.628153	0.0	0.0
