18

C	-0.553805	-0.000633	-1.412773
C	0.0	0.0	0.0
Cl	0.17107	-1.293626	-2.413537
H	1.093905	0.0	0.0
N	-1.96389	-0.085635	-1.458479
H	-2.287191	0.614523	-0.794713
H	-2.28733	0.15675	-2.387593
N	-0.08662	1.309724	-2.144313
O	0.924988	1.874612	-1.762133
O	-0.794885	1.678134	-3.084827
C	-0.474962	-1.223444	0.76258
H	-0.185766	-2.137892	0.243662
H	0.026441	-1.22951	1.735521
H	-1.561141	-1.23362	0.908855
N	-0.540199	1.236844	0.621333
H	0.227202	1.902084	0.613598
H	-0.73589	1.041078	1.596743
F	2.649419	0.0	0.0
