16

C	0.0	0.0	0.0
C	-0.256869	0.019055	-1.55882
Br	1.935271	0.0	0.0
H	0.437143	0.784875	-1.915203
N	-0.487549	1.247682	0.631312
O	-0.462046	2.261562	-0.093515
O	-0.55541	1.268238	1.867597
C	-0.488431	-1.161899	0.709359
N	-0.603288	-2.190812	1.279323
C	-1.623368	0.360354	-2.165314
H	-2.353339	-0.432212	-2.022023
H	-1.994384	1.286086	-1.730466
H	-1.463836	0.508154	-3.244123
C	0.182941	-1.265513	-2.112747
N	0.451356	-2.294966	-2.612048
H	-1.909505	0.0	0.0
