16

C	0.0	0.0	0.0
C	-0.461346	-0.012338	-1.530197
Br	1.934947	0.0	0.0
H	0.022329	0.856007	-1.988437
N	-0.552383	1.239627	0.623395
O	-0.826999	1.249689	1.867355
O	-0.443409	2.261653	-0.094011
C	-0.474424	-1.151799	0.741626
N	-0.859191	-2.110123	1.315383
C	-2.013261	0.118966	-1.697617
H	-2.3599	1.057329	-1.251749
H	-2.301402	0.128297	-2.765196
H	-2.547769	-0.724689	-1.239989
C	-0.042379	-1.243345	-2.18929
N	0.219548	-2.242061	-2.752172
H	-1.551053	0.0	0.0
