16

C	0.0	0.0	0.0
C	-0.257451	0.053675	-1.557594
Br	1.934929	0.0	0.0
H	0.436304	0.82732	-1.897146
N	-0.487995	1.23318	0.658942
O	-0.557131	1.226258	1.895666
O	-0.463756	2.262946	-0.043027
C	-0.488164	-1.177796	0.684195
N	-0.601807	-2.218786	1.232848
C	-1.624349	0.407767	-2.15645
H	-1.996325	1.322761	-1.700326
H	-1.46285	0.580983	-3.230652
H	-2.353057	-0.389662	-2.031241
C	0.181799	-1.218687	-2.139672
N	0.444495	-2.237631	-2.663233
H	-1.913242	0.0	0.0
