16

C	0.0	0.0	0.0
C	-0.254432	-0.065219	-1.557388
Br	1.934948	0.0	0.0
H	0.428051	0.693112	-1.951448
N	-0.507079	1.276456	0.556152
O	-0.581178	1.368648	1.790048
O	-0.482645	2.248167	-0.225451
C	-0.499635	-1.122971	0.766146
N	-0.627272	-2.119864	1.388729
C	-1.624443	0.22331	-2.182415
H	-1.462006	0.321197	-3.266551
H	-2.012809	1.163679	-1.796698
H	-2.342311	-0.574093	-2.004908
C	0.205009	-1.369058	-2.047473
N	0.486291	-2.41533	-2.503313
H	-1.908693	0.0	0.0
