16

C	0.0	0.0	0.0
C	-0.257101	0.052426	-1.557696
Br	1.934938	0.0	0.0
H	0.435764	0.826716	-1.897632
N	-0.490582	1.232543	0.657625
O	-0.46464	2.262043	-0.045157
O	-0.558844	1.226212	1.894243
C	-0.487826	-1.177465	0.684593
N	-0.602374	-2.217824	1.233141
C	-1.624222	0.405961	-2.156273
H	-2.352835	-0.391264	-2.034052
H	-1.996467	1.320949	-1.700254
H	-1.463204	0.579695	-3.2309
C	0.182681	-1.219576	-2.139324
N	0.448234	-2.237666	-2.662719
H	-1.910721	0.0	0.0
