16

C	0.0	0.0	0.0
C	-0.358225	0.099505	-1.517616
Br	1.934933	0.0	0.0
H	-1.377271	0.492707	-1.541666
N	-0.422069	1.252085	0.732968
O	-0.480579	2.282037	0.061182
O	-0.451856	1.190904	1.959327
C	-0.558341	-1.162003	0.658779
N	-0.612928	-2.201575	1.225088
C	-0.340165	-1.287042	-2.161711
H	-1.0988	-1.910837	-1.686119
H	0.636402	-1.76139	-2.049736
H	-0.56627	-1.198687	-3.228255
C	0.490089	1.018486	-2.281055
N	1.001561	1.739542	-3.056847
H	-2.103347	0.0	0.0
