13

C	-0.565403	0.0585	-1.413944
C	0.0	0.0	0.0
F	-0.296066	-1.186416	-1.968125
H	1.087767	0.0	0.0
H	-0.033509	0.805113	-2.00397
H	-0.397074	-0.869324	0.523108
N	-1.973988	0.306919	-1.496817
H	-2.16191	1.291965	-1.607353
H	-2.462036	-0.037229	-0.680074
N	-0.480524	1.194737	0.725331
O	-1.176865	1.033027	1.730573
O	-0.195998	2.292117	0.245093
Cl	3.36121	0.0	0.0
