13

C	-0.413172	0.111121	-1.444021
C	0.0	0.0	0.0
F	-1.786475	0.379255	-1.535391
H	1.091343	0.0	0.0
H	-0.28163	-0.849194	-1.949615
H	-0.384219	0.836945	0.577958
N	0.307692	1.206623	-2.018454
H	0.304877	1.137937	-3.027834
H	1.27215	1.183805	-1.699049
N	-0.499205	-1.237421	0.638693
O	-0.456056	-2.28156	-0.008644
O	-0.907557	-1.15041	1.795626
Cl	3.326425	0.0	0.0
