18

C	-0.423811	-0.009773	-1.476056
C	0.0	0.0	0.0
F	-0.12981	1.251732	-2.003694
H	1.095923	0.0	0.0
C	0.414692	-1.00079	-2.261892
H	1.472733	-0.810741	-2.056319
H	0.175085	-2.022738	-1.956927
H	0.204301	-0.887771	-3.330572
N	-1.860895	-0.15413	-1.612064
H	-2.080269	-0.316947	-2.589793
H	-2.161334	-0.968587	-1.088848
C	-0.459351	-1.230344	0.625253
N	-0.865038	-2.220864	1.114598
C	-0.492867	1.228862	0.759605
H	-0.063064	2.115123	0.292538
H	-0.13708	1.183739	1.791695
H	-1.58227	1.30904	0.748827
H	2.832446	0.0	0.0
