18

C	-0.259511	-0.034135	-1.502135
C	0.0	0.0	0.0
F	-1.63343	-0.218595	-1.776688
H	1.097475	0.0	0.0
C	0.132178	1.276275	-2.163791
H	1.174782	1.491633	-1.912591
H	0.032375	1.168764	-3.248772
H	-0.508333	2.100353	-1.842312
N	0.448605	-1.176071	-2.011366
H	0.547182	-1.097179	-3.01779
H	1.386215	-1.161183	-1.599302
C	-0.494942	-1.213882	0.632403
N	-0.886816	-2.158305	1.212515
C	-0.518454	1.23822	0.723388
H	0.062641	2.112796	0.424909
H	-0.391871	1.115035	1.801044
H	-1.577789	1.414828	0.515328
H	2.786511	0.0	0.0
