18

C	-0.315104	0.024357	-1.501799
C	0.0	0.0	0.0
F	-0.081478	-1.299592	-1.980175
H	1.097674	0.0	0.0
C	-1.754541	0.317245	-1.874193
H	-2.417048	-0.412375	-1.402216
H	-1.87147	0.238914	-2.959566
H	-2.034076	1.324242	-1.562878
N	0.591513	0.943173	-2.091553
H	0.581019	0.841789	-3.099591
H	1.533407	0.751415	-1.730447
C	-0.547485	-1.180238	0.642924
N	-1.028699	-2.098652	1.197567
C	-0.433088	1.272204	0.728391
H	-0.059305	2.13459	0.174481
H	0.020066	1.285353	1.722796
H	-1.519184	1.349746	0.836956
H	2.819135	0.0	0.0
