17
Coordinates from ORCA-job run
  C   0.58089034900268      0.02358960509234     -0.40682880548150
  C   -0.83097086622127     -0.59101392126818     -0.48988857725017
  H   0.96508078665048     -0.05635556592597     -1.43190209535102
  H   -0.76781316029637     -1.63515606174798     -0.80495754509602
  C   1.47798371751306     -0.80079076602914      0.51343713278115
  H   1.17413428354964     -0.70459971916552      1.55823474573103
  H   2.50747227337987     -0.44513218609579      0.43180645210305
  H   1.46226730256993     -1.86254079643085      0.25594991135752
  C   0.56188711086510      1.49744913903212     -0.01226186497043
  H   -0.07522136331839      2.08912169077416     -0.67274151756771
  H   0.20651634138566      1.63082310858618      1.01116979734527
  H   1.57604261916916      1.89911392574255     -0.07205379009372
  C   -1.70506377050537      0.14980452837897     -1.39345398257171
  N   -2.36622788914584      0.73925576478910     -2.16415562700439
  N   -1.45407897370726     -0.63433945487564      0.88385127414459
  O   -1.29673777651140     -1.67829674830746      1.51067033984948
  O   -2.01416098437965      0.38106745745112      1.28412415207459
