17
Coordinates from ORCA-job run
  C   0.51184140063103     -0.05590143287906      0.41254945258196
  C   -0.76072894299026     -0.76836578331085     -0.07559258526878
  H   0.63574797184944     -0.36977782611374      1.45496235559527
  H   -0.66835602225941     -1.84739181566969      0.07602816738518
  C   0.35956130017514      1.46022861311888      0.35361720466193
  H   0.16650779328199      1.79575552962402     -0.66899559698128
  H   1.28163336673764      1.93542169546421      0.69586522144364
  H   -0.45255772251704      1.81921410076405      0.98921928993593
  C   1.70694019473734     -0.54052017289586     -0.40380520138496
  H   2.62916034430466     -0.11936770726311      0.00258724149409
  H   1.79766290577593     -1.62995631902806     -0.38021352013077
  H   1.62486388281865     -0.22461845489340     -1.44693071714731
  C   -1.05840408839485     -0.48379286073884     -1.47499074612032
  N   -1.22775575574521     -0.27242125534050     -2.61759893582134
  N   -1.91660491458341     -0.34342151470369      0.79976747936500
  O   -1.88947657794347     -0.79482104201327      1.94012455997687
  O   -2.74003513587817      0.44073624587890      0.34240633041488
