18

C	0.0	0.0	0.0
C	-0.58001	0.022431	-1.405796
Br	1.97008	0.0	0.0
H	-1.664244	0.071775	-1.141208
H	-0.261094	0.947608	0.474999
C	-0.532538	-1.130137	0.854798
H	-0.20016	-2.105499	0.490293
H	-1.628258	-1.005772	0.762005
H	-0.206998	-1.021134	1.893443
C	-0.30362	-1.24347	-2.205965
H	0.770801	-1.41757	-2.341357
H	-0.759312	-1.160805	-3.198676
H	-0.741443	-2.119269	-1.722069
C	-0.17306	1.267528	-2.18251
H	-0.75223	1.339312	-3.109549
H	0.891033	1.260375	-2.44585
H	-0.373235	2.171389	-1.597873
F	-2.995241	0.0	0.0
