15

C	0.0	0.0	0.0
C	-0.327752	0.115051	-1.548648
Cl	1.798423	0.0	0.0
H	-0.085974	1.150234	-1.825414
H	0.423541	-0.518356	-2.033504
C	-0.420933	1.196711	0.727137
N	-0.672755	2.181523	1.316176
C	-0.592828	-1.247929	0.610635
H	-0.271516	-1.370969	1.647856
H	-1.684464	-1.086291	0.546933
H	-0.281366	-2.122149	0.030994
N	-1.632025	-0.250178	-2.021091
H	-1.682101	-1.262754	-2.042342
H	-2.358508	0.01839	-1.299145
F	-3.137231	0.0	0.0
