15

C	0.0	0.0	0.0
C	-0.518905	0.024378	-1.436217
Cl	1.804726	0.0	0.0
H	-0.227688	0.980423	-1.895278
H	-1.613026	-0.003003	-1.257346
C	-0.40567	1.232657	0.684114
N	-0.598514	2.232575	1.269381
C	-0.49661	-1.221825	0.754286
H	-1.592715	-1.112579	0.710117
H	-0.118737	-1.218451	1.779785
H	-0.150295	-2.112602	0.22941
N	-0.050835	-1.145766	-2.173258
H	-0.72243	-1.367975	-2.895765
H	0.839338	-0.952702	-2.615654
F	-2.861749	0.0	0.0
