15

C	0.0	0.0	0.0
C	-0.519538	0.001461	-1.430031
Cl	1.804383	0.0	0.0
H	-0.213949	-0.954955	-1.883969
H	-1.61439	0.014672	-1.254778
C	-0.396749	1.240999	0.677969
N	-0.600687	2.232574	1.272408
C	-0.517507	-1.210435	0.756814
H	-0.162614	-1.203241	1.79005
H	-1.614919	-1.093742	0.687708
H	-0.16486	-2.121318	0.263307
N	-0.069091	1.177309	-2.164527
H	0.829908	1.007981	-2.597158
H	-0.738878	1.395309	-2.889233
F	-2.880479	0.0	0.0
