15

C	0.0	0.0	0.0
C	-0.514865	-0.239817	-1.426937
Cl	1.801275	0.0	0.0
H	-1.594864	-0.379795	-1.255618
H	-0.035542	-1.154845	-1.794777
C	-0.402111	1.330562	0.470565
N	-0.623788	2.406043	0.887329
C	-0.503234	-1.077832	0.94378
H	-0.171738	-2.053914	0.575011
H	-1.600686	-0.966244	0.886222
H	-0.114228	-0.927726	1.954377
N	-0.303427	0.844306	-2.372052
H	-0.940243	1.593409	-2.126263
H	0.641312	1.20454	-2.29043
F	-2.841647	0.0	0.0
