16

C	0.0	0.0	0.0
C	-0.493837	0.141913	-1.42257
F	1.358259	0.0	0.0
H	-1.551686	0.40016	-1.327609
H	0.071029	0.95097	-1.889615
N	-0.248377	1.383506	0.74388
O	-0.22389	2.421438	0.088712
O	-0.355374	1.336565	1.968232
N	-0.591668	-1.04267	0.685026
H	-0.381021	-0.951858	1.672639
H	-1.633632	-0.821152	0.518461
C	-0.326458	-1.16828	-2.184173
H	-1.006407	-1.916401	-1.777044
H	0.694887	-1.553541	-2.109692
H	-0.562841	-1.024567	-3.24346
F	-2.837697	0.0	0.0
