16

C	0.0	0.0	0.0
C	-0.478782	0.21093	-1.417822
F	1.403548	0.0	0.0
H	-1.520887	0.521769	-1.31958
H	0.129161	1.000663	-1.862243
N	-0.22445	1.338139	0.809482
O	-0.194744	2.405473	0.204509
O	-0.331577	1.230651	2.028975
N	-0.586169	-1.077803	0.622049
H	-1.633721	-0.833836	0.472654
H	-0.354711	-1.072563	1.609001
C	-0.394365	-1.088574	-2.211917
H	-1.145819	-1.783324	-1.839373
H	0.588333	-1.558806	-2.118397
H	-0.590307	-0.900436	-3.272846
F	-2.818139	0.0	0.0
