16

C	0.0	0.0	0.0
C	-0.481482	0.148295	-1.424308
F	1.384156	0.0	0.0
H	0.094164	0.951433	-1.887107
H	-1.53641	0.418394	-1.335478
N	-0.231505	1.38003	0.748189
O	-0.310256	1.32872	1.975752
O	-0.23003	2.42015	0.094144
N	-0.590492	-1.041814	0.681303
H	-0.37692	-0.951924	1.668108
H	-1.635245	-0.813514	0.512373
C	-0.325922	-1.163172	-2.185479
H	-1.018789	-1.902249	-1.783328
H	0.690105	-1.560874	-2.10242
H	-0.552282	-1.015779	-3.246559
F	-2.828518	0.0	0.0
