16

C	0.0	0.0	0.0
C	-0.488266	0.176183	-1.424391
F	1.380132	0.0	0.0
H	-1.534938	0.473281	-1.327422
H	-0.490167	-0.838883	-1.834119
N	-0.25136	1.322873	0.82335
O	-0.008302	1.240884	2.028771
O	-0.629939	2.345908	0.262744
N	-0.591318	-1.078322	0.632279
H	-1.637215	-0.847825	0.462665
H	-0.382694	-1.026187	1.624529
C	0.365125	1.084659	-2.300862
H	-0.077992	1.149544	-3.299913
H	1.381893	0.700205	-2.410578
H	0.419483	2.093702	-1.89442
F	-2.828762	0.0	0.0
