16

C	0.0	0.0	0.0
C	-0.472253	0.015439	-1.459375
Br	2.031873	0.0	0.0
H	-1.570027	-0.011804	-1.287397
N	-0.55404	1.056048	0.764702
H	-0.471018	1.877716	0.165216
H	-1.580362	0.800954	0.753392
C	-0.317029	-1.299472	0.617181
N	-0.48819	-2.369443	1.072331
N	0.037603	-1.105822	-2.248648
H	-0.619663	-1.259746	-3.00742
H	0.021691	-1.951043	-1.685761
N	-0.132051	1.293638	-2.05233
H	0.776625	1.19714	-2.493555
H	-0.817761	1.526426	-2.760931
H	-3.006903	0.0	0.0
