15

C	-0.578551	-0.011655	-1.443724
C	0.01949	0.030256	-0.071185
F	-1.949291	-0.132876	-1.428717
H	1.112694	0.098892	-0.078259
H	-0.338458	0.956948	0.391264
C	-0.250484	1.164508	-2.264542
N	-0.05162	2.13749	-2.891308
N	-0.054062	-1.238179	-2.19988
O	1.070544	-1.131298	-2.669386
O	-0.778774	-2.223893	-2.232156
C	-0.331349	-1.174412	0.78748
H	-1.39491	-1.234566	1.031384
H	0.27111	-1.081939	1.69429
H	-0.023991	-2.106806	0.309387
H	2.691037	-0.08059	0.822225
