16

C	0.0	0.0	0.0
C	-0.463248	0.30985	-1.456733
F	1.39513	0.0	0.0
H	0.334783	-0.141679	-2.061766
C	-0.393147	1.040022	0.971479
N	-0.643925	1.880737	1.750809
N	-0.500113	-1.248669	0.437303
H	-0.166898	-1.482798	1.362226
H	-0.266599	-1.983477	-0.217429
N	-0.386711	1.751747	-1.642093
H	-0.626351	1.916914	-2.614051
H	-1.145145	2.168835	-1.105755
N	-1.719404	-0.239582	-1.887785
H	-1.683595	-1.251438	-1.922541
H	-2.496213	-0.012587	-1.251737
Cl	-4.37299	0.0	0.0
