16

C	0.0	0.0	0.0
C	-0.428527	0.136366	-1.461769
F	1.427176	0.0	0.0
H	-1.518018	0.220867	-1.409901
C	-0.342708	1.220215	0.763757
N	-0.520728	2.206643	1.372721
N	-0.484657	-1.159166	0.653389
H	-0.516656	-1.87968	-0.061008
H	-1.455314	-0.965518	0.907358
N	-0.10233	-1.124297	-2.131367
H	0.877148	-1.130053	-2.390179
H	-0.663349	-1.219119	-2.96788
N	0.127292	1.35637	-2.016677
H	-0.239443	1.511858	-2.947133
H	1.136405	1.282597	-2.06638
Cl	-3.572374	0.0	0.0
