14
Coordinates from ORCA-job run
  C   0.71225847624414     -0.23069749988113     -0.29229731496607
  C   -0.59821673577955      0.54214223650695     -0.34887854539930
  F   0.57083710352198     -1.41332354648114     -1.00463741064077
  H   -0.80091278214534      0.74740399903878     -1.40351517110295
  H   -0.44823273371709      1.51118761824546      0.13955852567648
  C   1.78395107878722      0.53278189261387     -0.98921170254083
  N   2.63652462775036      1.17236312639730     -1.48315287637767
  N   1.05252954624597     -0.58987597667238      1.05062555020961
  H   1.97513577975588     -1.00552990247721      1.09253753149239
  H   1.02412455805443      0.21711023242951      1.66035479026309
  C   -1.75550194322344     -0.22547275492751      0.28013137258615
  H   -1.87081250001555     -1.19743842073810     -0.20011360429832
  H   -2.68495090903478      0.33304864291800      0.15199257835113
  H   -1.59573356644422     -0.39369964697241      1.34460627674708
