14
Coordinates from ORCA-job run
  C   0.77376109438282     -0.05823729680023     -0.27439006086076
  C   -0.63261711110909      0.51540878996272     -0.39231838341211
  F   0.78764488585653     -1.27766961000486     -0.99143753870209
  H   -0.61390887424140      1.53438091139838      0.00181556254667
  H   -0.86052285026613      0.57413117338363     -1.45949069496588
  C   1.74865891952204      0.81676291685298     -0.95872338216065
  N   2.50703394968900      1.51873668874054     -1.51457203413882
  N   1.17766197473301     -0.23146554873582      1.07057786602812
  H   2.12028575703264     -0.59615181936791      1.12698044560265
  H   0.54712088617089     -0.85568722002329      1.55612517531370
  C   -1.68048644934706     -0.32898456146600      0.32598668452177
  H   -2.68115110428610      0.02671898721627      0.07483979019114
  H   -1.58078572362435     -0.26381500746541      1.41157124028887
  H   -1.61169535451282     -1.37512840369099      0.02303532974742
