14
Coordinates from ORCA-job run
  C   0.73341567560902     -0.23631425051683     -0.22749356028212
  C   -0.59597494047572      0.47441731648001     -0.44058691095057
  F   0.66792137247811     -1.49916123992536     -0.79861789671924
  H   -0.74877330757494      0.54625127737312     -1.52088887938492
  H   -0.50309044064925      1.49924380046967     -0.06465538515211
  C   1.81631149370138      0.47975941564904     -0.95663632222946
  N   2.67575834958739      1.08693118541934     -1.47867543638567
  N   1.01252138510157     -0.42130561444345      1.16415120469902
  H   1.94314238118316     -0.79709287766513      1.30036549366873
  H   0.93023465047932      0.45158117285989      1.66933380505743
  C   -1.76013625362873     -0.25689910669889      0.21849815872152
  H   -2.69937193579285      0.24371477506296     -0.02532203073385
  H   -1.65447663892738     -0.28714173533834      1.30239082304496
  H   -1.81548179109111     -1.28398411872600     -0.14286306335371
