14
Coordinates from ORCA-job run
  C   0.73911779082972     -0.24012986463672     -0.15394973502023
  C   -0.65002803888929     -0.31733596107954      0.45809693386022
  F   0.74019158941196     -0.93653198372386     -1.35514216092484
  H   -0.81243723765539     -1.37466107854680      0.68545495622962
  H   -0.64055745906149      0.23137766224467      1.40606722727147
  C   1.07963573657197      1.16615483804629     -0.50600640137125
  N   1.37176655826337      2.28494543353399     -0.71285748920730
  N   1.70506358777042     -0.86503464632017      0.69546731552648
  H   1.61472456402767     -0.54115981450502      1.64925423857503
  H   2.64849765026145     -0.69070081934586      0.37122660098286
  C   -1.73876910595469      0.22085002767134     -0.46154622426203
  H   -1.73364294385427     -0.30997471527255     -1.41384078381209
  H   -1.60492881943081      1.28643059612083     -0.65994866375680
  H   -2.71963387229062      0.08577032581338     -0.00227581409115
