14
Coordinates from ORCA-job run
  C   0.75864976933464     -0.12800110307897     -0.22740607193306
  C   -0.65074952604844      0.41122369398607     -0.42620176934443
  F   0.86265980071125     -1.36450954575875     -0.84913795591201
  H   -0.80562108192676      0.51054097430702     -1.50400351561961
  H   -0.69456809799572      1.42191925187575     -0.00548662543470
  C   1.74290924890636      0.75145842582566     -0.91648886412113
  N   2.51759283105011      1.48116390789800     -1.41365972456465
  N   1.05174732679373     -0.33266240044391      1.15876143890261
  H   2.02156268393006     -0.59423822641024      1.28873964831901
  H   0.85873638338011      0.50250113885383      1.69658680135453
  C   -1.71322347387101     -0.49314373670437      0.18832258972776
  H   -1.60948300966242     -0.55641160633424      1.27094556597725
  H   -2.70852173827904     -0.10886663139155     -0.04386800964314
  H   -1.63269111632285     -1.50197414262431     -0.21710350770847
