14
Coordinates from ORCA-job run
  C   0.84139378933436     -0.19964277056033     -0.23174952730614
  C   -0.61206512063966     -0.56894047910168     -0.48639944385649
  F   1.62703618009022     -1.06623597358055     -1.02180976123581
  H   -0.73401943060792     -1.60342430927106     -0.14562169973468
  H   -0.75828614532511     -0.57334453559813     -1.56939267751773
  C   1.14182679285253      1.16596813785175     -0.71306853302774
  N   1.37379407984913      2.24998836433413     -1.09798174325740
  N   1.17240237021680     -0.28593689781770      1.14146880513135
  H   2.14503801533058     -0.05922153773162      1.30612256062283
  H   0.97297388244244     -1.21354049277967      1.49539826847355
  C   -1.60225762929203      0.36119040675848      0.20237064694489
  H   -1.45174670819788      0.36288621477425      1.28185410273848
  H   -2.62569191632483      0.04337237577700     -0.00611766966460
  H   -1.49139815972866      1.38688149694515     -0.15607332831052
