14
Coordinates from ORCA-job run
  C   0.87353552768427     -0.27081676290779     -0.29398553941385
  C   -0.58563437537573     -0.61675982882207     -0.53912191143076
  F   1.65372127128272     -1.06986879057523     -1.11564093851411
  H   -0.75454353857101     -0.52496931389833     -1.61530118679349
  H   -0.68775054744168     -1.67277734430318     -0.27497104920709
  C   1.15186872705271      1.13289824281889     -0.70925098241447
  N   1.34197676176899      2.26128592382153     -0.97505708866497
  N   1.26276184205352     -0.55122376440386      1.05403083007430
  H   0.63441756800602     -0.11440684411503      1.71465680934383
  H   2.20518190930524     -0.22581000867624      1.23296100285498
  C   -1.57398759644579      0.24957752882537      0.23427091989738
  H   -1.41708288868313      1.31239692699460      0.03608697675700
  H   -2.59557461452474      0.00554622847869     -0.06188096407462
  H   -1.50889004611136      0.08392780676256      1.31220312158585
