17

C	0.0	0.0	0.0
C	-0.454929	-0.140903	-1.469497
Br	1.955746	0.0	0.0
H	0.419095	-0.048185	-2.120847
H	-0.261387	1.001044	0.334352
C	-0.537631	-1.025374	0.972516
H	-0.179833	-0.797891	1.97886
H	-0.229434	-2.040145	0.716694
H	-1.62996	-0.949958	0.959804
N	-1.246	1.088235	-1.91366
O	-1.871453	0.974253	-2.960734
O	-1.093977	2.136202	-1.29657
C	-1.197239	-1.415301	-1.818539
H	-0.556877	-2.270753	-1.582583
H	-2.136408	-1.467088	-1.266987
H	-1.414182	-1.430547	-2.885911
Br	-3.980188	0.0	0.0
