17

C	0.0	0.0	0.0
C	-0.585211	0.022202	-1.40991
Br	1.955643	0.0	0.0
H	-1.653272	-0.202093	-1.270545
H	-0.285477	0.949951	0.456247
C	-0.483075	-1.145064	0.872057
H	-0.100298	-1.026397	1.887654
H	-0.151905	-2.105243	0.47808
H	-1.57562	-1.114602	0.885265
N	-0.025871	-1.101602	-2.227822
O	-0.385887	-2.242057	-1.934086
O	0.765159	-0.832038	-3.133577
C	-0.41338	1.34468	-2.122814
H	0.635719	1.63332	-2.194088
H	-0.830501	1.293328	-3.129691
H	-0.973011	2.098453	-1.5641
Br	-3.867347	0.0	0.0
