14

C	-0.422766	0.021474	-1.436874
C	0.0	0.0	0.0
F	-1.828155	0.106438	-1.548998
H	1.091597	0.0	0.0
H	-0.136701	-0.920407	-1.907009
H	-0.373239	0.858144	0.558021
C	0.202961	1.200146	-2.14369
H	1.287865	1.147087	-2.014672
H	-0.053506	1.192542	-3.205577
H	-0.158568	2.133681	-1.704509
N	-0.461267	-1.198563	0.70557
O	-0.419243	-2.278216	0.108818
O	-0.795667	-1.078059	1.889055
H	2.742962	0.0	0.0
