14

C	-0.413038	0.089163	-1.443495
C	0.0	0.0	0.0
F	-1.819716	0.046514	-1.571353
H	1.089196	0.0	0.0
H	-0.040552	-0.838662	-1.894542
H	-0.373621	-0.915031	0.456161
C	0.120471	1.264647	-2.226465
H	1.198759	1.325645	-2.05614
H	-0.343754	2.190265	-1.892931
H	-0.081085	1.116703	-3.291222
N	-0.465527	1.091611	0.856526
O	-0.299177	2.256176	0.477446
O	-0.930228	0.792851	1.964788
H	2.743791	0.0	0.0
