14

C	-0.523149	-0.067251	-1.418876
C	0.0	0.0	0.0
F	-0.274401	1.156716	-2.048112
H	1.088708	0.0	0.0
H	-1.612474	-0.187068	-1.4299
H	-0.371208	-0.868318	0.550865
C	0.192279	-1.160639	-2.179456
H	-0.09357	-1.131452	-3.23363
H	1.270168	-1.0165	-2.074763
H	-0.068499	-2.141321	-1.772243
N	-0.597262	1.180683	0.670495
O	0.108848	2.150992	0.921274
O	-1.808343	1.115466	0.918002
H	2.957175	0.0	0.0
