15
Coordinates from ORCA-job run
  C   -0.62353728602269      0.05589144231136     -0.54270400281160
  C   0.90664561993332      0.19191584576347     -0.39981250771191
  H   -0.79262488172077     -0.64861422804688     -1.36402774003696
  H   1.34948334141930      0.49999785357518     -1.35079018545613
  C   -1.16475799987256      1.35684624163603     -0.93779505427220
  N   -1.60121529785216      2.40316006387467     -1.24433010702718
  C   -1.28221332470955     -0.46142392584421      0.73780064624603
  H   -2.36115657745529     -0.53249566723328      0.59459087064681
  H   -1.08704903382788      0.21054359673821      1.57546227135141
  H   -0.90646359821578     -1.45575926940439      0.98634558632656
  N   1.45389115133690     -1.19702050120050     -0.13127144401060
  O   1.30991008492187     -1.98558657926385     -1.05889989386950
  O   1.94677466480385     -1.42959753769919      0.96466436570495
  C   1.28921544994809      1.10917127664377      0.66510809350226
  N   1.56409768731335      1.88197138814962      1.50565910141805
