15
Coordinates from ORCA-job run
  C   -0.64546274373263      0.03637810957812     -0.51786088741264
  C   0.88334698423724      0.22604273951040     -0.43256536657009
  H   -0.82053968699727     -0.67043088410680     -1.33591329292708
  H   1.27785111438464      0.55658794348021     -1.39717578047883
  C   -1.24725534000053      1.31873299948033     -0.88476636445100
  N   -1.73134929245953      2.35026041616841     -1.16918472799029
  C   -1.23614339181448     -0.50925589802229      0.78400734142205
  H   -1.03293474750791      0.16598423922638      1.61711965379066
  H   -0.81619204013759     -1.49042284765858      1.01332850582398
  H   -2.31663698055916     -0.61754542911044      0.68142159838525
  N   1.48924617601662     -1.14412217991944     -0.19616294226566
  O   2.03109718576156     -1.36620645873501      0.87874042173213
  O   1.33825334105636     -1.93099706615184     -1.12406225884826
  C   1.27356683207845      1.14950988371363      0.62426517209843
  N   1.55215258967421      1.92748443254693      1.45880892769136
