15
Coordinates from ORCA-job run
  C   -0.65566896307384      0.38671876342785     -0.26756110706116
  C   0.81710309264574      0.03766446824526     -0.56571825923114
  H   -1.01262051132190      0.93035269595600     -1.15067596692038
  H   0.86411053569396     -0.58659526819947     -1.46061592305987
  C   -0.76322605667063      1.29442372420349      0.87743052562538
  N   -0.90022062293820      2.01054519802653      1.79801392931688
  C   -1.51220344533566     -0.86617823184442     -0.05889471047685
  H   -1.23702004374561     -1.38392534961703      0.86049911141707
  H   -1.38950969377802     -1.55565271460879     -0.89660736570819
  H   -2.56278699466070     -0.58175656014911      0.01161450293974
  N   1.35795479600865     -0.82206936476290      0.55316858960278
  O   1.33277939956871     -2.03264102591669      0.35267487621885
  O   1.71936116086729     -0.24640219333829      1.57226672481948
  C   1.64791705030219      1.22444975641996     -0.72489335658834
  N   2.29303029643802      2.19006610215761     -0.89970157089425
