15
Coordinates from ORCA-job run
  C   -0.60019993526224      0.12489082038758     -0.52295586546966
  C   0.84760244893903     -0.38010421180394     -0.35499574520960
  H   -0.85428943805778     -0.05902123789950     -1.57396585919690
  H   0.88533092843152     -1.44647134445346     -0.58783526275592
  C   -0.68587848965738      1.57026261191059     -0.29946655381000
  N   -0.80698569866205      2.72376250198340     -0.11559096581570
  C   -1.58224497590768     -0.63069293067034      0.37801036252244
  H   -2.60309227854895     -0.33677865480929      0.13067632905674
  H   -1.40768695095681     -0.40450105451063      1.43030883437048
  H   -1.48105994515630     -1.70794844035078      0.23235849738601
  N   1.24383844862935     -0.27225119450186      1.09932169283658
  O   1.11072601798940     -1.29605359711695      1.76298302323669
  O   1.60624672432748      0.82801531997181      1.49746022447157
  C   1.79252548509398      0.35858442173262     -1.18288637975575
  N   2.53416765879842      0.92930699013075     -1.89242233186698
