15
Coordinates from ORCA-job run
  C   -0.59503075802241     -0.19724640777791     -0.26409909736872
  C   0.82727300080227      0.19090837113973      0.17517418408834
  H   -0.59900421378245     -1.28034470582412     -0.42425796527446
  H   0.93394263361381      1.27425795577354      0.26445523276101
  C   -0.88188065735428      0.45730925884561     -1.54281007159672
  N   -1.12057127871329      1.00458203574708     -2.55420087473955
  C   -1.63090487378083      0.18805368753787      0.79581403538689
  H   -2.63068862252688     -0.07613425225717      0.44921250704105
  H   -1.43615744850695     -0.34581781066514      1.72744754117777
  H   -1.60848111682416      1.26265587224026      0.98866596244517
  N   1.80681511847721     -0.23477803783183     -0.89946647429040
  O   2.47261009402914      0.65370776069956     -1.41685449676170
  O   1.82492555558055     -1.43062341367055     -1.16492063651079
  C   1.18904992801375     -0.46898248388185      1.42471999073648
  N   1.44810263899452     -0.99554783007508      2.44212016290562
