15
Coordinates from ORCA-job run
  C   -0.69148528834499      0.35460999034148     -0.21134437309017
  C   0.75037072892784      0.02871918320663     -0.65199088200551
  H   -1.15727673058653      0.84422604773202     -1.07515134137494
  H   0.71953242682945     -0.64150974001990     -1.51388135865159
  C   -0.70263239905791      1.31580349599362      0.89402142824827
  N   -0.76268626680189      2.07367180604526      1.78907797481834
  C   -1.48369444605976     -0.90659440507782      0.14723940171995
  H   -2.52836909897637     -0.64402767535364      0.31882128838852
  H   -1.43273173562761     -1.63240339210869     -0.66665478634141
  H   -1.09572214289015     -1.37288424396597      1.05324288040118
  N   1.43744465813799     -0.75505087621670      0.44230844038833
  O   1.89699759688260     -0.11542250910776      1.38057411623989
  O   1.42089560095638     -1.97536901549098      0.31164163518119
  C   1.51981659815333      1.22691615990527     -0.96233636109205
  N   2.10954049845761      2.19931517411717     -1.25556806283000
