15

C	-0.594389	-0.004017	-1.409039
C	0.0	0.0	0.0
Br	0.041622	-1.626647	-2.337983
H	1.097172	0.0	0.0
H	-0.352689	-0.908951	0.502446
C	-2.119038	-0.034199	-1.404801
H	-2.468261	0.848397	-0.865086
H	-2.522695	-0.033553	-2.419752
H	-2.456722	-0.936377	-0.889111
C	-0.138446	1.15265	-2.181981
N	0.146415	2.101904	-2.813221
N	-0.452514	1.224235	0.681886
H	-0.899599	0.991701	1.555998
H	0.389299	1.746772	0.907457
H	2.907526	0.0	0.0
