15

C	-0.396484	0.092127	-1.457475
C	0.0	0.0	0.0
Br	-2.37807	0.451138	-1.625147
H	1.101941	0.0	0.0
H	-0.314331	0.931528	0.489179
C	0.367144	1.212877	-2.139823
H	0.136324	1.271532	-3.204757
H	1.434237	1.010704	-1.976512
H	0.120116	2.164385	-1.664017
C	-0.193718	-1.177038	-2.15208
N	-0.006872	-2.148248	-2.787105
N	-0.493841	-1.205493	0.644048
H	-1.227394	-0.997322	1.306384
H	0.281324	-1.631282	1.140157
H	2.877019	0.0	0.0
