15

C	-0.394269	0.011905	-1.461791
C	0.0	0.0	0.0
Br	-2.376878	0.346829	-1.650705
H	1.095756	0.0	0.0
H	-0.317679	0.956311	0.436077
C	0.364161	1.102241	-2.19913
H	1.433203	0.915289	-2.023211
H	0.137693	1.105949	-3.267132
H	0.109402	2.074616	-1.771949
C	-0.178625	-1.291295	-2.085634
N	0.010648	-2.314815	-2.630158
N	-0.491403	-1.169744	0.707613
H	0.279933	-1.558709	1.236058
H	-1.238033	-0.93317	1.345073
H	2.882871	0.0	0.0
