15

C	-0.587565	0.003962	-1.411692
C	0.0	0.0	0.0
Br	0.0684	-1.574939	-2.403895
H	1.098022	0.0	0.0
H	-0.339958	0.931705	0.471062
C	-2.11153	-0.060823	-1.41151
H	-2.509139	-0.119566	-2.426419
H	-2.408795	-0.937072	-0.836001
H	-2.503371	0.838872	-0.925167
C	-0.143242	1.183828	-2.152766
N	0.136888	2.171847	-2.723424
N	-0.502556	-1.165286	0.747097
H	-0.682881	-0.877493	1.699045
H	0.273597	-1.816499	0.79927
H	2.918365	0.0	0.0
