18

C	-0.456064	0.037925	-1.467774
C	0.0	0.0	0.0
F	-0.086163	-1.215087	-2.000221
H	1.101747	0.0	0.0
C	-1.959361	0.139528	-1.619467
H	-2.226443	0.007352	-2.671361
H	-2.313961	1.116336	-1.284661
H	-2.442944	-0.633826	-1.021681
C	0.315882	1.091253	-2.231803
H	0.06011	2.090795	-1.871828
H	0.070259	1.026053	-3.295203
H	1.38687	0.930612	-2.090084
N	-0.556672	-1.187799	0.668705
H	-0.177539	-1.978479	0.157292
H	-0.134101	-1.231153	1.590885
C	-0.470628	1.207976	0.680032
N	-0.862704	2.173432	1.221498
Br	3.559738	0.0	0.0
