18

C	-0.402305	-0.010598	-1.480083
C	0.0	0.0	0.0
F	-1.81857	-0.108172	-1.529861
H	1.09655	0.0	0.0
C	0.001373	1.271135	-2.174893
H	-0.500326	2.126864	-1.719234
H	-0.274991	1.225966	-3.232008
H	1.082985	1.405674	-2.086016
C	0.156596	-1.238182	-2.170308
H	-0.23331	-2.146833	-1.70804
H	1.247375	-1.238586	-2.092737
H	-0.139672	-1.237537	-3.22279
N	-0.453969	-1.151124	0.773442
H	0.199464	-1.911944	0.640669
H	-1.373638	-1.43433	0.456379
C	-0.487155	1.225888	0.650129
N	-0.898045	2.205278	1.151624
Br	3.490227	0.0	0.0
