18

C	-0.479269	-0.037593	-1.459371
C	0.0	0.0	0.0
F	-0.188775	1.222082	-2.008169
H	1.094781	0.0	0.0
C	0.314543	-1.06943	-2.229314
H	0.021131	-1.053076	-3.282807
H	0.13107	-2.061284	-1.814174
H	1.379371	-0.844535	-2.138368
C	-1.97927	-0.223319	-1.571287
H	-2.501326	0.57521	-1.036697
H	-2.274078	-0.181184	-2.622945
H	-2.273431	-1.190345	-1.160385
N	-0.4102	-1.226416	0.695613
H	-1.276552	-1.079024	1.199954
H	0.311439	-1.458971	1.368821
C	-0.491817	1.21253	0.670229
N	-0.945183	2.119705	1.264424
Br	3.528159	0.0	0.0
