18

C	-0.395783	-0.024686	-1.475909
C	0.0	0.0	0.0
F	-1.811139	-0.06997	-1.544947
H	1.095548	0.0	0.0
C	0.065431	1.235	-2.17763
H	1.148598	1.335218	-2.065444
H	-0.419705	2.114293	-1.749211
H	-0.187002	1.18032	-3.240058
C	0.142621	-1.275806	-2.133155
H	-0.263605	-2.155007	-1.636148
H	-0.136173	-1.285459	-3.190317
H	1.231257	-1.289672	-2.038725
N	-0.452921	-1.20078	0.696251
H	0.127933	-1.337135	1.514667
H	-1.413836	-1.087871	0.993652
C	-0.477093	1.233208	0.64969
N	-0.875528	2.181582	1.218587
Br	3.496607	0.0	0.0
