18

C	-0.390526	-0.032319	-1.477759
C	0.0	0.0	0.0
F	-1.804122	-0.073364	-1.554027
H	1.095669	0.0	0.0
C	0.079358	1.221591	-2.183883
H	-0.411094	2.104302	-1.768896
H	1.159821	1.322193	-2.058403
H	-0.158212	1.158814	-3.248141
C	0.148689	-1.288405	-2.125448
H	-0.258435	-2.164823	-1.623849
H	1.237077	-1.302341	-2.02887
H	-0.128083	-1.304116	-3.182937
N	-0.459104	-1.194998	0.700481
H	0.0964	-1.311396	1.540037
H	-1.431485	-1.088242	0.96585
C	-0.477604	1.238835	0.639466
N	-0.874587	2.190557	1.203789
Br	3.497708	0.0	0.0
