17

C	0.0	0.0	0.0
C	-0.390814	-0.078594	-1.470704
F	1.425986	0.0	0.0
H	0.278712	-0.814036	-1.931961
H	-0.135291	0.890681	-1.920789
N	-0.478259	1.203224	0.580254
H	-0.104931	2.008373	0.095245
H	-0.249322	1.25659	1.564304
C	-0.457632	-1.18728	0.815933
H	-1.547437	-1.18455	0.884501
H	-0.028914	-1.126793	1.82146
H	-0.115988	-2.116378	0.354456
C	-1.854161	-0.432373	-1.722817
H	-2.118258	-0.223615	-2.764994
H	-2.033872	-1.497593	-1.552694
H	-2.573959	0.089188	-1.078839
H	-4.646319	0.0	0.0
