17

C	0.0	0.0	0.0
C	-0.511486	0.02035	-1.426098
F	1.427698	0.0	0.0
H	-1.60472	0.109039	-1.326342
H	-0.1314	0.935959	-1.899238
N	-0.406937	1.206031	0.651106
H	-0.048358	2.00468	0.142272
H	-0.04055	1.224611	1.597151
C	-0.499639	-1.183073	0.791322
H	-1.598076	-1.142003	0.753396
H	-0.126384	-2.123624	0.376983
H	-0.159286	-1.10628	1.831444
C	-0.113692	-1.194097	-2.255242
H	-0.38235	-1.041919	-3.305651
H	-0.64067	-2.086769	-1.913956
H	0.962806	-1.379339	-2.200152
H	-3.677885	0.0	0.0
