17

C	0.0	0.0	0.0
C	-0.342097	-0.223904	-1.49221
F	1.399626	0.0	0.0
H	0.546629	0.120632	-2.030806
H	-0.409437	-1.305625	-1.658745
N	-0.451634	1.301004	0.430958
H	-0.254102	1.385051	1.424712
H	-1.472147	1.287627	0.347008
C	-0.465763	-1.132735	0.893504
H	-0.143108	-0.94827	1.924619
H	-1.559822	-1.163438	0.853703
H	-0.047381	-2.088757	0.560939
C	-1.579776	0.468171	-2.048822
H	-1.444081	1.553723	-2.044643
H	-2.474299	0.236258	-1.455012
H	-1.739554	0.15073	-3.085953
H	-3.730203	0.0	0.0
