15

C	0.0	0.0	0.0
C	-0.453127	-0.241534	-1.472011
F	1.387082	0.0	0.0
H	0.42624	0.103243	-2.032574
H	-0.336241	0.984524	0.335495
C	-0.429731	-1.016463	0.970116
N	-0.676957	-1.865979	1.741433
N	-1.59316	0.513348	-1.933814
H	-2.444476	0.253912	-1.427259
H	-1.452082	1.504431	-1.774034
C	-0.670844	-1.720021	-1.757744
H	-1.573266	-2.063799	-1.24676
H	0.178487	-2.323135	-1.424459
H	-0.81006	-1.856327	-2.831316
Br	-4.306418	0.0	0.0
