15

C	0.0	0.0	0.0
C	-0.446043	-0.200347	-1.454472
F	1.389153	0.0	0.0
H	-1.536282	-0.224024	-1.443581
H	-0.365724	0.939003	0.418812
C	-0.381164	-1.13233	0.864448
N	-0.510472	-2.074162	1.553605
N	0.044644	-1.459817	-2.01306
H	-0.500356	-2.22347	-1.629386
H	1.00772	-1.602282	-1.731502
C	0.036284	0.971057	-2.300758
H	-0.43	1.902898	-1.970799
H	-0.241365	0.787779	-3.339374
H	1.123094	1.080029	-2.248053
Br	-3.600792	0.0	0.0
