15

C	0.0	0.0	0.0
C	-0.42774	0.758449	-1.263965
F	1.389141	0.0	0.0
H	0.118912	0.258948	-2.074544
H	-0.355715	0.486297	0.91237
C	-0.395443	-1.41558	-0.046102
N	-0.596035	-2.566206	-0.164677
N	0.026572	2.145188	-1.234936
H	-0.559819	2.678417	-0.6012
H	0.986383	2.193523	-0.908163
C	-1.91553	0.689616	-1.535955
H	-2.114524	1.175896	-2.492395
H	-2.518621	1.17445	-0.766459
H	-2.284592	-0.333665	-1.591357
Br	-5.062633	0.0	0.0
