15

C	0.0	0.0	0.0
C	-0.467776	0.03975	-1.457084
F	1.389329	0.0	0.0
H	0.009912	-0.823485	-1.938099
H	-0.3436	0.886017	0.542083
C	-0.417934	-1.223581	0.700615
N	-0.648604	-2.250114	1.220904
N	0.013315	1.239407	-2.135514
H	-0.541027	2.034528	-1.836609
H	0.980864	1.414281	-1.890241
C	-1.975011	-0.064668	-1.572583
H	-2.496699	0.743644	-1.055495
H	-2.255	-0.026752	-2.626906
H	-2.375136	-0.982852	-1.144066
Br	-5.187276	0.0	0.0
