14

C	-0.602515	-0.001622	-1.411577
C	0.0	0.0	0.0
Br	-0.034782	-1.534018	-2.477949
H	1.093724	0.0	0.0
H	-1.689468	-0.102056	-1.321238
C	-0.318487	1.218694	-2.159046
N	-0.102404	2.182353	-2.794222
N	-0.420346	-1.214962	0.682932
H	-1.265194	-1.058613	1.219628
H	0.31633	-1.503596	1.313566
N	-0.418019	1.268423	0.604301
H	-1.207633	1.134233	1.223385
H	0.354411	1.642893	1.141305
Cl	3.378824	0.0	0.0
