14

C	-0.521894	-0.014015	-1.44279
C	0.0	0.0	0.0
Br	0.005514	1.549174	-2.474799
H	1.093733	0.0	0.0
H	-0.09551	-0.877841	-1.951316
C	-1.978985	-0.109886	-1.440882
N	-3.14909	-0.193569	-1.367585
N	-0.393869	-1.301965	0.549106
H	0.30368	-1.589154	1.224789
H	-1.292578	-1.238598	1.013894
N	-0.453189	1.18936	0.692503
H	0.207975	1.42074	1.421837
H	-1.368875	1.050544	1.10401
Cl	3.395258	0.0	0.0
