14

C	-0.587823	0.013468	-1.419912
C	0.0	0.0	0.0
Br	0.152827	-1.399	-2.530085
H	1.099012	0.0	0.0
H	-1.658061	-0.192241	-1.336884
C	-0.41055	1.288912	-2.105082
N	-0.263281	2.321016	-2.647032
N	-0.457887	-1.202127	0.659846
H	0.255738	-1.530141	1.297651
H	-1.309343	-0.998004	1.172315
N	-0.540554	1.196643	0.675732
H	-0.103967	2.018425	0.265493
H	-0.181988	1.156818	1.626465
Cl	3.445104	0.0	0.0
