14

C	-0.587542	-0.003937	-1.414161
C	0.0	0.0	0.0
Br	-0.086304	-1.587941	-2.460997
H	1.102031	0.0	0.0
H	-1.675456	-0.048974	-1.319867
C	-0.222677	1.184522	-2.172853
N	0.034333	2.129028	-2.820732
N	-0.546305	-1.149036	0.733174
H	-0.025057	-1.190533	1.606327
H	-0.291431	-1.996295	0.233892
N	-0.468734	1.236564	0.605252
H	0.29923	1.702172	1.069964
H	-1.204379	1.025862	1.267393
Cl	3.447267	0.0	0.0
