14

C	-0.550503	0.038297	-1.441387
C	0.0	0.0	0.0
Br	0.060133	-1.478835	-2.510917
H	1.100031	0.0	0.0
H	-1.639172	-0.050587	-1.380132
C	-0.237436	1.274904	-2.145611
N	-0.001322	2.280668	-2.706132
N	-0.431817	-1.171746	0.728393
H	0.228104	-1.92053	0.570928
H	-1.353963	-1.476002	0.438887
N	-0.583579	1.182874	0.645219
H	0.014965	1.978172	0.445292
H	-0.504683	1.00483	1.640461
Cl	3.43553	0.0	0.0
