13

C	-0.568434	-0.049386	-1.396413
C	0.0	0.0	0.0
Br	-0.148982	1.587649	-2.348982
H	1.090075	0.0	0.0
H	-0.101735	-0.867714	-1.938008
H	-1.652227	-0.150189	-1.38151
N	-0.429442	-1.224855	0.757006
O	-0.539931	-1.128722	1.973704
O	-0.584736	-2.250869	0.098812
N	-0.563304	1.154616	0.763107
O	0.211108	1.877067	1.376958
O	-1.789005	1.277908	0.716779
Cl	3.207638	0.0	0.0
