13

C	-0.56956	-0.026716	-1.397902
C	0.0	0.0	0.0
Br	-0.219661	1.65201	-2.303851
H	1.088659	0.0	0.0
H	-1.647925	-0.172701	-1.384665
H	-0.072015	-0.808621	-1.96592
N	-0.415778	-1.242371	0.735485
O	-0.636786	-2.242044	0.054495
O	-0.442373	-1.185368	1.959293
N	-0.578794	1.133283	0.779672
O	0.186015	1.923895	1.315067
O	-1.810122	1.179419	0.809065
Cl	3.204168	0.0	0.0
