13

C	-0.58144	-0.008821	-1.393382
C	0.0	0.0	0.0
Br	-0.270629	-1.718226	-2.25253
H	1.088673	0.0	0.0
H	-0.074116	0.744038	-1.990265
H	-1.653947	0.157275	-1.374154
N	-0.579587	-1.109484	0.813744
O	0.175408	-1.953419	1.274806
O	-1.805372	-1.086778	0.935377
N	-0.411949	1.257693	0.709065
O	-0.784663	2.203621	0.018904
O	-0.298168	1.264868	1.927365
Cl	3.188648	0.0	0.0
