13

C	-0.578633	-0.059005	-1.392809
C	0.0	0.0	0.0
Br	-0.23558	1.596788	-2.341197
H	1.08867	0.0	0.0
H	-0.087416	-0.854016	-1.946233
H	-1.655913	-0.205096	-1.367735
N	-0.41289	-1.221876	0.770023
O	-0.721113	-2.218634	0.119283
O	-0.358068	-1.150535	1.990978
N	-0.57625	1.154074	0.754571
O	-1.80591	1.168862	0.835519
O	0.187673	1.991448	1.213535
Cl	3.206922	0.0	0.0
