13

C	-0.418401	0.029613	-1.442528
C	0.0	0.0	0.0
Br	-2.336586	0.226867	-1.720109
H	1.091601	0.0	0.0
H	-0.109247	-0.893764	-1.925265
H	0.064712	0.883832	-1.911848
N	-0.415099	-1.231031	0.731255
O	-0.908763	-2.150146	0.076892
O	-0.148782	-1.263308	1.927754
N	-0.511667	1.213927	0.704003
O	-1.383727	1.091486	1.557412
O	-0.035808	2.271247	0.304042
Cl	3.157121	0.0	0.0
