13

C	0.0	0.0	0.0
C	-0.510426	-0.274272	-1.422211
F	1.371266	0.0	0.0
H	-1.617656	-0.237426	-1.352902
H	-0.310446	-0.839746	0.635722
N	-0.46756	1.284319	0.410791
H	-1.489019	1.231201	0.474597
H	-0.097902	1.482338	1.333406
C	-0.105425	-1.60353	-1.879029
N	0.201437	-2.678695	-2.23659
C	-0.025983	0.745892	-2.353897
N	0.379515	1.525627	-3.132169
Br	-3.622537	0.0	0.0
