13

C	0.0	0.0	0.0
C	-0.411701	-0.356662	-1.467272
F	1.374014	0.0	0.0
H	0.554063	-0.464687	-1.978302
H	-0.314565	-0.810111	0.666995
N	-0.44395	1.30568	0.350359
H	-1.465343	1.29478	0.272824
H	-0.220812	1.465427	1.326999
C	-1.112605	0.693903	-2.212172
N	-1.514533	1.52534	-2.936637
C	-1.058346	-1.66676	-1.583744
N	-1.387012	-2.783932	-1.734608
Br	-3.458948	0.0	0.0
