13

C	0.0	0.0	0.0
C	-0.412955	0.213044	-1.494491
F	1.376111	0.0	0.0
H	0.552331	0.294293	-2.012082
H	-0.3129	-1.000626	0.316921
N	-0.445336	1.07916	0.812884
H	-1.467771	1.087917	0.74929
H	-0.204926	0.870294	1.77618
C	-1.110511	1.465384	-1.795521
N	-1.543172	2.491026	-2.169181
C	-1.066996	-0.962104	-2.080875
N	-1.41221	-1.945527	-2.61924
Br	-3.468525	0.0	0.0
