16

C	0.0	0.0	0.0
C	-0.190648	-0.235341	-1.547403
F	1.402242	0.0	0.0
H	0.419371	-1.137716	-1.697884
C	-0.41548	1.351993	0.41846
N	-0.649919	2.452398	0.752443
N	-0.561928	-0.971054	0.853531
H	-0.50112	-1.88239	0.415439
H	-1.557654	-0.747694	0.960456
C	0.495735	0.8369	-2.276356
N	1.016653	1.69071	-2.892221
C	-1.562079	-0.485843	-2.162535
H	-2.194562	0.39469	-2.121154
H	-1.389967	-0.792165	-3.199724
H	-2.093248	-1.266869	-1.625543
Cl	-3.746846	0.0	0.0
