16

C	0.0	0.0	0.0
C	-0.394523	-0.039239	-1.515576
F	1.381827	0.0	0.0
H	0.571754	0.128533	-2.004926
C	-0.336917	1.319531	0.609178
N	-0.491015	2.364898	1.124141
N	-0.476596	-1.126572	0.72174
H	-0.245703	-1.005397	1.702675
H	-1.502856	-1.090024	0.642256
C	-1.230957	1.070653	-1.989092
N	-1.732249	1.914819	-2.634571
C	-0.934047	-1.387431	-1.996195
H	-0.248598	-2.187292	-1.714549
H	-1.030477	-1.360619	-3.085061
H	-1.911958	-1.571268	-1.563397
Cl	-3.363006	0.0	0.0
