16

C	0.0	0.0	0.0
C	-0.211314	-0.059307	-1.556697
F	1.402121	0.0	0.0
H	0.331662	-0.977572	-1.822633
C	-0.410899	1.298975	0.562965
N	-0.641881	2.364551	0.997215
N	-0.555644	-1.062274	0.748118
H	-1.552447	-0.865526	0.884941
H	-0.480662	-1.92814	0.225862
C	0.526188	1.043721	-2.184952
N	1.082862	1.926262	-2.72404
C	-1.619465	-0.128664	-2.129399
H	-2.172704	-0.970653	-1.721925
H	-2.200932	0.756076	-1.884018
H	-1.538833	-0.228888	-3.215949
Cl	-3.935643	0.0	0.0
