16

C	0.0	0.0	0.0
C	-0.259871	-0.332081	-1.503693
F	1.376914	0.0	0.0
H	0.239832	-1.304266	-1.596812
C	-0.375043	1.397364	0.344975
N	-0.606882	2.498452	0.682783
N	-0.562209	-0.995575	0.840659
H	-1.577926	-0.977018	0.687929
H	-0.411945	-0.741473	1.812203
C	0.512852	0.619098	-2.314058
N	1.094634	1.375378	-2.998145
C	-1.672022	-0.43524	-2.062158
H	-2.22681	0.491296	-1.941186
H	-1.595155	-0.680849	-3.12534
H	-2.249258	-1.204134	-1.557177
Cl	-3.992815	0.0	0.0
