16

C	0.0	0.0	0.0
C	-0.386987	-0.132441	-1.513855
F	1.382186	0.0	0.0
H	0.591064	-0.052663	-2.002485
C	-0.332245	1.348512	0.543203
N	-0.483545	2.410422	1.02317
N	-0.481237	-1.082457	0.781328
H	-1.506687	-1.047885	0.695775
H	-0.254564	-0.904812	1.754724
C	-1.153422	0.993075	-2.054857
N	-1.634669	1.894986	-2.633238
C	-0.994984	-1.478233	-1.913529
H	-0.371223	-2.291249	-1.541988
H	-2.000875	-1.563511	-1.507869
H	-1.044118	-1.529968	-3.004632
Cl	-3.400646	0.0	0.0
