14

C	-0.518272	0.029148	-1.421762
C	0.0	0.0	0.0
Cl	-0.215471	1.649599	-2.178795
H	1.093442	0.0	0.0
H	-1.607602	-0.068109	-1.434086
H	-0.327494	-0.965006	0.411882
C	0.16775	-1.029659	-2.263816
H	-0.157201	-0.984564	-3.305995
H	-0.074655	-2.020086	-1.86335
H	1.249602	-0.891821	-2.200822
N	-0.602739	1.060971	0.825302
H	-0.179654	1.930833	0.51659
H	-0.245924	0.925006	1.765854
H	3.147819	0.0	0.0
