14

C	-0.404131	-0.020635	-1.453226
C	0.0	0.0	0.0
Cl	-2.225575	-0.146913	-1.625866
H	1.099101	0.0	0.0
H	-0.027899	-0.939757	-1.90821
H	-0.339129	-0.924048	0.488501
C	0.09318	1.191194	-2.204623
H	-0.326684	2.093473	-1.762223
H	1.181754	1.216625	-2.086442
H	-0.165767	1.141848	-3.265141
N	-0.448088	1.216838	0.677001
H	0.287997	1.503367	1.311104
H	-1.285756	1.041508	1.215291
H	3.017517	0.0	0.0
