13

C	0.0	0.0	0.0
C	-0.640543	0.066824	-1.363902
Br	1.924086	0.0	0.0
H	-0.369171	-0.830428	-1.925713
H	-0.373242	-0.882171	0.516079
H	-1.74024	0.09689	-1.108491
N	-0.405913	1.171275	0.861445
O	-0.542107	2.25011	0.297036
O	-0.473806	0.965771	2.066498
N	-0.27098	1.223239	-2.230351
O	0.914399	1.382914	-2.527411
O	-1.191969	1.910266	-2.663259
H	-2.970986	0.0	0.0
