13

C	0.0	0.0	0.0
C	-0.535341	0.133838	-1.417126
Br	1.923254	0.0	0.0
H	-0.49946	-0.855179	-1.871224
H	-0.378975	-0.912286	0.447957
H	-1.586447	0.447515	-1.287275
N	-0.414102	1.102318	0.943258
O	-0.415951	0.798961	2.131947
O	-0.577919	2.222076	0.482856
N	0.228678	1.018257	-2.337056
O	0.013068	2.230371	-2.30906
O	0.995929	0.465676	-3.136987
H	-2.727711	0.0	0.0
