15

C	0.0	0.0	0.0
C	-0.564932	0.279425	-1.384628
Cl	1.776979	0.0	0.0
H	-0.221209	-0.474486	-2.092557
H	-1.662301	0.211468	-1.281001
C	-0.5132	0.948924	1.052519
H	-0.215686	1.964151	0.783494
H	-0.098077	0.694404	2.025444
H	-1.604071	0.871349	1.069887
N	-0.371804	-1.443562	0.369695
O	-0.467803	-2.247677	-0.550234
O	-0.468575	-1.702449	1.561454
C	-0.182737	1.60559	-1.850491
N	0.129518	2.666692	-2.244107
Cl	-3.681846	0.0	0.0
