15

C	0.0	0.0	0.0
C	-0.296283	0.19169	-1.503899
Cl	1.779225	0.0	0.0
H	0.384128	-0.471966	-2.039414
H	0.027749	1.213789	-1.726378
C	-0.558928	1.03445	0.93131
H	-0.234487	2.022042	0.595958
H	-1.651742	0.955854	0.886507
H	-0.206391	0.858505	1.946319
N	-0.393869	-1.405848	0.438445
O	-0.500805	-1.597541	1.642611
O	-0.49382	-2.251031	-0.442931
C	-1.592567	-0.012612	-2.1577
N	-2.345436	-0.148425	-3.051494
Cl	-3.627986	0.0	0.0
