15

C	0.0	0.0	0.0
C	-0.587807	0.137756	-1.396309
Cl	1.764179	0.0	0.0
H	-1.670119	-0.051725	-1.296901
H	-0.464795	1.180357	-1.702618
C	-0.53119	1.06876	0.926044
H	-0.209592	2.046203	0.560795
H	-0.146382	0.912673	1.931976
H	-1.62393	1.006438	0.920865
N	-0.377457	-1.375934	0.570374
O	-0.772222	-2.224667	-0.219026
O	-0.218247	-1.528372	1.775224
C	0.016165	-0.71461	-2.414304
N	0.506528	-1.338899	-3.278856
Cl	-3.724132	0.0	0.0
