14

C	-0.448077	-0.014959	-1.433468
C	0.0	0.0	0.0
F	-0.071673	1.103332	-2.054
H	1.092637	0.0	0.0
H	-0.32028	0.965749	0.404073
N	0.06352	-1.196738	-2.237249
O	0.410745	-2.186389	-1.610903
O	0.041396	-1.043525	-3.452195
N	-1.973988	-0.09447	-1.537502
O	-2.560643	0.965612	-1.364701
O	-2.469758	-1.198743	-1.724559
C	-0.565418	-1.070276	0.804564
N	-1.049479	-1.889176	1.49217
Br	3.370516	0.0	0.0
