14

C	-0.575236	-0.02631	-1.384681
C	0.0	0.0	0.0
F	-1.920593	-0.125754	-1.384482
H	1.09046	0.0	0.0
H	-0.308888	-0.92206	0.499483
N	-0.196431	1.215727	-2.172736
O	0.967874	1.259076	-2.536913
O	-1.07539	2.052686	-2.329412
N	-0.089173	-1.21095	-2.201877
O	0.388155	-2.154913	-1.586879
O	-0.316534	-1.141672	-3.404668
C	-0.527748	1.147778	0.72814
N	-0.966956	2.057498	1.325673
Br	3.395962	0.0	0.0
