14

C	-0.445397	0.035965	-1.431473
C	0.0	0.0	0.0
F	0.061627	1.099662	-2.059316
H	1.094851	0.0	0.0
H	-0.314068	0.946606	0.448483
N	-0.071254	-1.215411	-2.206969
O	-0.662077	-2.224961	-1.839278
O	0.748456	-1.102502	-3.100781
N	-1.963496	0.140501	-1.61543
O	-2.637566	0.401601	-0.626389
O	-2.359372	0.022822	-2.769826
C	-0.535926	-1.104219	0.779498
N	-0.93075	-1.989272	1.441613
Br	3.379495	0.0	0.0
