14

C	-0.448726	0.249637	-1.411423
C	0.0	0.0	0.0
F	-0.038697	-0.733073	-2.213323
H	1.095128	0.0	0.0
H	-0.315481	-1.02101	0.238107
N	-1.974639	0.310118	-1.509844
O	-2.54051	-0.766411	-1.64359
O	-2.49149	1.413823	-1.38085
N	0.02738	1.564836	-2.00032
O	0.434545	2.414713	-1.223064
O	-0.074646	1.645944	-3.218584
C	-0.562804	0.919874	0.974555
N	-1.042572	1.606771	1.79666
Br	3.370128	0.0	0.0
