14

C	-0.578417	0.01365	-1.384199
C	0.0	0.0	0.0
F	-1.921612	0.127528	-1.382199
H	1.090394	0.0	0.0
H	-0.308705	0.926471	0.491541
N	-0.07931	1.181294	-2.218979
O	0.438302	2.114943	-1.622125
O	-0.333719	1.108197	-3.416202
N	-0.213941	-1.240376	-2.161834
O	0.957261	-1.310157	-2.502219
O	-1.108377	-2.056011	-2.340631
C	-0.527965	-1.14097	0.739436
N	-0.963431	-2.045468	1.347683
Br	3.412518	0.0	0.0
