14

C	-0.562775	-0.040085	-1.388838
C	0.0	0.0	0.0
F	-1.904472	-0.147248	-1.399946
H	1.090395	0.0	0.0
H	-0.310846	-0.916483	0.509107
N	-0.187846	1.198109	-2.182212
O	0.98878	1.261457	-2.501949
O	-1.078556	2.00931	-2.392056
N	-0.05505	-1.220237	-2.200542
O	-0.303938	-1.166724	-3.401052
O	0.464293	-2.144009	-1.585306
C	-0.529629	1.158005	0.710691
N	-0.962227	2.081164	1.292453
Br	3.420197	0.0	0.0
