14

C	-0.43783	0.00287	-1.432688
C	0.0	0.0	0.0
F	-0.091306	-1.090127	-2.097765
H	1.094523	0.0	0.0
H	-0.341237	0.914576	0.483188
N	-1.954694	0.172702	-1.60581
O	-2.410148	-0.196589	-2.682005
O	-2.569593	0.687571	-0.679852
N	0.126344	1.221511	-2.163858
O	0.70779	1.020819	-3.216417
O	-0.106266	2.29387	-1.618993
C	-0.535806	-1.168948	0.680913
N	-0.978602	-2.107494	1.229032
Br	3.378539	0.0	0.0
