15

C	0.0	0.0	0.0
C	-0.586464	-0.05137	-1.378269
F	1.380733	0.0	0.0
H	-1.76483	-0.081202	-0.937342
H	-0.348887	-0.86471	0.558574
C	-0.435841	1.223854	0.696708
N	-0.611677	2.201615	1.32559
N	-0.221819	-1.318742	-1.955929
O	0.049223	-1.367171	-3.162575
O	-0.23052	-2.323	-1.223254
C	-0.224324	1.120684	-2.261231
H	-0.635631	2.030726	-1.81304
H	-0.635991	1.000613	-3.260315
H	0.867821	1.232176	-2.34616
H	-2.678401	0.0	0.0
