15

C	0.0	0.0	0.0
C	-0.224897	0.000846	-1.549037
F	1.379672	0.0	0.0
H	0.208721	-0.943495	-1.886582
H	-0.378868	-0.92256	0.430208
C	-0.536437	1.137654	0.751197
N	-0.565468	2.087654	1.456114
N	0.733075	1.022851	-2.118301
O	0.54919	2.19832	-1.813102
O	1.600076	0.624378	-2.898393
C	-1.538702	0.257598	-2.257606
H	-2.245728	-0.530294	-2.02561
H	-1.986223	1.184249	-1.907922
H	-1.331058	0.300572	-3.339412
H	-2.42741	0.0	0.0
