16

C	0.0	0.0	0.0
C	-0.332315	-0.078017	-1.504185
Br	1.96394	0.0	0.0
H	0.166894	0.747689	-2.017971
H	-0.289479	-0.931467	0.484796
N	-0.568036	1.100794	0.697575
H	-1.539824	0.884103	0.916387
H	-0.544705	1.944163	0.137602
C	-1.806958	-0.12498	-1.835131
H	-2.324485	0.766006	-1.48793
H	-1.928712	-0.199714	-2.919309
H	-2.307115	-0.962373	-1.353177
N	0.285473	-1.309518	-2.097575
O	0.886842	-1.187834	-3.163728
O	0.102181	-2.371147	-1.505653
Br	-4.615066	0.0	0.0
