18

C	-0.461866	0.163994	-1.598019
C	0.201629	-0.00263	-0.237055
F	-0.063055	-0.876755	-2.410088
H	1.27564	-0.107617	-0.458646
N	-1.964709	0.00284	-1.440867
O	-2.541493	0.927948	-0.874805
O	-2.497161	-1.011376	-1.872638
C	-0.18068	1.469622	-2.29025
H	0.899766	1.560167	-2.414233
H	-0.52919	2.291278	-1.672265
H	-0.661177	1.482158	-3.272304
N	-0.338485	-1.176281	0.437253
H	-0.135198	-2.000556	-0.12462
H	0.270481	-1.230696	1.27082
N	0.081581	1.181439	0.579976
H	-0.848574	1.154493	0.989721
H	0.740847	0.972004	1.349394
H	1.783934	-0.402484	2.182396
