18

C	-0.578951	-0.037003	-1.469588
C	0.233457	0.03501	-0.187094
F	-1.897606	-0.284299	-1.153386
H	1.270042	0.248169	-0.463507
N	-0.552456	1.330611	-2.126126
O	-1.596385	1.962024	-2.222562
O	0.546491	1.691701	-2.537615
C	-0.11772	-1.062946	-2.470796
H	-0.120153	-2.030134	-1.971958
H	0.894761	-0.830237	-2.797201
H	-0.790939	-1.071145	-3.33215
N	0.228283	-1.277039	0.444087
H	-0.691808	-1.402692	0.860262
H	0.87725	-1.128838	1.243764
N	-0.219839	1.166006	0.607703
H	0.41655	1.137867	1.41705
H	-1.146146	0.943193	0.962578
H	1.789951	-0.011964	2.363654
