16

C	-0.140304	0.13097	-1.527346
C	0.0	0.0	0.0
F	-1.353837	0.743915	-1.896327
H	1.097554	0.0	0.0
N	0.952129	0.932402	-1.962057
H	1.792528	0.679517	-1.39535
H	1.124276	0.820382	-2.952239
C	-0.186871	-1.195853	-2.200914
N	-0.148084	-2.218556	-2.779511
C	-0.601779	-1.195509	0.549701
N	-1.110881	-2.137897	1.035781
C	-0.480872	1.265869	0.705148
H	-0.000426	2.125189	0.237374
H	-1.565653	1.383926	0.648572
H	-0.17704	1.229186	1.753901
F	2.639081	0.0	0.0
