16

C	-0.428335	0.085687	-1.455196
C	0.0	0.0	0.0
F	0.07189	-1.04273	-2.128067
H	1.094846	0.0	0.0
N	-1.84564	0.175058	-1.621864
H	-2.082736	0.118219	-2.605939
H	-2.275147	-0.603852	-1.133212
C	0.18427	1.259909	-2.11943
N	0.592104	2.201735	-2.688212
C	-0.561058	-1.208499	0.568224
N	-1.052839	-2.17341	1.030074
C	-0.400227	1.239075	0.800372
H	-0.042933	1.119562	1.825414
H	-1.477399	1.427519	0.806667
H	0.117345	2.10419	0.380117
F	2.525147	0.0	0.0
