16

C	-0.094172	-0.028662	-1.546179
C	0.0	0.0	0.0
F	0.047252	1.299611	-1.964527
H	1.098183	0.0	0.0
N	0.975019	-0.778213	-2.127236
H	1.799705	-0.6219	-1.511534
H	0.746831	-1.76451	-2.143175
C	-1.412902	-0.476104	-2.057387
N	-2.469926	-0.835642	-2.42414
C	-0.451389	-1.277695	0.520214
N	-0.823342	-2.308538	0.949686
C	-0.652748	1.185599	0.684886
H	-1.726976	1.240395	0.484128
H	-0.178643	2.103406	0.339863
H	-0.5087	1.11155	1.763347
F	2.624189	0.0	0.0
