16

C	-0.402076	0.005757	-1.463411
C	0.0	0.0	0.0
F	-0.009945	-1.184006	-2.05585
H	1.096043	0.0	0.0
N	-1.821862	0.120531	-1.665761
H	-2.216196	0.786202	-1.017788
H	-2.03743	0.405971	-2.611719
C	0.340898	1.081467	-2.179999
N	0.821927	1.985156	-2.754531
C	-0.5532	-1.160674	0.666368
N	-0.984406	-2.07871	1.262519
C	-0.356214	1.295309	0.730188
H	0.083748	2.141032	0.196347
H	0.112015	1.264254	1.71549
H	-1.431191	1.466134	0.867977
F	2.522161	0.0	0.0
