16

C	-0.112464	-0.018321	-1.535029
C	0.0	0.0	0.0
F	0.06729	1.332577	-1.970302
H	1.097937	0.0	0.0
N	0.893426	-0.869841	-2.009001
H	1.763736	-0.665438	-1.473428
H	1.014177	-0.791504	-3.009467
C	-1.458607	-0.358804	-2.052493
N	-2.55162	-0.585203	-2.419853
C	-0.491591	-1.249382	0.551561
N	-0.902781	-2.23113	1.05176
C	-0.619021	1.212814	0.673994
H	-0.439759	1.158176	1.749546
H	-0.145371	2.115714	0.292152
H	-1.699176	1.274971	0.505786
F	2.632425	0.0	0.0
