18

C	-0.406343	0.035229	-1.44071
C	0.0	0.0	0.0
F	0.374128	-0.667978	-2.253179
H	1.095696	0.0	0.0
N	-1.85844	-0.394764	-1.727785
O	-2.088178	-0.743226	-2.879023
O	-2.666448	-0.294296	-0.816237
N	-0.373194	1.481499	-1.958784
O	-1.367562	2.165658	-1.740636
O	0.653129	1.83151	-2.52251
N	-0.386317	-1.266387	0.564978
O	-0.542806	-2.22304	-0.218547
O	-0.398389	-1.375449	1.800749
C	-0.363443	1.184185	0.862626
H	0.139069	2.075332	0.479736
H	0.039298	0.988841	1.855323
H	-1.43902	1.354685	0.923545
H	2.418042	0.0	0.0
