18

C	-0.531288	0.023679	-1.397453
C	0.0	0.0	0.0
F	-1.783047	0.526406	-1.520944
H	1.08775	0.0	0.0
N	0.328223	0.934805	-2.308465
O	0.626445	2.031495	-1.858603
O	0.578567	0.523145	-3.435996
N	-0.480337	-1.314869	-2.115409
O	-1.464146	-1.637962	-2.762652
O	0.58456	-1.902917	-2.02237
N	-0.45207	-1.176367	0.732548
O	-1.149864	-2.041808	0.17508
O	-0.068743	-1.253514	1.905824
C	-0.349899	1.233167	0.825269
H	0.268041	1.196834	1.721927
H	-1.407303	1.247959	1.103279
H	-0.098936	2.134579	0.273936
H	2.469873	0.0	0.0
