18

C	-0.51513	0.066421	-1.396454
C	0.0	0.0	0.0
F	-1.829955	0.326244	-1.524304
H	1.089014	0.0	0.0
N	0.220146	1.203848	-2.120518
O	-0.290331	2.314923	-2.024498
O	1.268915	0.914976	-2.682409
N	-0.190971	-1.152999	-2.245994
O	0.7495	-1.84724	-1.896978
O	-0.876488	-1.277695	-3.256425
N	-0.491872	-1.19334	0.665655
O	-1.205285	-1.996454	0.036961
O	-0.131574	-1.358936	1.838025
C	-0.315517	1.237984	0.821152
H	-1.383287	1.468838	0.847369
H	0.23773	2.088416	0.419954
H	0.0547	1.051028	1.828534
H	2.462848	0.0	0.0
