18

C	-0.618765	-0.024452	-1.359472
C	0.0	0.0	0.0
F	-1.961593	-0.057595	-1.348916
H	1.089716	0.0	0.0
N	-0.223662	1.258909	-2.102272
O	0.931734	1.314884	-2.504629
O	-1.083866	2.128269	-2.184222
N	-0.143933	-1.130257	-2.297403
O	-0.926378	-1.412998	-3.199857
O	0.976274	-1.574832	-2.120029
N	-0.423112	-1.169973	0.723548
O	-0.305219	-1.155357	1.960232
O	-0.763353	-2.179302	0.074075
C	-0.296924	1.286074	0.748099
H	0.130132	1.182678	1.743914
H	-1.364341	1.508263	0.819585
H	0.226491	2.109691	0.256597
H	2.411351	0.0	0.0
