18

C	-0.586289	0.008624	-1.375066
C	0.0	0.0	0.0
F	-1.927594	-0.048375	-1.401947
H	1.090776	0.0	0.0
N	-0.192972	1.319423	-2.068699
O	0.982236	1.417112	-2.40213
O	-1.074862	2.161964	-2.193305
N	-0.066409	-1.057159	-2.337643
O	-0.818884	-1.317886	-3.27147
O	1.053579	-1.494671	-2.142659
N	-0.416707	-1.201899	0.673255
O	-0.738025	-2.189996	-0.018864
O	-0.304287	-1.235349	1.91078
C	-0.338183	1.253957	0.779182
H	-1.410493	1.459557	0.814482
H	0.046515	1.121861	1.788411
H	0.190338	2.101718	0.336727
H	2.41328	0.0	0.0
