18

C	-0.426909	-0.032725	-1.431427
C	0.0	0.0	0.0
F	-0.296775	1.191649	-1.979733
H	1.092014	0.0	0.0
N	0.416738	-0.978022	-2.288149
O	0.870718	-1.967441	-1.73972
O	0.567128	-0.63975	-3.455801
N	-1.891564	-0.411403	-1.708236
O	-2.700565	0.298177	-1.12514
O	-2.137748	-1.301002	-2.508147
N	-0.489329	-1.136567	0.744465
O	-0.210775	-1.181307	1.949953
O	-1.109457	-2.031263	0.144737
C	-0.282642	1.301831	0.729977
H	0.171243	2.123502	0.173068
H	0.223107	1.237584	1.692326
H	-1.349999	1.486921	0.874151
H	2.438231	0.0	0.0
