18

C	-0.469304	0.034492	-1.415842
C	0.0	0.0	0.0
F	0.071944	1.08601	-2.052966
H	1.094078	0.0	0.0
N	-0.143228	-1.186945	-2.28769
O	1.024526	-1.271708	-2.626131
O	-1.07051	-1.917566	-2.610476
N	-1.996485	0.189227	-1.553123
O	-2.67881	-0.369602	-0.705202
O	-2.401992	0.846983	-2.503668
N	-0.364484	-1.220484	0.677862
O	-0.191549	-2.28292	0.058007
O	-0.657773	-1.157115	1.881053
C	-0.405851	1.244147	0.756451
H	0.180684	1.281942	1.674003
H	-0.152964	2.125271	0.163269
H	-1.466855	1.249649	1.010825
H	2.426414	0.0	0.0
