18

C	-0.490472	-0.000515	-1.409438
C	0.0	0.0	0.0
F	0.098808	0.987522	-2.102452
H	1.093202	0.0	0.0
N	-0.249733	-1.269666	-2.232997
O	0.920547	-1.47511	-2.511433
O	-1.229298	-1.912949	-2.58715
N	-2.007044	0.242891	-1.51528
O	-2.699889	-0.283831	-0.655897
O	-2.394129	0.940591	-2.445528
N	-0.378396	-1.17558	0.738981
O	-0.535721	-1.058534	1.964847
O	-0.354985	-2.265548	0.143135
C	-0.365828	1.283972	0.713949
H	-0.166232	2.13304	0.057375
H	0.284767	1.376834	1.582492
H	-1.406477	1.29552	1.039248
H	2.417575	0.0	0.0
