18

C	-0.540271	0.054703	-1.391996
C	0.0	0.0	0.0
F	-1.799463	0.546413	-1.494139
H	1.087747	0.0	0.0
N	0.300845	0.992725	-2.288875
O	0.735848	2.015351	-1.777704
O	0.408542	0.671447	-3.468076
N	-0.483665	-1.263276	-2.149448
O	0.605368	-1.814023	-2.122763
O	-1.486487	-1.605246	-2.755173
N	-0.438081	-1.191417	0.710891
O	-1.083444	-2.08079	0.125944
O	-0.081211	-1.266857	1.894254
C	-0.349836	1.215562	0.851591
H	-1.392572	1.192615	1.177145
H	0.307679	1.192784	1.719496
H	-0.155106	2.130896	0.301512
H	2.456901	0.0	0.0
