16

C	0.0	0.0	0.0
C	-0.239487	-0.277396	-1.535676
Br	1.956179	0.0	0.0
H	0.290166	-1.185891	-1.812928
N	-0.527232	1.138816	0.628275
H	-1.577937	0.894395	0.54512
H	-0.313276	1.950851	0.061459
C	-0.407652	-1.224626	0.707029
N	-0.568828	-2.233821	1.286127
N	0.340369	0.79296	-2.409689
O	0.87827	0.397575	-3.442795
O	0.220739	1.966427	-2.075319
N	-1.643121	-0.497024	-2.066171
O	-2.007143	-1.663428	-2.042802
O	-2.201984	0.441624	-2.611166
F	-2.604913	0.0	0.0
