16

C	0.0	0.0	0.0
C	-0.593314	0.030196	-1.425918
Br	1.963059	0.0	0.0
H	-1.699729	0.154732	-1.172173
N	-0.485325	1.060499	0.835021
H	-1.515012	0.894892	0.781354
H	-0.279771	1.943195	0.37922
C	-0.386487	-1.276706	0.625517
N	-0.601508	-2.305609	1.149512
N	-0.434017	-1.207432	-2.238213
O	-1.20486	-1.29881	-3.191461
O	0.423947	-2.030138	-1.926976
N	-0.025667	1.144238	-2.226266
O	-0.268267	2.279891	-1.818598
O	0.653564	0.879249	-3.215684
F	-2.723364	0.0	0.0
