14

C	0.0	0.0	0.0
C	-0.558285	0.004124	-1.395783
Cl	1.786351	0.0	0.0
H	-0.165674	0.833675	-1.981293
H	-0.305716	-0.943518	-1.87742
H	-1.654427	0.07946	-1.268955
N	-0.335293	1.341605	0.675641
O	-0.40453	2.331296	-0.044319
O	-0.431734	1.347871	1.897715
C	-0.558042	-1.119911	0.83317
H	-0.303733	-2.070557	0.35839
H	-0.16708	-1.096809	1.848856
H	-1.654243	-0.973928	0.817542
H	-3.309418	0.0	0.0
