14

C	0.0	0.0	0.0
C	-0.558084	-0.028496	-1.395103
Cl	1.786449	0.0	0.0
H	-0.166826	0.787686	-2.000136
H	-0.303849	-0.986755	-1.85406
H	-1.654263	0.047906	-1.269472
N	-0.334329	1.356091	0.646975
O	-0.4364	2.325022	-0.096039
O	-0.3953	1.394183	1.870497
C	-0.558196	-1.100149	0.858473
H	-1.654472	-0.954202	0.838055
H	-0.166501	-1.053722	1.87321
H	-0.304533	-2.061249	0.40535
H	-3.307537	0.0	0.0
