14

C	0.0	0.0	0.0
C	-0.555207	0.03263	-1.396552
Cl	1.78648	0.0	0.0
H	-1.651824	0.103327	-1.270781
H	-0.298654	-0.903883	-1.897822
H	-0.162611	0.875235	-1.963575
N	-0.341162	1.324862	0.703941
O	-0.430632	1.305766	1.926223
O	-0.422494	2.327226	0.003809
C	-0.554828	-1.140324	0.807735
H	-0.162696	-1.139115	1.823527
H	-0.297072	-2.07896	0.311269
H	-1.651544	-0.997331	0.795758
H	-3.304729	0.0	0.0
