17

C	-0.364591	-0.015513	-1.466808
C	0.0	0.0	0.0
Br	-2.453528	-0.64726	-1.544732
H	1.097027	0.0	0.0
H	-0.324792	-0.945374	0.439919
N	-0.251472	1.221259	-2.080756
H	-0.740375	1.964001	-1.604434
H	-0.471879	1.206833	-3.065798
C	0.360958	-1.097323	-2.230441
H	0.156173	-2.074743	-1.795337
H	1.431677	-0.885039	-2.140004
H	0.061214	-1.113084	-3.281721
C	-0.535484	1.177649	0.798167
H	-1.622981	1.264605	0.709834
H	-0.287184	1.047343	1.853577
H	-0.065756	2.11225	0.481322
Cl	3.540124	0.0	0.0
