14

C	-0.342632	0.049606	-1.487283
C	0.0	0.0	0.0
Br	-2.337393	0.223857	-1.673742
H	1.096437	0.0	0.0
H	-0.38982	-0.913786	0.462712
N	0.273974	1.153346	-2.170749
H	0.157696	1.947524	-1.541602
H	1.27564	0.949904	-2.193222
C	-0.013323	-1.214605	-2.147173
N	0.248979	-2.23719	-2.662466
N	-0.414772	1.247344	0.625349
H	-1.314042	1.151905	1.079111
H	0.280309	1.51267	1.312628
Br	3.551271	0.0	0.0
