14

C	-0.392088	-0.081351	-1.481168
C	0.0	0.0	0.0
Br	-0.051646	1.672008	-2.308834
H	1.09344	0.0	0.0
H	-0.393796	0.907748	0.469234
N	0.354721	-1.082374	-2.213019
H	1.341949	-0.858993	-2.075125
H	0.190887	-1.952044	-1.708384
C	-1.832493	-0.335888	-1.616378
N	-2.985821	-0.55656	-1.661544
N	-0.427534	-1.251977	0.624143
H	0.293754	-1.565499	1.260699
H	-1.290318	-1.135241	1.138047
Br	3.562377	0.0	0.0
