12
Coordinates from ORCA-job run
  C   0.63246346437970     -0.66735297356159      0.25883961780049
  C   -0.38344601815117     -0.35098840891625     -0.80134990219673
  H   1.43786863837744     -1.28198535725377     -0.14904153025621
  H   0.02345549385385      0.24814893180696     -1.61168099826714
  H   0.20073477521773     -1.16548541101467      1.12293607886676
  H   -0.81416224856331     -1.26797893861075     -1.20933657082419
  N   1.28826945580851      0.57541365818567      0.78437613843426
  O   1.16262656103197      1.60900814678943      0.13412385903148
  O   1.93141074354551      0.44364172260111      1.81814068327912
  N   -1.53530811033970      0.43387416531998     -0.24644651061278
  O   -1.67274158184723      0.46612563616542      0.97297689105317
  O   -2.27217117331330      0.95757882848845     -1.07253775630823
