15

C	-0.390214	0.044941	-1.450966
C	0.0	0.0	0.0
Br	-2.326487	-0.08613	-1.817019
H	1.096617	0.0	0.0
H	-0.068551	0.973145	-1.917285
N	0.273703	-1.039138	-2.256646
O	0.974353	-0.65838	-3.190603
O	0.072353	-2.205185	-1.937503
C	-0.433868	-1.210586	0.819538
H	0.071862	-2.100908	0.449618
H	-0.117555	-1.049013	1.852316
H	-1.515371	-1.367156	0.794813
C	-0.444468	1.23839	0.61374
N	-0.781212	2.239821	1.131745
H	2.608799	0.0	0.0
