15

C	-0.572705	-0.080516	-1.391601
C	0.0	0.0	0.0
Br	0.358439	-1.400445	-2.508638
H	1.093979	0.0	0.0
H	-1.62277	-0.372478	-1.429126
N	-0.514055	1.230098	-2.130019
O	0.451972	1.956097	-1.939561
O	-1.452534	1.455748	-2.89485
C	-0.368096	-1.250476	0.804522
H	0.111528	-2.118981	0.349276
H	0.037525	-1.146258	1.812778
H	-1.448972	-1.415202	0.867595
C	-0.513532	1.188004	0.657171
N	-0.936714	2.146359	1.194284
H	2.620682	0.0	0.0
