15

C	-0.577637	-0.063237	-1.391676
C	0.0	0.0	0.0
Br	0.374525	-1.336254	-2.542297
H	1.093934	0.0	0.0
H	-1.620722	-0.376948	-1.429076
N	-0.553809	1.263587	-2.099185
O	-1.534166	1.514911	-2.803338
O	0.425785	1.979959	-1.943739
C	-0.365678	-1.262815	0.786005
H	0.102314	-2.125608	0.308437
H	0.053617	-1.18046	1.790936
H	-1.447167	-1.42156	0.858625
C	-0.510877	1.177818	0.676126
N	-0.937893	2.125389	1.22898
H	2.619528	0.0	0.0
