15

C	-0.362023	-0.019306	-1.461644
C	0.0	0.0	0.0
Br	-0.034386	1.660011	-2.358229
H	1.096271	0.0	0.0
H	0.231795	-0.780897	-1.965551
N	-1.79979	-0.408531	-1.671254
O	-2.677002	0.400383	-1.389338
O	-1.988334	-1.572058	-2.034842
C	-0.367025	-1.320595	0.677171
H	0.093852	-1.331603	1.667011
H	-1.442156	-1.473297	0.77709
H	0.060184	-2.144417	0.104573
C	-0.533699	1.130834	0.725714
N	-0.934294	2.017911	1.384137
H	2.610829	0.0	0.0
