15

C	-0.585639	-0.030024	-1.389163
C	0.0	0.0	0.0
Br	0.323051	-1.314887	-2.559971
H	1.09399	0.0	0.0
H	-1.637691	-0.313747	-1.424685
N	-0.528519	1.304887	-2.080007
O	-1.503177	1.589577	-2.778931
O	0.469118	1.993604	-1.915848
C	-0.373463	-1.273194	0.76478
H	0.034369	-1.204876	1.775354
H	0.099252	-2.129386	0.280307
H	-1.455608	-1.433291	0.823685
C	-0.501909	1.17045	0.697838
N	-0.91626	2.114151	1.266417
H	2.626466	0.0	0.0
