15

C	-0.590074	-0.013491	-1.38881
C	0.0	0.0	0.0
Br	0.252444	-1.349237	-2.540975
H	1.095665	0.0	0.0
H	-1.656874	-0.235092	-1.419758
N	-0.456901	1.315646	-2.076847
O	0.624347	1.881981	-2.021679
O	-1.462291	1.721966	-2.660838
C	-0.381173	-1.267847	0.766137
H	0.100218	-2.12504	0.293689
H	-1.461527	-1.431101	0.816508
H	0.015864	-1.188386	1.77983
C	-0.490841	1.178612	0.691208
N	-0.878272	2.129032	1.267773
H	2.638248	0.0	0.0
