15

C	-0.359595	-0.017666	-1.462928
C	0.0	0.0	0.0
Br	-0.027822	1.659642	-2.359141
H	1.096177	0.0	0.0
H	0.237105	-0.777701	-1.968203
N	-1.796899	-0.413512	-1.671072
O	-2.678172	0.392224	-1.389949
O	-1.981191	-1.577669	-2.036346
C	-0.367023	-1.322083	0.677238
H	0.09093	-1.332142	1.668886
H	-1.445165	-1.475441	0.775952
H	0.064438	-2.148586	0.107214
C	-0.534472	1.133536	0.725969
N	-0.937568	2.02158	1.38394
H	2.612472	0.0	0.0
