15

C	-0.398248	-0.010103	-1.447363
C	0.0	0.0	0.0
Br	-2.318984	-0.312708	-1.806734
H	1.098688	0.0	0.0
H	-0.160327	0.932054	-1.934722
N	0.358902	-1.047358	-2.232514
O	0.249597	-2.222077	-1.901766
O	1.044842	-0.619403	-3.156718
C	-0.412034	-1.190107	0.859871
H	-0.009129	-1.032926	1.86305
H	0.031738	-2.099885	0.459069
H	-1.497101	-1.306762	0.919679
C	-0.454093	1.250341	0.579245
N	-0.800897	2.264578	1.06498
H	2.594448	0.0	0.0
