13
Coordinates from ORCA-job run
  C   0.79195994606816     -0.01863374492043      0.04525176627432
  C   -0.57332911942994      0.10142939226918     -0.02286259397457
  C   1.63593209335087      0.60211643470719      1.00118916273071
  N   2.39587304455919      1.06129554003928      1.77405907824394
  N   1.48753609280477     -0.92215640931271     -0.86858409212758
  O   2.70488531329836     -1.00992936541339     -0.75039661594856
  O   0.81548719169696     -1.51749119512718     -1.71862410001030
  N   -1.44086768937310     -0.44808103726031     -0.87533047915581
  H   -1.09836004094591     -1.16473654840335     -1.49698334920221
  H   -2.41460347524104     -0.40319172166441     -0.60938173877746
  N   -1.25661615716387      1.01460618439733      0.94294093023217
  O   -2.44374385371103      0.77461575591367      1.15069284937003
  O   -0.60515334591341      1.93115671477514      1.42702918234532
