13
Coordinates from ORCA-job run
  C   0.80569410351100     -0.00938962554341     -0.16393424005947
  C   -0.53528594016740      0.16427124389383     -0.01342705915833
  C   1.49791530920099      0.76744539428120     -1.12630880864860
  N   1.96400008163213      1.46329921782012     -1.95421383222196
  N   1.57689368202849     -0.98452849850278      0.59414211762725
  O   0.95647640977132     -1.86390822819652      1.18344925739488
  O   2.79646774960891     -0.84866007530773      0.55946061880828
  N   -1.30128093537786      1.05393758174564     -0.67325259760899
  H   -2.29539578744445      0.88586626628751     -0.69778975866269
  H   -0.90659036056608      1.53382880905218     -1.46863361029204
  N   -1.31046669474789     -0.56358526570450      1.01086165319783
  O   -2.13968748919483     -1.35600986686069      0.57591143842464
  O   -1.10874012825434     -0.24456695296485      2.17373482119920
