13
Coordinates from ORCA-job run
  C   0.80352033694253     -0.06906624418872     -0.00295021394154
  C   -0.53470142542471     -0.03177950854958      0.23884209231705
  C   1.64579566833910     -0.87569059806325      0.79500440470333
  N   2.28366901906207     -1.62060384804120      1.44820922521231
  N   1.42617710574867      0.58472106032916     -1.16318111217665
  O   1.05194650970992      0.20789768303579     -2.26898908775930
  O   2.30821762067615      1.39903601125664     -0.91232361035758
  N   -1.18029264515002     -0.63437931901684      1.25747588604850
  H   -2.18013441571581     -0.73697481161445      1.15687503066196
  H   -0.69510050249118     -1.38202437661632      1.73262805739165
  N   -1.41541259120455      0.83475192522143     -0.56816512312357
  O   -2.59273926886618      0.48790923365813     -0.63789859591331
  O   -0.91994541162598      1.83520279258922     -1.07352695306286
