13
Coordinates from ORCA-job run
  C   0.78120740518069     -0.10403929348559     -0.09408463509524
  C   -0.54965283241105     -0.09596558298578      0.19293585406906
  C   1.64607332853488     -0.93677889178561      0.65315847579926
  N   2.30138723991946     -1.65601059679442      1.31873647676197
  N   1.42562601543268      0.68023140426193     -1.16130929965977
  O   2.11343327820898      1.62263594100120     -0.78525481502779
  O   1.26952323892775      0.28280985453729     -2.30846609320690
  N   -1.17855213397411     -0.92473043079931      1.05293169051642
  H   -0.61933463147749     -1.50803088040133      1.65608600508615
  H   -2.08737124807227     -0.63862429825371      1.38110589810740
  N   -1.46844824536497      0.85217674206092     -0.47831827257377
  O   -0.97680287723708      1.65898056759620     -1.25952091218463
  O   -2.65508853766747      0.76634546504821     -0.16900037259217
