13
Coordinates from ORCA-job run
  C   0.80623347554819      0.00314796826994     -0.14855459993251
  C   -0.53997244100430      0.16242014567085     -0.03727729976087
  C   1.51194668201936      0.72669584526174     -1.14075979317000
  N   1.98781966220344      1.36881985037477     -2.00611623346786
  N   1.57109483321014     -0.93734658320541      0.66352791207968
  O   2.76333449544185     -0.67754729063804      0.80048450033498
  O   0.97819225226565     -1.91290355025888      1.11229043462658
  N   -1.31161234406591      0.98194849466335     -0.77730564353411
  H   -0.92337964920869      1.35780685310798     -1.63042928385063
  H   -2.30436534829656      0.80522040073154     -0.76917089776531
  N   -1.30893928615956     -0.48399920250709      1.05010183633749
  O   -0.93136075981240     -0.27827390530436      2.19445361691711
  O   -2.29799157214122     -1.11498902616640      0.68775545118546
