13
Coordinates from ORCA-job run
  C   0.78571065909608     -0.06190202981490     -0.09499919366776
  C   -0.54788832575533     -0.14594191900518      0.16498442491671
  C   1.66655608415170     -1.00756259391411      0.47859962413921
  N   2.33606656933426     -1.83349186623507      0.98794728775602
  N   1.41778893538255      0.93928975514712     -0.97171501641725
  O   2.03517730294529      1.83168288224740     -0.40215114202705
  O   1.32266683464139      0.75022993389283     -2.17760191496459
  N   -1.16225712451700     -1.14150545138631      0.83908791968262
  H   -0.59291233829831     -1.80394501242792      1.34251593474438
  H   -2.08793503365138     -0.95100720965064      1.18914136381468
  N   -1.48680653086050      0.88315877982551     -0.33670168288144
  O   -2.67629888679690      0.69852795113699     -0.08839183562988
  O   -1.00786814567183      1.84246678018426     -0.93171576946566
