13
Coordinates from ORCA-job run
  C   0.76752327604400     -0.15396901197803     -0.24368189446244
  C   -0.46925287286308     -0.04435835672558      0.31046985559743
  C   1.74492024249047     -0.96137356934185      0.38817380548438
  N   2.47948246057365     -1.64404278835895      1.00607068654795
  N   1.16611132332288      0.55329910802874     -1.45691902524492
  O   0.59687184646205      1.61046641001456     -1.70757360882989
  O   2.06560187149297      0.03160718086094     -2.10926969627543
  N   -0.90121327246254     -0.65539901465412      1.43211171861630
  H   -0.21027154065153     -1.06234255576009      2.04584068790920
  H   -1.71616574539875     -0.25829517440216      1.87501043412940
  N   -1.55959328862127      0.69415495823341     -0.36294909069542
  O   -2.13731798600734      1.52513877309065      0.33263212556472
  O   -1.82669631438151      0.36511404099247     -1.50991599834127
