13
Coordinates from ORCA-job run
  C   0.79815784763946      0.00103950026296     -0.10682437357569
  C   -0.51653649651280     -0.14728135789936      0.22249315738955
  C   1.75839880526847     -0.84262798094128      0.50812221890712
  N   2.46764512133640     -1.59886573299221      1.06837889370357
  N   1.33274637521996      0.99225854839315     -1.04430539634487
  O   0.85318185632199      1.02605853793716     -2.17151770043722
  O   2.27076822324065      1.66225270159997     -0.62302763103449
  N   -1.02615605351765     -1.09980138892628      1.03465507111786
  H   -0.49542874314777     -1.94204968146299      1.20919243579146
  H   -2.03521264689850     -1.18010387947805      1.00023302519033
  N   -1.54069394001174      0.80711704239428     -0.25333626856422
  O   -2.70190245064932      0.39315686070357     -0.27193795409248
  O   -1.16096789828915      1.92984683040908     -0.57112547805091
