13
Coordinates from ORCA-job run
  C   0.77841071405979     -0.06641846241080     -0.22625608631070
  C   -0.48022668432747     -0.09474108809122      0.28823538795535
  C   1.73606194482066     -0.98325430517383      0.27170807049588
  N   2.41792295497496     -1.80513853746382      0.76812733663952
  N   1.21528464738155      0.83730732080805     -1.29229668153906
  O   0.88808667276848      2.01579694155120     -1.20555978284746
  O   1.91860460642555      0.32983593733534     -2.16054732666560
  N   -0.92276629188786     -0.93089508116941      1.25271877402383
  H   -1.76007653894751     -0.63494045617767      1.73291353201447
  H   -0.23317640207759     -1.41148642269910      1.80986484732911
  N   -1.56920353585801      0.72908555653817     -0.27698428225015
  O   -2.41425755954965      1.11727412477420      0.52823961851785
  O   -1.57266452778291      0.89957447217890     -1.49016340736303
