13
Coordinates from ORCA-job run
  C   0.79925601392047     -0.04885403411409     -0.19339696445060
  C   -0.52292660122764      0.19564299141096      0.02216692596235
  C   1.49172464183326      0.71876016250534     -1.16273520949387
  N   1.94888991777984      1.43175211443017     -1.98124792545272
  N   1.54809779700513     -1.06911125598262      0.52308091147164
  O   1.01558056646034     -1.58097410331036      1.50292716468219
  O   2.66307977081243     -1.32749291254356      0.07986005301791
  N   -1.23837317594331      1.19170046111814     -0.52807372602457
  H   -2.24407696581499      1.15567826072467     -0.49268486770797
  H   -0.82160633942400      1.75056251871656     -1.25785357838254
  N   -1.32948735579567     -0.61962442501910      0.95033429223040
  O   -1.61983201118781     -0.08820060595058      2.01461877932018
  O   -1.69132625841804     -1.70883917198552      0.52300414482760
