13
Coordinates from ORCA-job run
  C   0.81795603892806      0.03928848514067     -0.01615576916680
  C   -0.53375430350571      0.16602502497921     -0.08806199787139
  C   1.64331870447057      0.98162934072366     -0.67690590476782
  N   2.22940656201886      1.81013306288267     -1.27491662796891
  N   1.48327536472411     -1.05772752747101      0.68209592510929
  O   2.60183726042767     -0.81014891873959      1.12306726429795
  O   0.89096932070862     -2.12983326215896      0.74475775696474
  N   -1.21540906351796      1.13695161957582     -0.72941349354905
  H   -2.18217138316998      0.93854971604847     -0.94043642140996
  H   -0.71598545553615      1.69917568859232     -1.40348563475947
  N   -1.43623306541383     -0.72384994111891      0.67518512142978
  O   -1.22392659058157     -0.83519115589608      1.87435013495152
  O   -2.35928338955268     -1.21400213255827      0.02991964674013
