13
Coordinates from ORCA-job run
  C   0.78500491854106     -0.10544267785920     -0.21799525986137
  C   -0.53769429426816      0.15552889631128     -0.03043337421455
  C   1.47112417562852      0.54226025572389     -1.27589810829139
  N   1.91924978625767      1.13535390366110     -2.18938757922163
  N   1.55574530111533     -0.99426951881173      0.63863963911767
  O   2.75959306896386     -1.05114595988267      0.40797901144549
  O   0.95032445995296     -1.60652960243184      1.51257213316340
  N   -1.30926022544780      0.92245701490715     -0.82491102208190
  H   -2.17308435417727      1.28037521838904     -0.44808234148496
  H   -0.85604698014949      1.49243990314352     -1.52499262194831
  N   -1.31420851780106     -0.45855925294217      1.06114771537156
  O   -1.35429909688384      0.18495138879516      2.10353243223438
  O   -1.89644824173175     -1.49841956900352      0.78782937577161
