13
Coordinates from ORCA-job run
  C   0.82077927793042     -0.05847806759070     -0.07972503795718
  C   -0.52515322098565      0.16079981279849     -0.06506096203373
  C   1.62357441593056      0.83959633736584     -0.82604435228490
  N   2.10603603998606      1.69743502228080     -1.47143856041249
  N   1.47203031804006     -1.14216683099209      0.63267348504162
  O   0.76913826381093     -2.07919328549659      1.00183372198057
  O   2.68597329228617     -1.03227894553969      0.77946107459275
  N   -1.14657189853025      1.16860084717130     -0.68853564965649
  H   -0.60786863121225      1.77595531886761     -1.28350306624314
  H   -2.13851074029758      1.13857834450950     -0.85014380894229
  N   -1.44688793286488     -0.64506105505492      0.75508488383904
  O   -1.33099021038763     -0.53042548726071      1.96663151671656
  O   -2.28054897370596     -1.29236201105883      0.12976675535966
