13
Coordinates from ORCA-job run
  C   0.77852269841507     -0.07192027558334      0.13679370020970
  C   -0.55156431157602      0.15233142604181     -0.11328893025347
  C   1.52541268360415      0.54272802485032      1.17517624886733
  N   2.17374194372709      1.05129827632087      2.01748780979710
  N   1.50070954687520     -1.09903129416739     -0.60305243248966
  O   2.64002717627171     -1.35863193948677     -0.23280306849684
  O   0.94075735086946     -1.61209439870461     -1.57929873186626
  N   -1.33645940768996     -0.35425888274217     -1.06874226377326
  H   -0.94526256948809     -1.09949285053766     -1.62748941266345
  H   -2.33210495499848     -0.28655960444508     -0.91646088639167
  N   -1.27798741804800      1.13945373201844      0.73135788597261
  O   -2.47349939889648      0.91082209898514      0.90084037074506
  O   -0.64329333906566      2.08635568745044      1.17947971034282
