13
Coordinates from ORCA-job run
  C   0.81470744987297     -0.04135953642851      0.14501577441761
  C   -0.54695097826827     -0.00909832705799      0.09823536813285
  C   1.66761198679042      0.93295639112254      0.71671223824616
  N   2.38386301358295      1.75043536070603      1.17063174402097
  N   1.47083460124126     -0.94910092797103     -0.81950416586252
  O   1.09658414479580     -2.11953759011745     -0.82067984620877
  O   2.26692029267282     -0.43478227963947     -1.60325040634640
  N   -1.37777246360952     -0.80032486581493     -0.61392043250228
  H   -1.05348375324696     -1.12801049789047     -1.51195045887709
  H   -2.34747508649532     -0.51464580854176     -0.58301080460829
  N   -1.26975765675758      0.89361874484614      1.03808110060440
  O   -0.65848951050550      1.29481671691804      2.02101958442274
  O   -2.44659204007305      1.12403261986887      0.76162030456061
