13
Coordinates from ORCA-job run
  C   0.76402221260459      0.15806263793390     -0.15191267248346
  C   -0.57456640565619     -0.02551188691471      0.09235196398930
  C   1.56888020742224      1.18448745057352      0.40606147951244
  N   2.28678861396659      2.00404453515196      0.85237900074612
  N   1.49413833791517     -0.79937775393376     -0.97794148709674
  O   2.70206040868609     -0.62955948165456     -1.09315849942212
  O   0.85378758184248     -1.71409509544896     -1.50865070514264
  N   -1.40855730756841     -0.95186568997068     -0.38366167622471
  H   -1.00975325033270     -1.71312099765297     -0.91286524427061
  H   -2.29518261764327     -1.05173310952039      0.08779452686450
  N   -1.27699753342222      0.94441640873850      0.98172299192646
  O   -0.84243369628015      2.08784477255163      1.04010765407575
  O   -2.26418655153424      0.50540821014652      1.56777266752570
