13
Coordinates from ORCA-job run
  C   0.78637929905501     -0.03459415035999      0.11253935921653
  C   -0.56347464376611      0.11658070808383     -0.08588576437154
  C   1.55605739218601      0.64951766787095      1.08820364240381
  N   2.23760091064730      1.16978691325165      1.89512530092516
  N   1.53209744226524     -1.02559270242036     -0.65899971537684
  O   0.92002607350212     -1.67302283463388     -1.51585853842689
  O   2.72474037883694     -1.14655016347508     -0.40639020456647
  N   -1.36917469081780     -0.47883700716386     -0.96735234929745
  H   -2.36133316249325     -0.39991467043522     -0.80052092326931
  H   -0.99230795773485     -1.25217934256910     -1.49494671946385
  N   -1.29944466595288      1.11399056185502      0.74736454131058
  O   -0.67602907823252      2.07829619522628      1.17217906856445
  O   -2.49513729749518      0.88351882476976      0.91354230235182
