13
Coordinates from ORCA-job run
  C   0.77624824093990     -0.14159454284451     -0.19473201982283
  C   -0.47571966397003      0.01340067130050      0.31946691596137
  C   1.71707363884095     -0.93669359970891      0.50099172145774
  N   2.42750794590611     -1.61840748226760      1.14748918734137
  N   1.22466963922926      0.46425317386346     -1.44756668657763
  O   0.90642787821856      1.62936758016298     -1.66419093714061
  O   1.95107085425334     -0.23881726613632     -2.14596503428952
  N   -0.88736833678025     -0.37514998304738      1.53314829511818
  H   -1.86141724778559     -0.28953233282629      1.76643044511750
  H   -0.26659307315782     -0.84703676980991      2.17120771552337
  N   -1.55482310366064      0.64557417061538     -0.47317534008433
  O   -1.53317059108055      0.46544347364285     -1.68457818358807
  O   -2.42390618095325      1.22919290705574      0.17147392098346
