13
Coordinates from ORCA-job run
  C   0.79675602304539     -0.04779829624638     -0.04497934613689
  C   -0.53974580539354     -0.10112625827282      0.20434697951270
  C   1.66630299579396     -0.91608726540099      0.65375038975463
  N   2.32482972205727     -1.67713382026196      1.26803553198571
  N   1.44417550556175      0.87110045757602     -0.99858717951021
  O   1.78412694330733      1.95997956733697     -0.55180179157269
  O   1.63910031605205      0.43608418527621     -2.12587803461456
  N   -1.14770338951168     -0.89649111117240      1.10920494634712
  H   -0.64166458213748     -1.65460906518274      1.53760446428864
  H   -2.15280682841997     -0.94673745147812      1.06420773205388
  N   -1.48439512586524      0.77809336515201     -0.52193607911781
  O   -2.67476648387410      0.64733922903933     -0.24117180858974
  O   -1.01520929061575      1.54738646363485     -1.35379580440081
