13
Coordinates from ORCA-job run
  C   0.81209245476291     -0.00346149878432     -0.02950012625632
  C   -0.52376172573067     -0.15861314298408      0.17340026572764
  C   1.72338842940741     -0.85057365175745      0.64436716014743
  N   2.40623948813729     -1.60962552876631      1.23271875895127
  N   1.38664035608035      0.98410757110238     -0.94789664643693
  O   2.33166197456841      1.63010071433105     -0.50724966256437
  O   0.90870795132424      1.04567001004592     -2.07501990224390
  N   -1.11291567366680     -1.08344615696577      0.95491219698140
  H   -2.10966118973014     -1.19620588709517      0.85113214538567
  H   -0.57838641265261     -1.88518839101742      1.25135509583403
  N   -1.49882483657539      0.80548517033901     -0.39206009104622
  O   -2.61307775380113      0.35337885615801     -0.64410692973292
  O   -1.13210306212386      1.96837193539416     -0.51105226474679
