13
Coordinates from ORCA-job run
  C   0.75940202967373      0.15047446104007     -0.18024230286788
  C   -0.57237796275594     -0.01622387750645      0.10674855549783
  C   1.59931099754055      1.15130100092546      0.37232968583368
  N   2.34702907388474      1.94300471324469      0.82010010517625
  N   1.44653207445709     -0.80603687325209     -1.04403617023770
  O   0.77437074946172     -1.70518550131584     -1.56171525885972
  O   2.65120559961025     -0.64979679321157     -1.20192416702438
  N   -1.43884908067285     -0.92242837999394     -0.35122595300595
  H   -1.06737138467482     -1.69130240505860     -0.88906672752469
  H   -2.30237391289255     -1.02114058098525      0.16202848439687
  N   -1.22746362684533      0.95498327795442      1.03154859311585
  O   -2.19245277676933      0.52048267784783      1.65651595229072
  O   -0.77796178001726      2.09286828031128      1.08093920320912
