13
Coordinates from ORCA-job run
  C   0.79405208608736      0.02041009198633      0.01635419294380
  C   -0.57524683899841     -0.02461861364190      0.09093563471874
  C   1.62146975559745      0.95910867831113      0.68399173920661
  N   2.35238447453047      1.73540201184527      1.18372300490370
  N   1.50701343844491     -0.87022690686660     -0.89619216088923
  O   0.84598076424140     -1.70361675622763     -1.52629631347711
  O   2.72237907097164     -0.73510155244989     -0.97051255772971
  N   -1.43865342199753     -0.84552375146422     -0.51212544324142
  H   -2.40648084320647     -0.55994489391724     -0.51998410690815
  H   -1.07325608515166     -1.44772584673308     -1.23512838128958
  N   -1.26865344452892      0.93045937032753      1.00418153975390
  O   -0.66968621884208      1.30073550255550      2.00569810150551
  O   -2.41130273714815      1.24064266627481      0.67535475050295
