13
Coordinates from ORCA-job run
  C   0.78888637730910      0.08049992212341     -0.05460952587143
  C   -0.58057266099924      0.03302722438319      0.02957575594786
  C   1.63043880332894      0.93465177467726      0.70347388023434
  N   2.37754838917765      1.60338005824988      1.32068124452668
  N   1.50136822044870     -0.85791271811279     -0.91744347320827
  O   2.72533046703803     -0.80699621023920     -0.90619508256736
  O   0.83089806768189     -1.63633279372383     -1.60505948851465
  N   -1.45064231987867     -0.73035640048969     -0.63432807145222
  H   -1.07789116554932     -1.48137777094947     -1.19602602695378
  H   -2.38929604082523     -0.77393060510771     -0.26625810991014
  N   -1.27130474009153      0.98161176703990      0.95308818721549
  O   -2.36134459226539      0.60504266818960      1.37801702618918
  O   -0.72241880537491      2.04869308395945      1.19608368436430
