13
Coordinates from ORCA-job run
  C   0.79370457205685      0.03293346246060     -0.03111517597124
  C   -0.57011066769572     -0.02013961303099      0.11436352614878
  C   1.64438099282683      1.00515951097109      0.55488115013579
  N   2.39096311246594      1.80129497830491      0.99643346374049
  N   1.47247464466034     -0.91102733250460     -0.91496226844249
  O   2.68527342872753     -0.78759648948557     -1.03639083316775
  O   0.78778266692995     -1.77259580443889     -1.47783450895209
  N   -1.45088572051074     -0.88313429136495     -0.39591258941626
  H   -2.42293910882231     -0.61459503238772     -0.35797915514125
  H   -1.11950041544699     -1.52589185302100     -1.09979294792859
  N   -1.23073097891940      0.98435457876241      0.99881845803657
  O   -0.58394576447615      1.43843093319964      1.93403479770076
  O   -2.39646676179614      1.25180695253507      0.71545608325729
