13
Coordinates from ORCA-job run
  C   0.82517733537502      0.04191948696151     -0.01354490954207
  C   -0.53015491759145      0.13831250587253     -0.10823027918311
  C   1.62863810096326      1.09704312142751     -0.50972983138014
  N   2.17572396714723      2.03805827891148     -0.95915485147336
  N   1.49620880200290     -1.11829423875807      0.55388173104255
  O   2.64346816904449     -0.93667089197204      0.95206485297700
  O   0.87451483719116     -2.17674879223031      0.57500673619992
  N   -1.21142140084258      1.10323313741701     -0.74233157284976
  H   -0.72153492940702      1.87911240425130     -1.16040465125090
  H   -2.21075839762400      1.16417236733631     -0.64452525317677
  N   -1.42306137615379     -0.85336115551760      0.52880271289090
  O   -2.21931058600568     -1.41349606898071     -0.21697587326263
  O   -1.32848960409955     -0.96228015471894      1.74414118900839
