13
Coordinates from ORCA-job run
  C   0.78998910804050     -0.06059582288279      0.08784446322386
  C   -0.57669720555968      0.05436418967741      0.01208976584810
  C   1.63108137946102      0.64986254340112      0.98179720482916
  N   2.37014689855496      1.22203790668363      1.69708707215533
  N   1.49984010239703     -0.94338279923515     -0.83538226224500
  O   0.83820732215848     -1.55636601256612     -1.68082717804018
  O   2.71487430256635     -1.03087976863194     -0.69789977444929
  N   -1.43956058451431     -0.57609022011503     -0.78613199870324
  H   -1.06493062675175     -1.12031757749431     -1.54831846415445
  H   -2.37685811825700     -0.20451008540406     -0.82164551031764
  N   -1.27926135821595      0.96919863966626      0.96543577611796
  O   -0.72133394462132      1.23578296774066      2.02189405590723
  O   -2.38649727525831      1.36089603916032      0.60505684982815
