13
Coordinates from ORCA-job run
  C   0.78976371446760      0.07615927024754     -0.02602283421550
  C   -0.58097529769062      0.02079860777096      0.03792947237913
  C   1.62616393978460      0.92244874824275      0.74596772241997
  N   2.37406684274405      1.58324545382551      1.37016632935030
  N   1.51553906297142     -0.81017765885358     -0.93793133927981
  O   2.73782243894543     -0.73783116263751     -0.93187259342562
  O   0.85426484349745     -1.57414160393257     -1.65064572383806
  N   -1.43668433511875     -0.72680932832419     -0.65819831676195
  H   -2.39413934454355     -0.75786851545167     -0.34645242130719
  H   -1.05777994765294     -1.42442383622157     -1.28125212250652
  N   -1.29082167804318      0.92422372316826      0.99697078133180
  O   -2.39861830879742      0.53804659827483      1.36118688318858
  O   -0.73760193056408      1.96632970389123      1.32215416266489
