13
Coordinates from ORCA-job run
  C   0.78859794582624     -0.06004132841409      0.08659261092940
  C   -0.57973702772314      0.03385373212856      0.02591205411397
  C   1.62475869111079      0.67854642805655      0.96274202745272
  N   2.36356715256781      1.28689497046233      1.64860410206663
  N   1.50543197891204     -0.91366120162470     -0.85679865723867
  O   0.84019187756972     -1.56904509237572     -1.66677882128485
  O   2.72802793510085     -0.92688401964634     -0.77861396999661
  N   -1.44537102047914     -0.60892723788151     -0.76018641007072
  H   -2.38320545144329     -0.23879953731410     -0.80200444335317
  H   -1.06903349293835     -1.15584422839449     -1.52020190465568
  N   -1.27581189819489      0.94054428651768      0.98708717501532
  O   -2.35688511598229      1.38404420786261      0.60639321824150
  O   -0.74053157432635      1.14931902062320      2.06825301878016
