13
Coordinates from ORCA-job run
  C   0.79366519339346     -0.03081737259967      0.05755566685312
  C   -0.57814378680422     -0.02003552642974      0.05330671945771
  C   1.61176661504450      0.65813380299183      0.98867027666227
  N   2.33379150392956      1.22995580759237      1.72193568186321
  N   1.52305471991840     -0.70062169554905     -1.01549774361333
  O   2.74553534890776     -0.62178512484773     -0.99281162032283
  O   0.86642404279070     -1.30500193545650     -1.87092656328511
  N   -1.43964653163915     -0.61823114859814     -0.77256683489969
  H   -2.39033187776005     -0.28028428890026     -0.75044021582311
  H   -1.06779878011934     -1.03458079614473     -1.61311253176843
  N   -1.28249175786650      0.72861371740281      1.13565012988283
  O   -0.74687300471271      0.78430752876834      2.23514477370394
  O   -2.36995168508241      1.20834703177047      0.82209226128942
