13
Coordinates from ORCA-job run
  C   0.79319793286407      0.06983389716321     -0.02935959650781
  C   -0.58159969302278      0.04843412937157      0.01001145597862
  C   1.63279087673369      0.90941302183064      0.74821690086522
  N   2.39372972526273      1.56320185175225      1.36316968035326
  N   1.51101231141342     -0.91087838559761     -0.84258241700441
  O   0.84838924887772     -1.66384156383236     -1.56607899734474
  O   2.73391891256771     -0.91306690898250     -0.75968400980916
  N   -1.43933126490065     -0.71146018657326     -0.67340062667627
  H   -1.06390130017899     -1.48118000945639     -1.20639742971382
  H   -2.38999307356574     -0.72325982354647     -0.33458255214995
  N   -1.29476591786414      1.03302976701274      0.88504011695733
  O   -2.45678955588684      0.74527363708083      1.16587966893001
  O   -0.68665820230020      2.03450057377736      1.23876780612172
