13
Coordinates from ORCA-job run
  C   0.79234032162585      0.05160219127779     -0.02163260148398
  C   -0.58093607075045      0.05337629570063      0.01392716808476
  C   1.64256353786790      0.86688313197368      0.76864530504001
  N   2.40631395583230      1.49374275755569      1.40902133395414
  N   1.50109328788408     -0.91061792536162     -0.86332040842624
  O   2.72485516882768     -0.89920501563333     -0.81404522586750
  O   0.82765716495625     -1.66491825556555     -1.57411861908480
  N   -1.45036811153900     -0.67898833097974     -0.68363694896084
  H   -1.08548066944584     -1.43892951125461     -1.23795065726658
  H   -2.40959336055462     -0.67197403131704     -0.37067497447555
  N   -1.27426168077856      1.02841840098596      0.90994666108684
  O   -2.42477367813719      0.73144358825903      1.22523748962814
  O   -0.66840986578839      2.04016670435910      1.23860147777162
