13
Coordinates from ORCA-job run
  C   0.79651726386209      0.00390180655961      0.03027461897281
  C   -0.57466251317473     -0.01341144824258      0.07897175433056
  C   1.62486247186585      0.94915374356342      0.68775769944793
  N   2.34289334794674      1.73651717504150      1.18863232733881
  N   1.50863749295947     -0.91855750716566     -0.84855308345686
  O   2.72590725233687     -0.79774827102733     -0.91509263927972
  O   0.84538767191917     -1.76418210187734     -1.45982299388875
  N   -1.44248519772031     -0.83017965159511     -0.52231359366313
  H   -1.07791166397382     -1.45844953996805     -1.22297281439735
  H   -2.40535787776197     -0.52976083540249     -0.54840263856221
  N   -1.26680926076161      0.97268085386037      0.96074172103815
  O   -0.67663892149464      1.35768682950713      1.96206640866510
  O   -2.40034006600313      1.29134894674651      0.60871323345466
