13
Coordinates from ORCA-job run
  C   0.78353571804929     -0.01123887817471      0.07754729583520
  C   -0.58465587858084      0.04218279128074      0.04078137308763
  C   1.64856172492402      0.84534929684106      0.80538773873879
  N   2.44162040622761      1.53023145098747      1.33618469330679
  N   1.48809347002279     -0.98936383747897     -0.76396753081911
  O   0.85863244092210     -1.97602281081692     -1.14768462551594
  O   2.66970429801709     -0.76491419149769     -1.00069418766694
  N   -1.41880566960815     -0.61795257808102     -0.78198695989689
  H   -2.38606727171464     -0.62033188484604     -0.50080956634166
  H   -1.04671234906195     -1.45424366272740     -1.20254172394253
  N   -1.29750326510517      1.09625118745730      0.84310549114360
  O   -0.65797892528940      1.70861114264644      1.68714268102458
  O   -2.49942469880272      1.21144197440975      0.60853532104648
