16

C	-0.566754	0.022813	-1.421859
C	0.0	0.0	0.0
F	0.100044	0.943603	-2.211358
H	1.091998	0.0	0.0
N	-0.406998	-1.273656	-1.992035
H	-0.473401	-1.956293	-1.245027
H	-1.08468	-1.449578	-2.719982
C	-2.000291	0.442311	-1.422718
N	-3.159547	0.640154	-1.424113
N	-0.301732	-1.22399	0.694533
H	-1.014122	-1.064893	1.395237
H	0.554948	-1.487102	1.17982
N	-0.391212	1.185019	0.74833
O	-0.432022	1.094824	1.987767
O	-0.537085	2.246617	0.125319
H	2.458801	0.0	0.0
