16

C	-0.337894	0.049851	-1.490288
C	0.0	0.0	0.0
F	-1.704903	0.329744	-1.690085
H	1.090193	0.0	0.0
N	0.45262	1.027456	-2.138919
H	0.548076	0.832875	-3.126632
H	1.373908	1.062627	-1.693974
C	-0.171647	-1.321367	-2.049077
N	-0.031438	-2.379534	-2.540972
N	-0.484157	-1.116906	0.730553
H	-1.370002	-1.472742	0.401974
H	0.224676	-1.837636	0.73837
N	-0.496433	1.278238	0.604568
O	-1.5324	1.239961	1.26823
O	0.166778	2.291203	0.390147
H	2.700395	0.0	0.0
