16

C	-0.382771	0.106082	-1.475896
C	0.0	0.0	0.0
F	-1.699682	0.602023	-1.614908
H	1.091099	0.0	0.0
N	0.526031	0.950904	-2.158348
H	1.440955	0.911779	-1.699851
H	0.609109	0.698918	-3.1333
C	-0.447024	-1.259242	-2.06217
N	-0.464502	-2.271877	-2.657593
N	-0.498462	-1.170533	0.631186
H	-1.403723	-0.992576	1.047811
H	0.150233	-1.434744	1.363535
N	-0.409634	1.268498	0.689902
O	-1.188602	1.183182	1.647828
O	0.091688	2.316258	0.292074
H	2.654996	0.0	0.0
