16

C	-0.298676	0.086526	-1.504565
C	0.0	0.0	0.0
F	-1.625031	0.495676	-1.743936
H	1.090317	0.0	0.0
N	0.606537	0.98193	-2.113955
H	0.726668	0.786084	-3.098294
H	1.509887	0.932095	-1.626692
C	-0.24344	-1.292377	-2.071263
N	-0.162981	-2.345192	-2.58824
N	-0.494344	-1.127807	0.707745
H	0.192409	-1.869446	0.663225
H	-1.397392	-1.447129	0.38689
N	-0.512896	1.263516	0.61277
O	-1.566358	1.205171	1.24808
O	0.143333	2.286346	0.427392
H	2.706004	0.0	0.0
