16

C	-0.347076	-0.066808	-1.477635
C	0.0	0.0	0.0
F	0.063503	1.113081	-2.102301
H	1.099749	0.0	0.0
N	0.369246	-1.194496	-1.977397
H	0.300598	-1.229762	-2.989444
H	1.351293	-1.073837	-1.694954
C	-1.795212	-0.208615	-1.771744
N	-2.932426	-0.340175	-2.036589
N	-0.499424	-1.159875	0.722631
H	-0.401696	-1.948849	0.09361
H	0.160355	-1.31503	1.477707
N	-0.522999	1.200355	0.67828
O	-1.189424	2.029473	0.054914
O	-0.225529	1.291424	1.869672
H	2.692153	0.0	0.0
