16

C	-0.386021	-0.076061	-1.485854
C	0.0	0.0	0.0
F	-0.368258	1.213298	-2.060587
H	1.092099	0.0	0.0
N	0.527106	-0.954895	-2.091414
H	0.476066	-0.904437	-3.100254
H	1.471728	-0.760517	-1.743534
C	-1.789263	-0.528084	-1.67131
N	-2.909958	-0.846551	-1.817024
N	-0.461729	-1.14776	0.700202
H	0.224895	-1.389619	1.403905
H	-1.356709	-0.968543	1.136065
N	-0.480375	1.293618	0.595735
O	-1.453013	1.249955	1.361257
O	0.132416	2.317165	0.305853
H	2.718359	0.0	0.0
