16

C	-0.358469	0.052398	-1.488788
C	0.0	0.0	0.0
F	-1.686082	0.468141	-1.642892
H	1.091201	0.0	0.0
N	0.472005	0.901647	-2.294148
H	1.434811	0.611733	-2.099055
H	0.393544	1.826488	-1.882899
C	-0.282487	-1.324251	-2.034887
N	-0.243938	-2.375123	-2.554941
N	-0.471146	-1.160943	0.669881
H	0.18063	-1.387213	1.412303
H	-1.383658	-1.004438	1.077764
N	-0.398771	1.26813	0.663166
O	-0.913611	1.202874	1.786143
O	-0.126025	2.335033	0.100061
H	2.597149	0.0	0.0
