16

C	-0.511734	-0.06388	-1.430488
C	0.0	0.0	0.0
F	-1.932836	-0.336294	-1.370418
H	1.089608	0.0	0.0
N	-0.224863	1.028547	-2.261335
H	-0.514889	1.884299	-1.80991
H	-0.638599	0.904297	-3.175399
C	0.037999	-1.289779	-2.057996
N	0.39193	-2.261597	-2.611962
N	-0.335374	-1.17057	0.747602
H	-1.097505	-1.700885	0.346859
H	0.499852	-1.736554	0.859371
N	-0.411877	1.215576	0.728634
O	-0.24952	1.216358	1.948973
O	-0.761488	2.228937	0.091659
H	2.51608	0.0	0.0
