16

C	-0.512562	0.003578	-1.444829
C	0.0	0.0	0.0
F	0.210274	-1.006698	-2.102426
H	1.089032	0.0	0.0
N	-1.90708	-0.28446	-1.45826
H	-2.210656	-0.446641	-2.410739
H	-2.015199	-1.13632	-0.916985
C	-0.267135	1.223614	-2.241155
N	-0.152152	2.097761	-3.015035
N	-0.444705	-1.20779	0.64506
H	0.39169	-1.645615	1.033122
H	-1.044366	-0.948384	1.420481
N	-0.430728	1.205075	0.711108
O	-0.964811	1.094972	1.82142
O	-0.149656	2.288037	0.186717
H	2.552563	0.0	0.0
