16

C	-0.542822	0.008023	-1.428391
C	0.0	0.0	0.0
F	0.074529	-1.08995	-2.062646
H	1.089076	0.0	0.0
N	-1.953453	-0.150802	-1.405513
H	-2.129735	-0.96924	-0.829464
H	-2.302667	-0.30687	-2.344451
C	-0.191035	1.167303	-2.273579
N	-0.002354	1.991367	-3.089046
N	-0.436906	-1.214406	0.652066
H	0.413787	-1.714808	0.903486
H	-0.888848	-0.944827	1.520565
N	-0.410205	1.192152	0.727963
O	-0.692806	1.084585	1.93309
O	-0.328656	2.275388	0.136395
H	2.523754	0.0	0.0
