19

C	0.0	0.0	0.0
C	-0.319443	-0.025568	-1.53136
Br	1.975868	0.0	0.0
H	0.395086	0.656802	-2.006207
C	-0.504342	1.291294	0.616949
H	-1.602295	1.251938	0.616919
H	-0.161568	2.165759	0.057207
H	-0.152122	1.377787	1.648005
C	-0.553979	-1.197271	0.740757
H	-0.187076	-2.138918	0.328603
H	-0.282038	-1.144262	1.798428
H	-1.650587	-1.150473	0.657145
C	-1.737016	0.424074	-1.909765
H	-1.786056	1.515861	-1.875064
H	-2.530061	0.060809	-1.226813
H	-1.960178	0.107846	-2.933012
C	-0.02494	-1.35061	-2.086531
N	0.191448	-2.404552	-2.559714
H	-3.857151	0.0	0.0
