19

C	0.0	0.0	0.0
C	-0.605948	-0.027301	-1.405534
Br	1.971327	0.0	0.0
H	-1.707675	0.052683	-1.152986
C	-0.456545	1.266284	0.708126
H	-1.557044	1.22415	0.715538
H	-0.078003	1.289875	1.733475
H	-0.116265	2.163739	0.185976
C	-0.471826	-1.21416	0.78102
H	-1.572508	-1.187211	0.735007
H	-0.089578	-2.149054	0.366583
H	-0.143489	-1.138641	1.821132
C	-0.371069	-1.306839	-2.206947
H	-0.775185	-1.192194	-3.215778
H	0.694583	-1.53971	-2.281701
H	-0.892646	-2.139895	-1.734257
C	-0.216193	1.142544	-2.183466
N	0.075341	2.082422	-2.826837
H	-3.208862	0.0	0.0
