19

C	0.0	0.0	0.0
C	-0.609284	-0.025861	-1.403127
Br	1.971283	0.0	0.0
H	-1.711099	0.055499	-1.147807
C	-0.454818	1.269011	0.704611
H	-0.11154	2.163946	0.180549
H	-1.555057	1.23031	0.710432
H	-0.076879	1.294218	1.73001
C	-0.471082	-1.212094	0.785477
H	-0.087493	-2.147414	0.373881
H	-1.571425	-1.187463	0.739131
H	-0.142656	-1.133623	1.825241
C	-0.379591	-1.306113	-2.203528
H	-0.783643	-1.189775	-3.212073
H	-0.905378	-2.136243	-1.730295
H	0.685048	-1.544675	-2.277921
C	-0.220608	1.140862	-2.185693
N	0.070044	2.07022	-2.844409
H	-3.206051	0.0	0.0
