14

C	-0.537453	0.069996	-1.411503
C	0.0	0.0	0.0
Br	0.189791	-1.433274	-2.455904
H	1.088046	0.0	0.0
H	-1.620041	-0.03746	-1.449687
C	-0.116971	1.285081	-2.100999
N	0.178972	2.254577	-2.694955
N	-0.4437	-1.196296	0.705305
O	-1.355389	-1.876576	0.19974
O	0.148665	-1.467164	1.756096
N	-0.399259	1.153209	0.790095
O	-1.18331	1.971009	0.26606
O	0.111019	1.2723	1.910005
H	2.352498	0.0	0.0
