14

C	-0.39639	-0.026168	-1.456179
C	0.0	0.0	0.0
Br	0.271236	1.56023	-2.391425
H	1.08967	0.0	0.0
H	0.155858	-0.855435	-1.898214
C	-1.819549	-0.191984	-1.714257
N	-2.956614	-0.373462	-1.948876
N	-0.36575	-1.241067	0.654847
O	-0.561757	-1.257554	1.873852
O	-0.317739	-2.251297	-0.070225
N	-0.493598	1.155648	0.742719
O	0.093958	1.419506	1.794124
O	-1.417163	1.820379	0.252086
H	2.356183	0.0	0.0
