14

C	-0.568579	0.039285	-1.401614
C	0.0	0.0	0.0
Br	0.055275	-1.539102	-2.398726
H	1.088018	0.0	0.0
H	-1.656583	-0.021973	-1.395172
C	-0.127618	1.205971	-2.158563
N	0.198179	2.096092	-2.852729
N	-0.442384	-1.193978	0.730487
O	0.233383	-1.528142	1.706218
O	-1.455167	-1.788135	0.322146
N	-0.393257	1.158279	0.773374
O	0.028563	1.228559	1.936523
O	-1.048778	2.048753	0.195683
H	2.362821	0.0	0.0
