14

C	-0.391159	-0.039327	-1.457635
C	0.0	0.0	0.0
Br	0.264285	1.54765	-2.397607
H	1.08965	0.0	0.0
H	0.17148	-0.866003	-1.891863
C	-1.810887	-0.22143	-1.721682
N	-2.944164	-0.41752	-1.961836
N	-0.370316	-1.236027	0.661095
O	-0.592629	-1.241266	1.875518
O	-0.303697	-2.253174	-0.052823
N	-0.500919	1.159976	0.731659
O	-1.432546	1.810836	0.23705
O	0.081972	1.435741	1.782221
H	2.357053	0.0	0.0
