14

C	-0.435831	0.036684	-1.447125
C	0.0	0.0	0.0
F	-1.794132	0.051708	-1.605304
H	1.096293	0.0	0.0
C	0.129391	1.185383	-2.161676
N	0.508987	2.128427	-2.750601
N	0.069445	-1.240605	-2.129873
O	1.191728	-1.187195	-2.614532
O	-0.684872	-2.204063	-2.077837
C	-0.494711	-1.170286	0.696604
N	-0.861419	-2.125249	1.279431
C	-0.419796	1.21458	0.670512
N	-0.6906	2.217067	1.224494
H	2.402248	0.0	0.0
