14

C	-0.347406	-0.088102	-1.481517
C	0.0	0.0	0.0
F	-0.031219	-1.314611	-1.948263
H	1.097728	0.0	0.0
C	-1.750948	0.207579	-1.800703
N	-2.885309	0.403523	-2.043852
N	0.503929	0.938422	-2.268333
O	1.165416	0.51671	-3.199133
O	0.373705	2.095721	-1.897195
C	-0.464416	-1.191242	0.679381
N	-0.773914	-2.179761	1.238971
C	-0.499973	1.194067	0.646787
N	-0.891009	2.152179	1.207789
H	2.411522	0.0	0.0
