14

C	-0.361094	0.003609	-1.480258
C	0.0	0.0	0.0
F	0.055713	-1.147926	-2.044033
H	1.097729	0.0	0.0
C	-1.790883	0.188675	-1.756698
N	-2.944423	0.307535	-1.966651
N	0.358867	1.167335	-2.201957
O	1.207477	0.876081	-3.027707
O	-0.053557	2.283055	-1.894656
C	-0.454397	-1.237765	0.602086
N	-0.719925	-2.26238	1.113195
C	-0.506982	1.14737	0.724145
N	-0.9213	2.053606	1.352318
H	2.427748	0.0	0.0
