14

C	-0.306316	-0.031065	-1.483804
C	0.0	0.0	0.0
F	0.124299	1.114566	-2.05481
H	1.098303	0.0	0.0
C	0.289461	-1.192196	-2.15958
N	0.736768	-2.122686	-2.720355
N	-1.825031	-0.099777	-1.724092
O	-2.33109	-1.213361	-1.631459
O	-2.398358	0.962208	-1.926403
C	-0.447144	-1.187855	0.691869
N	-0.721911	-2.160826	1.294789
C	-0.488638	1.215256	0.612086
N	-0.807367	2.219646	1.137127
H	2.384768	0.0	0.0
