14

C	-0.318604	-0.016859	-1.480944
C	0.0	0.0	0.0
F	0.139137	1.117393	-2.051985
H	1.09835	0.0	0.0
C	0.236275	-1.192938	-2.165571
N	0.659791	-2.123597	-2.744058
N	-1.841896	-0.040093	-1.708527
O	-2.380154	-1.137903	-1.610757
O	-2.38441	1.038382	-1.907787
C	-0.45011	-1.189809	0.686201
N	-0.72201	-2.170132	1.278422
C	-0.476519	1.214637	0.624445
N	-0.78217	2.219314	1.156551
H	2.385584	0.0	0.0
