14

C	-0.371494	-0.002846	-1.468241
C	0.0	0.0	0.0
F	0.180223	1.06629	-2.079158
H	1.098293	0.0	0.0
C	0.015547	-1.243307	-2.151267
N	0.311825	-2.239905	-2.698432
N	-1.901533	0.138795	-1.637539
O	-2.324573	1.248361	-1.931597
O	-2.556249	-0.871557	-1.404015
C	-0.458195	-1.179845	0.701535
N	-0.743489	-2.141985	1.316495
C	-0.457049	1.220495	0.63461
N	-0.769567	2.22855	1.156057
H	2.395599	0.0	0.0
