14

C	-0.333138	-0.097696	-1.474394
C	0.0	0.0	0.0
F	0.154135	0.983308	-2.119559
H	1.098413	0.0	0.0
C	0.174058	-1.331838	-2.089067
N	0.583727	-2.300727	-2.612174
N	-1.859553	-0.085276	-1.687999
O	-2.431385	-1.155155	-1.507447
O	-2.368728	0.993465	-1.960767
C	-0.45088	-1.148059	0.753836
N	-0.726211	-2.097709	1.392598
C	-0.468552	1.249709	0.558886
N	-0.764671	2.283943	1.03676
H	2.386559	0.0	0.0
