14

C	-0.317553	-0.014901	-1.481385
C	0.0	0.0	0.0
F	0.135037	1.123174	-2.049793
H	1.098403	0.0	0.0
C	0.243612	-1.186817	-2.167228
N	0.667941	-2.125573	-2.73185
N	-1.840041	-0.045338	-1.709734
O	-2.38826	1.030768	-1.906944
O	-2.372658	-1.145708	-1.61331
C	-0.450068	-1.190871	0.684754
N	-0.727746	-2.166334	1.282229
C	-0.479419	1.212745	0.625634
N	-0.790532	2.214688	1.159683
H	2.385998	0.0	0.0
