19

C	-0.075089	0.043248	-1.530166
C	0.0	0.0	0.0
Br	-1.935089	0.504674	-2.193957
H	1.094308	0.0	0.0
N	0.818335	1.117846	-1.890633
H	1.002446	1.074946	-2.886829
H	1.694038	0.914139	-1.369668
C	0.29889	-1.273227	-2.192207
H	0.34907	-1.122131	-3.274092
H	-0.40163	-2.080833	-1.982715
H	1.287193	-1.527833	-1.801133
N	-0.537996	-1.252224	0.573272
O	-1.601306	-1.202964	1.202761
O	0.106932	-2.291151	0.41307
C	-0.556291	1.212847	0.70362
H	-0.140559	2.095292	0.218287
H	-1.644912	1.249947	0.663337
H	-0.239488	1.203985	1.749773
F	2.642873	0.0	0.0
