19

C	-0.066567	0.040944	-1.531666
C	0.0	0.0	0.0
Br	-1.924792	0.494827	-2.206143
H	1.094362	0.0	0.0
N	0.825169	1.117967	-1.888214
H	1.009557	1.078337	-2.884835
H	1.700409	0.913991	-1.366902
C	0.318148	-1.273729	-2.192255
H	1.305377	-1.523392	-1.795173
H	0.375717	-1.119852	-3.273304
H	-0.379357	-2.085126	-1.989789
N	-0.541537	-1.248464	0.576367
O	0.086995	-2.294311	0.400106
O	-1.591601	-1.189306	1.226675
C	-0.555629	1.216987	0.69683
H	-0.127428	2.096046	0.215814
H	-1.643809	1.262502	0.643902
H	-0.251719	1.206217	1.746953
F	2.642848	0.0	0.0
