18
Coordinates from ORCA-job run
  C   -0.47333551430750     -0.46179229014209     -0.41764291049975
  C   0.45634481082179      0.26810319564822      0.54448065570006
  H   0.08422731037248     -0.64958762934688     -1.34630534434192
  H   -0.08704422949287      0.49414496482978      1.46396244249932
  C   -1.68980478059326      0.40042148670435     -0.72469517499926
  H   -2.23654769120185      0.62091681826409      0.19578547219627
  H   -1.41848158563410      1.33705665206579     -1.21293771519264
  H   -2.36455288318536     -0.13396264788293     -1.39913725199739
  N   -0.91838229705121     -1.69398744887305      0.23379887981595
  H   -1.73594473779408     -2.05472881871787     -0.24298746396002
  H   -0.19428771650321     -2.39884711509821      0.15822171053577
  C   1.13998936560013      1.50047819025743     -0.02741250643126
  H   0.40784451803004      2.27948488229442     -0.24146025852933
  H   1.67009226438258      1.24916556385442     -0.94890668407504
  H   1.85605921018169      1.90191054165429      0.69253958021008
  N   1.54893784204416     -0.66469706570493      0.98550299569823
  O   2.03207512837521     -1.41409942313902      0.13554275558093
  O   1.92281098595537     -0.58097985666780      2.15165081779002
