18
Coordinates from ORCA-job run
  C   -0.63549201452896      0.03669252268238     -0.57069520195207
  C   0.47206151275643      0.68905759354312      0.26750226787396
  H   -0.88819765391249      0.79595311755381     -1.32217700586267
  H   0.11493406442196      1.65402927507806      0.63212807511313
  C   -1.88102463247826     -0.23717969819859      0.27476107106199
  H   -2.20948341986438      0.65237084408076      0.82049812460947
  H   -2.70234984333305     -0.56614970798739     -0.36671726326111
  H   -1.68770315417584     -1.03129895615662      1.00133014486105
  N   -0.12138586133232     -1.11658004443867     -1.30121752059938
  H   0.12385358379195     -1.85086507902973     -0.64657926662940
  H   -0.84441523759670     -1.47478110844501     -1.91378561301044
  C   1.79888487808828      0.82591305021981     -0.45221046477147
  H   2.52912981885386      1.33544540799847      0.18092611724823
  H   1.65135098991067      1.41523327542207     -1.35968608983512
  H   2.17724591259777     -0.15119262602510     -0.74207553637009
  N   0.66208648962042     -0.11543205792469      1.51863474251811
  O   0.33165721822598      0.39683709761477      2.58652149137985
  O   1.10784734895467     -1.25705290598744      1.39084192762598
