18
Coordinates from ORCA-job run
  C   -0.64662275149629     -0.04465583513246     -0.49248415636351
  C   0.46719958114948      0.65188489277334      0.30541111322943
  H   -0.84150977286360      0.64070229787144     -1.33612023553543
  H   0.07241029924160      1.59444405212913      0.69316054328389
  C   -1.94263701151371     -0.19905728325832      0.29051489698734
  H   -2.73873388445283     -0.53119425650498     -0.38220623854768
  H   -1.82697614578968     -0.93849921058396      1.08335162138848
  H   -2.25119387032871      0.74398085318351      0.74444299094971
  N   -0.18952207464007     -1.36177539305628     -0.91926449863752
  H   0.46585786685979     -1.29254109259510     -1.68742315344739
  H   -0.97717453855013     -1.91099171715463     -1.24014595073214
  C   1.73140401736666      0.88116811339530     -0.49825134725748
  H   2.17129688422333     -0.06368682981138     -0.81349000271350
  H   1.49657084198554      1.48882546389325     -1.37597244910836
  H   2.47853103979308      1.41094432045974      0.09520942573310
  N   0.77663053280399     -0.15326579885047      1.53411601681608
  O   1.73965868747526     -0.91320806967427      1.50930454433757
  O   0.01381029873628     -0.00307450708386      2.48984687961742
