13

C	0.0	0.0	0.0
C	-0.475482	0.027111	-1.445579
Cl	1.766058	0.0	0.0
H	0.028153	0.860388	-1.944154
H	-0.405791	0.858235	0.527344
H	-1.567195	0.127424	-1.377569
N	-0.446503	-1.207233	0.771869
O	-0.561996	-2.259548	0.151048
O	-0.487136	-1.077424	1.990999
N	-0.167081	-1.175519	-2.28142
O	1.00132	-1.539903	-2.402045
O	-1.116951	-1.685169	-2.870556
H	-2.683651	0.0	0.0
