13

C	0.0	0.0	0.0
C	-0.586008	0.052722	-1.373869
Cl	1.761118	0.0	0.0
H	-0.325856	-0.790095	-1.991109
H	-0.361886	0.82006	0.613189
H	-1.767114	0.05899	-0.966368
N	-0.42703	-1.265868	0.696128
O	-0.526036	-1.204332	1.912474
O	-0.515185	-2.2817	0.020576
N	-0.228442	1.24611	-2.060319
O	-0.068697	1.196441	-3.294849
O	-0.16996	2.308408	-1.411402
H	-2.670223	0.0	0.0
