15

C	-0.263391	0.089245	-1.494122
C	0.0	0.0	0.0
F	0.080933	-1.160879	-2.04538
H	1.087795	0.0	0.0
H	-1.308381	0.253657	-1.768818
N	0.593331	1.125968	-1.92789
H	1.524591	0.941637	-1.532601
H	0.626276	1.17565	-2.936793
N	-0.642948	-1.134582	0.688685
O	-1.442635	-1.843118	0.078515
O	-0.339719	-1.27361	1.873607
N	-0.541064	1.222997	0.653947
O	0.246644	2.07774	1.040402
O	-1.772355	1.29598	0.743112
F	2.5486	0.0	0.0
