15

C	-0.48573	0.036737	-1.450575
C	0.0	0.0	0.0
F	-0.174861	1.310143	-1.903696
H	1.088215	0.0	0.0
H	0.133711	-0.671778	-1.999231
N	-1.865205	-0.225372	-1.73065
H	-2.441386	0.211988	-1.023815
H	-2.024367	-1.223552	-1.742815
N	-0.462718	-1.236589	0.640498
O	-0.902717	-1.202378	1.790594
O	-0.342937	-2.263076	-0.032938
N	-0.530516	1.130818	0.801365
O	-1.665959	1.547319	0.540504
O	0.183383	1.58171	1.688956
F	2.475213	0.0	0.0
