15

C	-0.263238	0.007857	-1.517985
C	0.0	0.0	0.0
F	-0.34718	-1.338045	-1.883369
H	1.087691	0.0	0.0
H	-1.217164	0.473536	-1.774755
N	0.821735	0.611732	-2.210007
H	0.65866	1.606793	-2.273605
H	1.676086	0.451874	-1.65713
N	-0.671063	-1.13413	0.666252
O	-1.9044	-1.141348	0.61646
O	0.023338	-2.002311	1.183945
N	-0.487342	1.234952	0.634506
O	-0.564771	2.244417	-0.070613
O	-0.733918	1.204489	1.838309
F	2.54823	0.0	0.0
