15

C	-0.556157	0.035224	-1.403979
C	0.0	0.0	0.0
F	-1.921863	-0.401076	-1.353689
H	1.088081	0.0	0.0
H	-0.620419	1.068843	-1.736375
N	0.217444	-0.727821	-2.298502
H	-0.252265	-0.814064	-3.188118
H	0.436671	-1.630887	-1.907188
N	-0.44361	-1.23657	0.678568
O	-0.047667	-2.279338	0.158111
O	-1.151992	-1.188721	1.679661
N	-0.45322	1.160098	0.801725
O	0.062975	1.284998	1.909258
O	-1.274354	1.950521	0.322803
F	2.463293	0.0	0.0
