15

C	0.0	0.0	0.0
C	-0.314477	0.044546	-1.494402
Cl	1.779507	0.0	0.0
H	0.202297	-0.820166	-1.914041
H	0.178423	0.927954	-1.90526
N	-0.45446	1.269985	0.675516
O	-0.559454	1.242586	1.896058
O	-0.563444	2.27093	-0.025748
C	-0.447799	-1.222727	0.762611
H	0.007494	-1.217148	1.755475
H	-0.104217	-2.108357	0.216476
H	-1.543226	-1.148296	0.790054
C	-1.67889	0.049799	-2.039775
N	-2.512406	0.23379	-2.855584
F	-2.54611	0.0	0.0
