15

C	0.0	0.0	0.0
C	-0.632734	-0.007684	-1.375541
Cl	1.762943	0.0	0.0
H	-0.522983	-1.017283	-1.781968
H	-1.737073	0.126926	-1.089912
N	-0.393126	1.295893	0.720175
O	-0.666166	2.267277	0.027723
O	-0.341723	1.289006	1.945347
C	-0.502327	-1.175957	0.812654
H	-0.151651	-2.097133	0.340583
H	-1.59728	-1.089406	0.776281
H	-0.116351	-1.121912	1.828991
C	-0.105868	0.942389	-2.337696
N	0.308509	1.65559	-3.175277
F	-2.869549	0.0	0.0
