15

C	0.0	0.0	0.0
C	-0.628314	0.135837	-1.372155
Cl	1.760928	0.0	0.0
H	-0.512357	-0.826276	-1.880601
H	-1.732292	0.239228	-1.079825
N	-0.396191	1.214745	0.848933
O	-0.36476	1.077405	2.066502
O	-0.647911	2.256411	0.258352
C	-0.506113	-1.252985	0.683261
H	-0.120782	-1.309357	1.69966
H	-0.158957	-2.120206	0.115707
H	-1.600868	-1.156874	0.654059
C	-0.099239	1.17932	-2.230139
N	0.311098	1.975131	-2.991548
F	-2.866573	0.0	0.0
