15

C	0.0	0.0	0.0
C	-0.381885	0.496016	-1.395342
Cl	1.779208	0.0	0.0
H	0.191619	1.404333	-1.594341
H	-0.003774	-0.263371	-2.09037
N	-0.431199	0.997434	1.052098
O	-0.532713	2.166055	0.698834
O	-0.548022	0.587227	2.199444
C	-0.424505	-1.407842	0.361452
H	-0.069685	-2.077577	-0.425544
H	-1.514081	-1.38238	0.411485
H	0.030078	-1.700606	1.306962
C	-1.783546	0.788124	-1.748775
N	-2.549674	1.250393	-2.520977
F	-2.574174	0.0	0.0
