14

C	-0.514563	0.086416	-1.420266
C	0.0	0.0	0.0
F	-0.263453	-1.134163	-2.058055
H	1.088709	0.0	0.0
H	-1.601875	0.211755	-1.444973
H	-0.363662	0.863223	0.565806
C	0.220303	1.179347	-2.163521
H	1.295777	1.023848	-2.046193
H	-0.036317	2.160097	-1.752849
H	-0.05253	1.161039	-3.221472
N	-0.594705	-1.188612	0.667311
O	-1.829437	-1.240413	0.703749
O	0.146962	-2.037923	1.148291
H	2.968236	0.0	0.0
