14

C	-0.532412	0.227942	-1.408661
C	0.0	0.0	0.0
F	-0.67383	-1.047005	-1.992725
H	1.088332	0.0	0.0
H	-1.539935	0.658745	-1.382528
H	-0.353276	-0.947962	0.402461
C	0.390629	1.046245	-2.278277
H	0.020958	1.062161	-3.307707
H	1.395126	0.622374	-2.234608
H	0.438754	2.06458	-1.891246
N	-0.429875	1.044654	0.921473
O	-0.619904	2.183455	0.467305
O	-0.505858	0.764057	2.122541
H	2.74803	0.0	0.0
