14

C	-0.412344	-0.090509	-1.443902
C	0.0	0.0	0.0
F	-1.819108	-0.036942	-1.571807
H	1.089201	0.0	0.0
H	-0.034204	0.833749	-1.896513
H	-0.371569	0.916737	0.454649
C	0.113279	-1.270894	-2.224814
H	-0.360484	-2.191822	-1.893443
H	1.190232	-1.343129	-2.05087
H	-0.081842	-1.121649	-3.290825
N	-0.46714	-1.089299	0.859373
O	-0.920249	-0.787699	1.970318
O	-0.314621	-2.254072	0.478018
H	2.742545	0.0	0.0
