18

C	0.0	0.0	0.0
C	-0.396362	-0.032918	-1.52379
Br	2.046561	0.0	0.0
H	0.399515	0.584712	-2.022715
C	-0.235743	1.289637	0.684634
H	-1.269061	1.534808	0.859383
H	0.246081	1.325601	1.624509
H	0.169688	2.177382	0.216659
N	-0.390344	-1.143931	0.61574
H	-0.194267	-1.114579	1.592489
H	0.048824	-1.918581	0.306268
N	-1.488341	0.878856	-2.312142
O	-1.553131	2.101511	-2.101037
O	-2.139929	0.23457	-3.127843
N	-0.375878	-1.412735	-1.984301
H	-0.413563	-1.36942	-3.02701
H	-1.26889	-1.80515	-1.789008
Br	-3.437241	0.0	0.0
