15
Coordinates from ORCA-job run
  C   0.98059061680046      0.51405914334766     -0.18067294597923
  C   -0.43136270571871     -0.03965920188730     -0.36225058876190
  Br  1.13184562000141      1.74818586577101      1.27405189673660
  H   -0.40522218307169     -0.64461578369342     -1.27341086900954
  H   1.30888291703844      1.01639324568651     -1.08813652912370
  N   1.89130420140584     -0.68768373072944     -0.01869298031994
  O   2.02550723878338     -1.32889615620501     -1.05824902438675
  O   2.36516652921950     -0.95671100437139      1.07396292256520
  N   -1.30724335800646      1.13648264106241     -0.72431850759000
  O   -2.29288806004310      1.36358664962832     -0.03243472750896
  O   -0.95241385983188      1.77631277829682     -1.71104593929894
  C   -0.97461783828228     -0.82128208030405      0.80950840983109
  H   -1.00609399067278     -0.21485790596085      1.71291448924237
  H   -0.34575622731210     -1.69570359544014      0.98894811889579
  H   -1.98469890031003     -1.16561086520112      0.58982627470791
