15
Coordinates from ORCA-job run
  C   0.99753386924974      0.46028128569884     -0.22489441972790
  C   -0.44369427764509     -0.03043669108979     -0.34827865514071
  Br  1.25155759591084      1.72999999709592      1.18423184480030
  H   -0.47311961619686     -0.66357546335845     -1.24004186086573
  H   1.32252127817775      0.91780040104552     -1.15691142226449
  N   1.85488376341091     -0.77834161982569     -0.05010322535030
  O   2.33913277946997     -1.04119918405616      1.03948572034200
  O   1.93564124597539     -1.45229673414033     -1.07422010966883
  N   -1.27253523250684      1.17517749523574     -0.72351028450243
  O   -0.92033117086851      1.76292672832303     -1.74296025218153
  O   -2.22151337097116      1.47493365150913     -0.00837758698693
  C   -0.98883281970929     -0.74786026019863      0.86289916558349
  H   -2.02116689226863     -1.04676293830491      0.68389294187335
  H   -0.96184578973688     -0.11338916772546      1.74699897843502
  H   -0.39923136229135     -1.64725750020877      1.05178916565471
