15
Coordinates from ORCA-job run
  C   1.04201601244895      0.13037843756448     -0.57411302329019
  C   -0.48174352252063      0.04334110685617     -0.54426340678368
  Br  1.64311904521927      1.72489343739319     -1.45938566613556
  H   -0.81864770750214      0.12298921503602     -1.57901649240486
  H   1.42825139755993     -0.72348181544006     -1.12957895593798
  N   1.66096358992308     -0.00500196898996      0.80690853012431
  O   2.08544271385941      0.97912494049054      1.38698174573732
  O   1.65949942362389     -1.16339823352220      1.21851222218266
  N   -1.05407980751806      1.25100578719931      0.13790742920850
  O   -1.77342234703364      1.98748960586248     -0.53050099854021
  O   -0.77217068516821      1.38697068247700      1.32591059891394
  C   -1.04490279356178     -1.20251837972384      0.11852893087308
  H   -2.13036838838689     -1.20383299812974     -0.00228009498305
  H   -0.80287727495146     -1.23006568976550      1.17867555477056
  H   -0.64007965599171     -2.09789412730790     -0.35528637373485
