18
Coordinates from ORCA-job run
  C   0.56417355971125     -0.31758243784886      0.45577556404623
  C   -0.83600960269298     -0.61350777430712     -0.12765849486808
  Cl  0.88840159572028     -1.61893961374884      1.66672393743415
  H   -0.82786152355602     -1.65924910344426     -0.45652471899097
  C   1.63561211293690     -0.42063852403187     -0.61933204454349
  H   1.55302554605768      0.41015813550208     -1.32381572671518
  H   1.55434114454209     -1.36271782919380     -1.16686059928343
  H   2.62439797990089     -0.37754125798314     -0.15975865208910
  C   0.63174460049793      1.01519587983900      1.18332836147844
  H   -0.09728068030555      1.06114279236128      1.99360106676316
  H   1.62730097518474      1.15300655952120      1.60919082344007
  H   0.44186704231691      1.83754621185360      0.48835875372375
  C   -1.21775710652517      0.27561292673013     -1.31889620122980
  H   -2.22772739751248      0.02759924762890     -1.65016650626822
  H   -0.53983846096870      0.11383096718179     -2.15727483863923
  H   -1.20608241984042      1.33277285771760     -1.04895029726044
  C   -1.86246096714226     -0.49659391227401      0.91228991568096
  N   -2.70384639832509     -0.36009512550368      1.71996965732117
