18
Coordinates from ORCA-job run
  C   0.57425776952174     -0.29980255746475      0.45478421370633
  C   -0.82719760566865     -0.62918683307777     -0.10715662853573
  Cl  0.93240939518105     -1.57223467042884      1.68685466349900
  H   -0.80471885857559     -1.68003703976651     -0.41872786736973
  C   1.63572914406374     -0.40707658529014     -0.62985837273717
  H   2.62852089769389     -0.33843643198936     -0.18218369886479
  H   1.53204455129957      0.40761600658130     -1.35023167962237
  H   1.56421368660991     -1.36145672691451     -1.15712447312012
  C   0.62830378264754      1.04786072942261      1.15566224438513
  H   0.42231254935611      1.85375080774848      0.44603177780039
  H   1.62487392119102      1.20754960073541      1.57138959907847
  H   -0.09559563745785      1.09977534186919      1.97029229966869
  C   -1.23810269370438      0.23332506416311     -1.30809418835240
  H   -1.24449140150901      1.29454868356514     -1.05459591974011
  H   -0.56560534773284      0.07165569296615     -2.15079797337085
  H   -2.24622705480337     -0.03947442603576     -1.62518622649334
  C   -1.84363537020392     -0.51282284523758      0.94256736439976
  N   -2.67709172790895     -0.37655381084617      1.75837486566883
