14
Coordinates from ORCA-job run
  C   0.39632935916320      0.22050819764780     -0.05826232204504
  C   -0.89571582000157     -0.08389417875475      0.17265085431635
  N   0.76625562103266      1.62653460696367      0.18303432634586
  O   1.60149243009661      1.79157655602757      1.06714507334369
  O   0.25762581205033      2.48295679694440     -0.53447759632195
  C   1.54189388868610     -0.62894101136643     -0.48190337967705
  H   2.26794948580733     -0.01393683719297     -1.01704996862546
  H   1.21730189715001     -1.45562789180479     -1.10817911972454
  H   2.03353700478685     -1.04729324439793      0.40070743877945
  N   -1.40700897907366     -1.46062008162683      0.00425086457361
  O   -2.61193469781853     -1.56075843308244     -0.20353374588789
  O   -0.59981127809805     -2.38059461516352      0.08892482281127
  C   -1.88161430372686      0.86321398351600      0.56948026539474
  N   -2.68630042005444      1.64887615229025      0.91721248671696
