14
Coordinates from ORCA-job run
  C   0.44031347847048      0.11405317182417     -0.06378945332843
  C   -0.84723677450142     -0.25607017337058      0.03598707625293
  N   1.10443782206752      0.63378259022601      1.13965661154815
  O   0.53153691192265      1.52186988234220      1.76778772752888
  O   2.21123354635475      0.15758055563970      1.37962645375968
  C   1.27153071395385      0.08853440786671     -1.29535695046652
  H   0.67300190441241     -0.20681522985435     -2.15436980085182
  H   2.10204732016383     -0.60696833733005     -1.16347133105226
  H   1.68049731372035      1.08617661964927     -1.47692863250971
  N   -1.58980836767807     -0.20766123814780      1.31337107015898
  O   -1.13065121464287     -0.87033525042007      2.23559496523368
  O   -2.60896184279492      0.46978472284875      1.30387833429508
  C   -1.60799676579202     -0.74338010082724     -1.06129957341535
  N   -2.23094404565654     -1.17955162044673     -1.96068649715329
