14
Coordinates from ORCA-job run
  C   0.43797837828460      0.03565734522256     -0.00629012151819
  C   -0.89510474801095     -0.13142112679895     -0.06333977327022
  N   1.06795872552737      0.40094097468450      1.27384876019964
  O   1.97950694308307     -0.33520844754046      1.64287661029838
  O   0.68288258598826      1.43680660843279      1.81095268515932
  C   1.40041699335534     -0.06669030536400     -1.13383693616136
  H   2.13176197423597     -0.84767909219318     -0.90607610536735
  H   1.94997335707177      0.87438502216810     -1.23038189452019
  H   0.89787819517793     -0.29850756644529     -2.07242680987590
  N   -1.76400942506972     -0.02299463818710      1.13026638850070
  O   -1.33634363870411     -0.50452333940294      2.16990258116744
  O   -2.84476691801785      0.52498708509129      0.94757283315837
  C   -1.58340542360526     -0.40640919292345     -1.27585939945160
  N   -2.12572699931643     -0.65834332674387     -2.28920881831904
