14
Coordinates from ORCA-job run
  C   0.40918149958634      0.24243079763241      0.03867620731929
  C   -0.90957923688295     -0.02994357219655      0.00154480447151
  N   0.78996241171697      1.66771110295600      0.09173515331288
  O   1.71413803062889      1.98118927586145     -0.65466819208898
  O   0.17834644672975      2.40733397815993      0.85763252215044
  C   1.55916616266121     -0.69881617864941     -0.02268029691426
  H   2.35879604049940     -0.33413781881860      0.62462458978605
  H   1.27168206598006     -1.70390033443996      0.27680027454658
  H   1.94636561036267     -0.74063522508131     -1.04328382303675
  N   -1.36541539916594     -1.43618581478340     -0.08126806163201
  O   -2.29005005566444     -1.73667233904562      0.66570284466286
  O   -0.79030118995180     -2.16845520694181     -0.87991959926051
  C   -1.97545177031433      0.90902072010017      0.05945206548647
  N   -2.89784061618585      1.64106061524671      0.06765151119643
