14
Coordinates from ORCA-job run
  C   0.42907850521842      0.10599192721670      0.00702025666737
  C   -0.86517992212664     -0.24846932007024      0.07200559733259
  N   1.01213383759833      0.45212268468338     -1.29946456298722
  O   1.96537427848661     -0.23542422241143     -1.64900582150737
  O   0.53319215855353      1.41764700550735     -1.88468496286175
  C   1.38251280263100      0.20428301827600      1.14198148613644
  H   2.20162873166354     -0.50082488497904      0.98154883146607
  H   0.89414931164155     -0.01374944506110      2.09125683023050
  H   1.80759627913997      1.21141975650203      1.17826578575049
  N   -1.72384070529600     -0.31838045542987     -1.12980607217798
  O   -1.23262508836045     -0.81491704038633     -2.13527694420604
  O   -2.85827605687213      0.12473337957191     -0.99231554272884
  C   -1.51846542451550     -0.55883246191254      1.29634679138652
  N   -2.02827870776223     -0.82659994150683      2.32312832749921
