14
Coordinates from ORCA-job run
  C   0.41014962887436      0.23321414961792     -0.02592494785620
  C   -0.90932631881187     -0.03352766045047     -0.00212899688301
  N   0.79147605760969      1.66072428994294      0.05242045508170
  O   1.69632923847745      1.92928010690208      0.83808654612955
  O   0.19399299632061      2.44846562308680     -0.67667464772876
  C   1.55983309709856     -0.70456404170436     -0.09050041055907
  H   2.07769827170238     -0.57281877765223     -1.04568541600559
  H   1.24660591847689     -1.74175778542529     -0.01119544482242
  H   2.25994976934701     -0.45876530497839      0.70891541894160
  N   -1.37985607754706     -1.43681626541028     -0.03498184440998
  O   -0.89339614219299     -2.17311146562040     -0.88668608308789
  O   -2.22849641489515     -1.72984286071463      0.80005789475008
  C   -1.95991622558861      0.91578416282845      0.13111102672274
  N   -2.86404379887128      1.66173582957787      0.24318644972726
