14
Coordinates from ORCA-job run
  C   0.40933830239148      0.23530617890609     -0.00192854495453
  C   -0.90239401613371     -0.04527017495209      0.12034326239689
  N   0.78393757977337      1.66118546636964      0.07056594698076
  O   0.33341375941140      2.33433451524037      0.99341275678463
  O   1.54084908578252      2.03935520482824     -0.81983009809575
  C   1.54979786074368     -0.68199794034518     -0.26481295878963
  H   1.32413190966980     -1.70051223515242      0.04135670509035
  H   2.43377733889078     -0.32259851883275      0.26470345244997
  H   1.77642705445310     -0.68591030492968     -1.33352265142809
  N   -1.36967565178261     -1.44647913784113      0.04295933152386
  O   -0.86668048254778     -2.16219716359632     -0.81678224027727
  O   -2.22553978919672     -1.76377011030231      0.86151886808132
  C   -1.94421052266064      0.89527577111666      0.34976111240544
  N   -2.84317242879469      1.64227844949088      0.49225505783205
