14
Coordinates from ORCA-job run
  C   0.40515711631480      0.23006679279669     -0.05163247927342
  C   -0.91095993653917     -0.05012124317692     -0.00393235951489
  N   0.75778510824697      1.66148347033361     -0.10429173056010
  O   1.49503790117258      2.03360529056737      0.80546173116512
  O   0.31720392955609      2.33762058231648     -1.02753156582190
  C   1.57744988417468     -0.68258627870491      0.01072341996396
  H   1.90856633761993     -0.78573330785372      1.04606883131649
  H   1.33126770609803     -1.67110343344905     -0.36962779207767
  H   2.39662330821803     -0.25934922834760     -0.57251758552399
  N   -1.36976682993782     -1.45173936983961      0.10735644097733
  O   -2.37748556746178     -1.73558678815542     -0.52889619978021
  O   -0.71189822449072     -2.20316126134446      0.82046334134672
  C   -1.96055979746036      0.90758395754028     -0.05897550636457
  N   -2.85842093551126      1.66802081731727     -0.07266854585289
