14
Coordinates from ORCA-job run
  C   0.41068938909649      0.23017227910528     -0.01491623091976
  C   -0.90036405555861     -0.03696416842374      0.13307774612110
  N   0.78188443447438      1.66092571448813     -0.06091659093932
  O   1.51869801997023      1.99195290048959     -0.98558447304769
  O   0.34131431801059      2.38817216178739      0.82574871039976
  C   1.55340454850545     -0.70497213039978     -0.17464894612199
  H   1.22584774587656     -1.72939380250065     -0.32971727872700
  H   2.17319398247477     -0.67537494626789      0.72710794745571
  H   2.16196198425317     -0.37278790899546     -1.01654855387598
  N   -1.37041342385340     -1.44022828008098      0.14704998473963
  O   -0.75610241309457     -2.23103796553448      0.85511808976746
  O   -2.34247068466602     -1.68006577918722     -0.56019579434834
  C   -1.94937245166654      0.92040343287129      0.20282704781640
  N   -2.84927139382252      1.67819849264851      0.25259834168003
