14
Coordinates from ORCA-job run
  C   0.41225967042528      0.23574882830347     -0.00149998126682
  C   -0.90309880142140     -0.03074262126889      0.10827823093340
  N   0.79731453526854      1.66349817332678     -0.01857999699912
  O   1.64829739559171      1.97649039283011     -0.84737370990750
  O   0.25963358049691      2.40862969046936      0.79680745155116
  C   1.55057832088480     -0.70760006414273     -0.14364415882572
  H   2.21146512337257     -0.60653406401777      0.72268756399522
  H   1.21858556848890     -1.74024890184934     -0.20422575367797
  H   2.12292908167269     -0.44093213845408     -1.03320239581949
  N   -1.37253258264319     -1.43509478648093      0.08494766902980
  O   -0.82883434965023     -2.22271254329198      0.85161715811697
  O   -2.27838648215489     -1.67515268752520     -0.70564646615188
  C   -1.96042037349401      0.91791293926325      0.17027789143710
  N   -2.87679068683768      1.65573778283796      0.22055649758484
