14
Coordinates from ORCA-job run
  C   0.41025329190401      0.22569058678778      0.03890382405473
  C   -0.91057989882274     -0.02979799908698     -0.00813701111138
  N   0.80071249213445      1.65227291918010      0.00570147049122
  O   0.23020285012028      2.41280269599565      0.78385526335836
  O   1.68806634922193      1.94476181605614     -0.79118188587811
  C   1.55572579926512     -0.71758315304852      0.08814835078194
  H   2.25916393044944     -0.45642010760141     -0.70368430493501
  H   2.07174599837130     -0.60993231626138      1.04717798494628
  H   1.23873287845557     -1.75164855696420     -0.01364108679834
  N   -1.39634681027719     -1.42774631566176     -0.01721993939946
  O   -2.25222323558867     -1.68503036759219     -0.85655020417795
  O   -0.91296949221413     -2.19663350009486      0.80694542999974
  C   -1.94689743707931      0.93640748025043     -0.13361433637872
  N   -2.83358671594005      1.70285681804120     -0.24570355495331
