14
Coordinates from ORCA-job run
  C   0.41171081069753      0.22434983835094      0.03445698469984
  C   -0.91095470479708     -0.02332205185068     -0.00193292597770
  N   0.81164543385268      1.64707657811865     -0.01904083841519
  O   1.69121049023355      1.92347030397800     -0.83015006853487
  O   0.25520912888646      2.42094721066082      0.75604770873269
  C   1.55217440655313     -0.72540500796605      0.08770486375955
  H   1.22671497043043     -1.75877705399278      0.00896554254848
  H   2.24551304757066     -0.48474203751581     -0.71928457185631
  H   2.08155356633886     -0.60196723786226      1.03717879759840
  N   -1.40395738392669     -1.41963686445060      0.00443958639108
  O   -0.92473536095854     -2.18151237957133      0.83757936706592
  O   -2.26343904626980     -1.68060173373536     -0.83014014293274
  C   -1.94310268974660      0.94696932175204     -0.12788479937776
  N   -2.82954266886461      1.71415111408442     -0.23693950370138
