14
Coordinates from ORCA-job run
  C   0.40803307462975      0.23183870092687     -0.04078904767143
  C   -0.90932932172210     -0.03845239749118      0.01719567267300
  N   0.78292248999497      1.66229848477346     -0.00554073061177
  O   0.19468093504347      2.42131412483734     -0.77172059052313
  O   1.67375839100244      1.96068250596975      0.78526067502510
  C   1.56167966926621     -0.70106973815736     -0.10576394707669
  H   2.27970299724280     -0.42687073666016      0.66831740777324
  H   1.25695189526888     -1.73712678291855      0.01234995200363
  H   2.05406267347228     -0.59578674259279     -1.07767172088228
  N   -1.37695764993987     -1.44259803033744      0.03060169951931
  O   -2.21316846554994     -1.71358368307515      0.88531516241298
  O   -0.90043063070789     -2.20169142684369     -0.80669705204162
  C   -1.95755060184219      0.91390946835363      0.14770505215550
  N   -2.85635545615879      1.66613625321527      0.26043746724417
