18

C	-0.278189	0.042414	-1.483693
C	0.0	0.0	0.0
Cl	-1.967487	0.495772	-1.932967
H	1.091056	0.0	0.0
N	0.637037	0.972116	-2.02454
H	0.649137	0.926674	-3.035967
H	1.570351	0.786316	-1.611666
N	-0.016122	-1.345911	-2.140075
O	-0.395582	-1.492298	-3.299024
O	0.693419	-2.123747	-1.51645
N	-0.571075	-1.156747	0.702101
O	-0.173083	-1.340288	1.853553
O	-1.432663	-1.842221	0.144173
C	-0.418157	1.26569	0.725595
H	0.061098	1.268518	1.705633
H	-1.503382	1.329493	0.840644
H	-0.062721	2.124522	0.157375
H	2.651914	0.0	0.0
