18

C	-0.527434	-0.00592	-1.430689
C	0.0	0.0	0.0
Cl	0.429205	-0.977037	-2.570176
H	1.088553	0.0	0.0
N	-1.875684	-0.41521	-1.504928
H	-2.434944	0.110579	-0.845473
H	-2.243664	-0.284836	-2.438901
N	-0.347532	1.471705	-1.943284
O	-1.386401	2.120591	-2.078939
O	0.784163	1.889883	-2.121922
N	-0.434943	-1.25042	0.634126
O	-1.191173	-1.194102	1.61907
O	0.021936	-2.298805	0.172422
C	-0.436469	1.20791	0.804208
H	0.07683	2.089358	0.416333
H	-0.099667	1.062935	1.830626
H	-1.515317	1.382226	0.820524
H	2.589076	0.0	0.0
