18

C	-0.243108	-0.018127	-1.503222
C	0.0	0.0	0.0
Cl	-0.429032	1.784818	-2.123016
H	1.092734	0.0	0.0
N	0.767716	-0.693426	-2.115551
H	1.677235	-0.529942	-1.650851
H	0.762682	-0.684513	-3.122143
N	-1.617944	-0.542866	-1.942887
O	-2.559258	-0.34064	-1.18831
O	-1.675511	-1.086219	-3.038765
N	-0.379521	-1.30859	0.586462
O	-0.289703	-1.412816	1.811638
O	-0.681959	-2.242613	-0.159985
C	-0.508923	1.149452	0.834534
H	0.017805	2.056436	0.548636
H	-0.273763	0.938515	1.874406
H	-1.582252	1.297451	0.719937
H	2.63961	0.0	0.0
