12

C	-0.094113	0.098605	-1.52682
C	0.0	0.0	0.0
Cl	-0.238985	-1.743059	-2.186271
H	1.091955	0.0	0.0
H	-0.387599	0.917135	0.450158
H	-0.479938	-0.886345	0.403088
C	-1.319688	0.675729	-2.090355
N	-2.288343	1.195926	-2.507996
N	1.049587	0.73611	-1.974451
H	1.893216	0.483068	-1.388106
H	1.181205	0.734217	-2.974819
F	2.752218	0.0	0.0
