12

C	-0.101306	0.220996	-1.515053
C	0.0	0.0	0.0
Cl	-0.334356	-1.548015	-2.319061
H	1.089962	0.0	0.0
H	-0.479248	-0.915869	0.331553
H	-0.386011	0.875735	0.526871
C	-1.314535	0.888344	-2.005658
N	-2.285156	1.463466	-2.336795
N	1.06034	0.854097	-1.921456
H	1.189451	0.931029	-2.918868
H	1.900039	0.55095	-1.352006
F	2.75784	0.0	0.0
