15
Coordinates from ORCA-job run
  C   -0.52756488786798      0.18767871561964      0.28621200666052
  C   0.88619653099473     -0.08775287637441      0.79319353207554
  Cl  -1.48788195472935      0.39245143646024      1.87165352134293
  H   0.93246134498135     -1.04379792862225      1.31179925986787
  H   1.23022337299184      0.71870719564754      1.43850273965435
  N   -0.52562258504534      1.34734784487645     -0.51521050947945
  H   -0.13209818508306      2.15493706221247     -0.04962588843285
  H   -1.44497374801130      1.56840684789067     -0.87346054105626
  C   -1.16516646449705     -0.97477332757398     -0.44768625266207
  H   -2.20142922775121     -0.73023882429266     -0.69051441552187
  H   -0.61500082629294     -1.16945316552071     -1.36811534042997
  H   -1.16300680195952     -1.87146277502605      0.17128281231083
  N   1.83768108936346     -0.14908253003992     -0.35340610396812
  O   2.51820394440048      0.85017333704912     -0.57002359470663
  O   1.85797839850589     -1.19114101230615     -1.00560122565483
