15
Coordinates from ORCA-job run
  C   -0.52605164532885      0.18919468485052      0.28804768971154
  C   0.88161509947766     -0.11678080548129      0.79458651183634
  Cl  -1.48961967693945      0.37403130465812      1.87356010302387
  H   1.23450489929423      0.67215348328071      1.45654872246831
  H   0.91099904027108     -1.08321090502577      1.29480541947783
  N   -0.50425431930903      1.36528492613567     -0.48909092467737
  H   -1.41940163422842      1.60806601121352     -0.84412103073828
  H   -0.09972044078314      2.15679605870232     -0.00561331253291
  C   -1.17712230847428     -0.94821143424424     -0.47273441197713
  H   -1.18844055385106     -1.85843583519873      0.12610579403981
  H   -0.62742523488470     -1.13025917880873     -1.39602645843749
  H   -2.20937636503310     -0.68450968725211     -0.71254523199853
  N   1.83678447826634     -0.16978530173237     -0.34948555715425
  O   2.53254137751780      0.82359672684499     -0.54386995112297
  O   1.84396728400490     -1.19893004794262     -1.02216736191877
