15
Coordinates from ORCA-job run
  C   -0.45155813395232      0.06355645022187      0.26707999758280
  C   0.90891422208358     -0.58658879359664      0.02017558779265
  Cl  -0.81628068490160      0.00539949491779      2.03469047626765
  H   0.99468675528408     -1.51772995652392      0.57655583210386
  H   1.04530287147314     -0.75419531387090     -1.04917411069313
  N   -0.39653412959581      1.44812846278523     -0.11167987920210
  H   0.02185073801227      1.56858250192568     -1.02618575457497
  H   -1.31829005074058      1.86518604161879     -0.09234175093600
  C   -1.52288168152701     -0.76853361771784     -0.43111252491809
  H   -1.36337763159833     -0.73238606661818     -1.51275073913685
  H   -1.50825439261572     -1.80893271331509     -0.09927389530346
  H   -2.50876641234440     -0.35518302543477     -0.20988975438574
  N   2.02822351627084      0.29793386417988      0.44258643421980
  O   2.41546639980389      0.20687241839182      1.60286339570581
  O   2.46949861434796      1.06589025303628     -0.41154331452223
