15
Coordinates from ORCA-job run
  C   -0.51379449086433      0.09790518511460      0.16708056140164
  C   0.90338726178186     -0.47703339817145      0.00286556461169
  Cl  -0.81194825199015      0.19464840550106      1.94486292831085
  H   1.17043516377933     -0.47342620842537     -1.05670503670041
  H   0.97478640232724     -1.47891270393285      0.42127989573133
  N   -0.74941894368880      1.39867218513454     -0.38973497683558
  H   -0.00497511288089      2.03909038910358     -0.14302417408663
  H   -0.80870707829394      1.33743337875012     -1.39933106876791
  C   -1.50393287095470     -0.88904460883890     -0.42818753604916
  H   -1.31227707584677     -1.01242433973709     -1.49915620765249
  H   -1.43201761512412     -1.86247023492510      0.05713360820831
  H   -2.51192999756742     -0.49673922341833     -0.29321655621625
  N   1.94010596950456      0.33381473040684      0.69919007398511
  O   2.58526019622225     -0.21113164850622      1.58891751441618
  O   2.07602644359589      1.50061809194457      0.32902540964332
