15
Coordinates from ORCA-job run
  C   -0.45667041945315      0.13060123575608     -0.03670963796864
  C   0.90284361023535     -0.46368609814220      0.30922873115001
  Cl  -0.85999126856299      1.30040646826122      1.34793239280162
  H   1.24948412940387     -1.06727906596557     -0.53292003946396
  H   0.84725179005265     -1.05350971380963      1.22072914414837
  N   -0.45263495844101      0.74800998120819     -1.30791897071961
  H   0.26972686365623      1.45221979126810     -1.38326677937143
  H   -1.35593802767080      1.15035793690494     -1.52169745167036
  C   -1.50989241012369     -0.96259815696868      0.01432350012597
  H   -1.55348569961301     -1.42307522639430      1.00128342035501
  H   -2.49160965639093     -0.53878885580805     -0.20609348643038
  H   -1.27966535760118     -1.71869764457803     -0.73980960829664
  N   1.95905205022357      0.56220804313794      0.55473819307429
  O   2.60573370690045      0.46396707507164      1.59172934973762
  O   2.12479564738463      1.41986423005834     -0.31154875747187
