15
Coordinates from ORCA-job run
  C   -0.53114435577158      0.24686234680332      0.43970247595014
  C   0.91558214594954     -0.07574116860552      0.81494002497287
  Cl  -1.43114728041428      0.17485219676236      2.01309611981559
  H   0.97213668848079     -0.97656793983857      1.41972349941985
  H   1.36298775261314      0.77877492326268      1.32307441852689
  N   -0.61350226201157      1.59509784186213     -0.04748801081506
  H   -1.52292558007600      1.77439633026371     -0.45523878640914
  H   0.10790995286962      1.75671518628005     -0.74071321078896
  C   -1.13108685320652     -0.81783024069628     -0.46891180924065
  H   -0.63981219756771     -0.78757002335646     -1.44524570196884
  H   -2.19414020355917     -0.61576038580983     -0.61325191443254
  H   -1.02484160289162     -1.81934565723555     -0.04780755656307
  N   1.71783907658448     -0.34449574771798     -0.41403691334107
  O   1.92690571482399      0.60894278286242     -1.16637894294016
  O   2.08623900417688     -1.49933044483648     -0.61146369218587
