15
Coordinates from ORCA-job run
  C   -0.52249914382016      0.25355655968358      0.44517075871827
  C   0.92445254177775     -0.08602257546383      0.80517080580473
  Cl  -1.40837064821540      0.18978572608110      2.02487936428069
  H   0.97763964467138     -0.98508100989401      1.41290234770148
  H   1.38658718578996      0.76485888953556      1.30641474047801
  N   -0.59509706004021      1.60588505336492     -0.03625738578052
  H   -1.51672841191639      1.80190649770772     -0.40793982206981
  H   0.09917301605781      1.74687889786131     -0.76133044134305
  C   -1.14170764158432     -0.80215166481013     -0.46134405837035
  H   -0.65979088719908     -0.77216672020681     -1.44233358750030
  H   -1.04079407064203     -1.80631124722581     -0.04497282727148
  H   -2.20418626961788     -0.59001678679528     -0.59481576850217
  N   1.71145464126001     -0.36953278219072     -0.43051629647551
  O   2.09636504222616     -1.52226755495302     -0.60717974347653
  O   1.89450206125239      0.56967871730542     -1.20684808619345
