15

C	0.0	0.0	0.0
C	-0.572202	0.149719	-1.41154
Br	1.947667	0.0	0.0
H	0.238695	0.128708	-2.153479
H	-0.306246	-0.973337	0.366575
C	-0.402196	1.096195	0.982418
H	-1.49436	1.06301	0.999212
H	0.023652	0.871254	1.96352
H	-0.026881	2.069827	0.657687
C	-1.328481	1.379688	-1.618186
N	-1.726049	2.456529	-1.868885
N	-1.412753	-1.043092	-1.81965
O	-1.112617	-2.130972	-1.346291
O	-2.201711	-0.859163	-2.73535
F	-2.578966	0.0	0.0
