15

C	0.0	0.0	0.0
C	-0.473884	-0.135543	-1.439689
Br	1.943048	0.0	0.0
H	-0.010068	0.647228	-2.045207
H	-0.331495	-0.852473	0.58503
C	-0.415115	1.329808	0.617939
H	0.016764	1.428119	1.61603
H	-1.502183	1.317153	0.659558
H	-0.047048	2.158783	0.00627
C	-1.938264	-0.145495	-1.741933
N	-2.653656	-0.199976	-2.68978
N	0.076274	-1.414027	-2.026274
O	-0.094868	-2.444752	-1.382664
O	0.643136	-1.338937	-3.113392
F	-2.627329	0.0	0.0
