15

C	0.0	0.0	0.0
C	-0.572208	0.023471	-1.418639
Br	1.949669	0.0	0.0
H	0.238376	-0.052525	-2.157279
H	-0.305545	-0.937229	0.451592
C	-0.404026	1.176652	0.881472
H	0.024707	1.041536	1.877034
H	-0.034151	2.119573	0.470714
H	-1.49586	1.140522	0.902781
C	-1.343197	1.22258	-1.731471
N	-1.751936	2.257983	-2.108786
N	-1.400839	-1.208446	-1.721789
O	-2.187257	-1.114376	-2.652898
O	-1.094762	-2.247144	-1.152815
F	-2.579589	0.0	0.0
