15

C	0.0	0.0	0.0
C	-0.493681	0.183023	-1.47513
F	1.369313	0.0	0.0
H	0.429505	0.477807	-1.990334
H	-0.386062	-0.883526	0.506561
N	-0.347463	1.168594	0.883179
O	-1.017172	0.957265	1.887677
O	0.110843	2.256998	0.534267
N	-1.493894	1.180894	-1.734869
H	-1.185228	2.086216	-1.406889
H	-2.368936	0.941071	-1.261186
N	-0.960612	-1.081393	-2.028431
H	-0.386714	-1.8478	-1.693266
H	-1.911284	-1.229509	-1.694984
Br	-4.124193	0.0	0.0
