16

C	-0.496459	-0.154966	-1.445498
C	0.0	0.0	0.0
Cl	-0.383784	1.526291	-2.130671
H	1.087773	0.0	0.0
H	-0.35638	0.914899	0.469267
C	0.415966	-1.040926	-2.267925
H	0.335573	-2.064643	-1.900977
H	0.118993	-0.998052	-3.317213
H	1.447898	-0.713721	-2.129555
N	-1.879411	-0.563059	-1.614809
H	-2.467146	0.02278	-1.029156
H	-1.942545	-1.511786	-1.258279
N	-0.420295	-1.089277	0.863782
O	-0.521808	-2.232687	0.388123
O	-0.577502	-0.841753	2.065412
H	2.654584	0.0	0.0
