16

C	-0.389332	0.010004	-1.485241
C	0.0	0.0	0.0
Cl	-0.187272	-1.725635	-2.000858
H	1.090065	0.0	0.0
H	-0.396771	-0.842645	0.560633
C	-1.834625	0.385054	-1.757184
H	-2.000304	1.42585	-1.471571
H	-2.038865	0.270018	-2.822966
H	-2.509397	-0.255426	-1.185541
N	0.50335	0.794853	-2.306681
H	1.453294	0.561674	-2.001088
H	0.361694	1.756628	-2.009775
N	-0.407598	1.205694	0.700399
O	-0.721998	1.106523	1.89407
O	-0.323058	2.294701	0.107993
H	2.659795	0.0	0.0
