16

C	-0.430416	-0.033544	-1.470725
C	0.0	0.0	0.0
Cl	-0.141063	-1.678259	-2.153538
H	1.088986	0.0	0.0
H	-0.358864	0.948463	0.408724
C	-1.896881	0.292139	-1.681793
H	-2.530995	-0.421499	-1.154848
H	-2.12549	0.271264	-2.748531
H	-2.108028	1.291477	-1.286947
N	0.412303	0.88507	-2.211059
H	0.190063	1.82476	-1.89287
H	1.379963	0.705011	-1.921105
N	-0.596559	-1.041221	0.848824
O	-1.645704	-0.754121	1.448907
O	-0.034116	-2.132542	0.926647
H	2.816491	0.0	0.0
