16

C	-0.617883	-0.078796	-1.386296
C	0.0	0.0	0.0
Cl	0.329755	-1.143894	-2.495323
H	1.086837	0.0	0.0
H	-0.307115	0.930408	0.481317
C	-2.046596	-0.615976	-1.391251
H	-2.084882	-1.647152	-1.044769
H	-2.450695	-0.566109	-2.406589
H	-2.663944	0.00772	-0.73369
N	-0.51794	1.263604	-1.947832
H	-0.902944	1.253237	-2.885668
H	-1.082303	1.889082	-1.380344
N	-0.392787	-1.062775	0.899925
O	-0.570405	-0.76734	2.09413
O	-0.386042	-2.229554	0.47555
H	2.586925	0.0	0.0
