18

C	-0.391076	0.022115	-1.467129
C	0.0	0.0	0.0
Cl	0.017893	-1.5187	-2.265892
H	1.089551	0.0	0.0
N	-1.904694	0.151889	-1.657902
O	-2.298017	0.823348	-2.602088
O	-2.607679	-0.469914	-0.871453
C	0.361504	1.127263	-2.173158
H	0.237904	1.036544	-3.250344
H	-0.001162	2.100472	-1.848482
H	1.415545	1.005984	-1.895912
N	-0.42902	-1.147113	0.822576
O	-1.239379	-0.962298	1.732751
O	0.113878	-2.219923	0.55534
N	-0.406967	1.22814	0.683487
O	0.140787	1.428889	1.767935
O	-1.196906	2.008249	0.127329
H	2.444308	0.0	0.0
