18

C	-0.474501	-0.0	-1.43225
C	0.0	0.0	0.0
Cl	0.182726	-1.453913	-2.207044
H	1.089265	0.0	0.0
N	-2.015865	-0.03141	-1.523838
O	-2.561798	0.816738	-0.824936
O	-2.570322	-0.785808	-2.306749
C	-0.024438	1.209325	-2.225681
H	1.059973	1.287954	-2.129689
H	-0.304305	1.061123	-3.271335
H	-0.48586	2.111841	-1.832695
N	-0.456927	-1.192396	0.741511
O	-1.455532	-1.79888	0.339635
O	0.228519	-1.510402	1.711067
N	-0.361219	1.17886	0.787677
O	0.113283	2.246366	0.386031
O	-1.018375	1.038465	1.822891
H	2.432086	0.0	0.0
