18

C	-0.408105	-0.114096	-1.458346
C	0.0	0.0	0.0
Cl	-0.159452	-1.7675	-2.07662
H	1.117499	0.0	0.0
N	-1.912523	0.126652	-1.646872
O	-2.267401	0.735079	-2.64928
O	-2.648727	-0.356318	-0.796449
C	0.415431	0.829712	-2.304234
H	0.152596	1.861195	-2.081763
H	1.463319	0.651393	-2.038339
H	0.24714	0.631876	-3.361179
N	-0.405579	-1.074635	0.923574
O	0.189536	-2.143748	0.776742
O	-1.252528	-0.844394	1.787998
N	-0.368301	1.283415	0.572033
O	-1.026455	2.091136	-0.106166
O	0.11681	1.525394	1.681628
H	2.394449	0.0	0.0
