18

C	-0.464056	-0.212294	-1.420225
C	0.0	0.0	0.0
Cl	-2.209523	-0.599329	-1.541854
H	1.115583	0.0	0.0
N	-0.194859	1.080266	-2.207424
O	-0.845644	1.273244	-3.225574
O	0.753097	1.747727	-1.814942
C	0.351662	-1.265796	-2.145161
H	0.117176	-2.251868	-1.755388
H	1.409547	-1.055165	-1.955886
H	0.115149	-1.219388	-3.209792
N	-0.344732	-1.141043	0.850251
O	0.209211	-2.205393	0.548054
O	-1.111458	-0.990699	1.805634
N	-0.483598	1.226961	0.618101
O	0.048577	1.512953	1.694945
O	-1.315276	1.925916	0.024356
H	2.371451	0.0	0.0
