18

C	-0.567612	0.007075	-1.409398
C	0.0	0.0	0.0
Cl	0.253854	1.278136	-2.364516
H	1.086332	0.0	0.0
N	-0.145387	-1.304706	-2.093241
O	0.901912	-1.810586	-1.719833
O	-0.849785	-1.690395	-3.020477
C	-2.061014	0.193709	-1.524559
H	-2.33361	1.155192	-1.08925
H	-2.562552	-0.607846	-0.984817
H	-2.353167	0.174204	-2.573214
N	-0.447336	-1.106292	0.78042
O	-1.073356	-2.045572	0.232376
O	-0.017985	-1.124482	1.952696
N	-0.359613	1.259409	0.707989
O	-1.408025	1.279464	1.358714
O	0.405575	2.211643	0.562412
H	2.347968	0.0	0.0
