18

C	-0.5838	0.204458	-1.389805
C	0.0	0.0	0.0
Cl	0.479486	1.271535	-2.371624
H	1.116631	0.0	0.0
N	-0.492055	-1.141092	-2.126659
O	0.517968	-1.802634	-1.926176
O	-1.394775	-1.421361	-2.906802
C	-1.997282	0.729103	-1.449865
H	-2.31911	0.814007	-2.486492
H	-2.652725	0.039792	-0.917849
H	-2.014325	1.710136	-0.980425
N	-0.400561	-1.2898	0.590497
O	0.340183	-1.760944	1.447852
O	-1.443979	-1.821564	0.186333
N	-0.324826	1.054603	0.908772
O	-0.461876	0.798025	2.118483
O	-0.269097	2.211066	0.437118
H	2.285011	0.0	0.0
