15
Coordinates from ORCA-job run
  C   0.81915299373766      0.45796105487159     -0.13193719031354
  C   -0.63297316380207      0.00184109930601     -0.23663449548612
  Br  1.07632033546268      1.48237162968315      1.50054878048811
  H   -0.77616075900568     -0.40706940157102     -1.24736871234511
  H   1.03138133189758      1.15035115523104     -0.94686547250996
  C   1.74996566909083     -0.73899009353784     -0.15483223774890
  H   1.56458251435998     -1.37487163847137      0.71095487396839
  H   1.58801510415944     -1.31919899942305     -1.07030856405797
  H   2.79145420956185     -0.41648223930703     -0.13747397814381
  N   -1.53481407850787      1.22245276224290     -0.23766218814148
  O   -2.47570084301587      1.25633263446922      0.54699868154354
  O   -1.23219931860832      2.09621435815900     -1.04063724531122
  N   -1.00251956748551     -0.90898982442129      0.81623833649266
  H   -1.91245131066209     -0.65292281352668      1.18050353450599
  H   -1.05505311718261     -1.84999968370463      0.44947587705943
