15
Coordinates from ORCA-job run
  C   0.61774371480862     -0.11994439807815     -0.75366700808366
  C   -0.82201915948926      0.12777532038401     -0.30809343735473
  Br  1.23252503919868      1.40072615990936     -1.81128568998043
  H   -1.42841627745512      0.40854090795542     -1.17427964167113
  H   0.56731738690831     -0.94449829342828     -1.47128934183074
  C   1.61816287416215     -0.43817524491152      0.34341097954697
  H   1.23911220586725     -1.24173403002869      0.97823452123721
  H   1.79838706886032      0.42880458006575      0.97489038885126
  H   2.56153696889568     -0.75100200682697     -0.10678190751983
  N   -0.90992031595240      1.36552532671120      0.57081641145081
  O   -0.33986320286404      1.34119139563035      1.65495347227397
  O   -1.56594227927340      2.30249377791094      0.11835850507366
  N   -1.30648710014236     -0.99011027838601      0.45088959367356
  H   -2.31751408797794     -1.02727872989504      0.43916019100647
  H   -0.94462283554649     -1.86431448701239      0.09468296332661
