15
Coordinates from ORCA-job run
  C   0.76842082356398      0.38401049641025      0.06797617111461
  C   -0.68982346468335      0.10871005723877     -0.32188358170669
  Br  0.87389863748925      0.86101624050981      1.96014083692091
  H   -0.69878514113477     -0.08656302181924     -1.39841909570380
  H   1.11208664491139      1.26799370534853     -0.47084739166534
  C   1.65585006740894     -0.81293021509093     -0.21205602158247
  H   1.34796094840106     -1.67660614289698      0.37929425385431
  H   1.60122938159103     -1.07181133290158     -1.27454367829645
  H   2.69395150865583     -0.58708110514167      0.03301380149316
  N   -1.43999523408155      1.42241185867712     -0.18418225425615
  O   -2.27224056112087      1.52617487864750      0.70583723389671
  O   -1.10341040077280      2.30178584479931     -0.97484642112849
  N   -1.40223460996357     -0.91989614021572      0.34953813513840
  H   -1.16950614459650     -1.83293944919599     -0.01119119444812
  H   -1.27740245566806     -0.88427567436919      1.35216920636941
