15
Coordinates from ORCA-job run
  C   0.60651672135827     -0.16566505572808     -0.76100265538988
  C   -0.86463617139255      0.11657310090863     -0.37069144890202
  Br  1.26537320816838      1.04441097295142     -2.13955983782479
  H   -1.40819900711666      0.50632780856840     -1.23223577803015
  H   0.58917177446609     -1.13877917935633     -1.25654145615509
  C   1.56070622635360     -0.19670840250458      0.42055736120176
  H   1.15789716971619     -0.82136752787186      1.22443305313523
  H   1.72252642306983      0.80561371533879      0.81884138575171
  H   2.52203512844610     -0.61182965092620      0.11714081069537
  N   -0.84128251544962      1.23176018896584      0.65533485186492
  O   -1.08105306755543      0.94874818386173      1.82615964816304
  O   -0.62099005621481      2.36340315427463      0.22608009865613
  N   -1.57497807900615     -0.98709363374819      0.17003832150401
  H   -1.97158503369880     -1.57168722571856     -0.54857786768666
  H   -1.06150272114444     -1.52370644901564      0.85202351301641
