12

C	0.0	0.0	0.0
C	-0.514141	0.009072	-1.444814
Br	1.956885	0.0	0.0
H	-1.615788	-0.011825	-1.257214
H	-0.289749	-0.946077	0.453982
H	-0.221592	0.94382	-1.935015
N	-0.54526	1.053537	0.798269
H	-0.38089	1.934202	0.316969
H	-1.570266	0.824901	0.704614
C	-0.086116	-1.122127	-2.252692
N	0.245384	-2.046436	-2.898427
F	-2.803976	0.0	0.0
