12

C	0.0	0.0	0.0
C	-0.35878	0.268481	-1.469483
Br	1.951563	0.0	0.0
H	0.330476	-0.299244	-2.100694
H	-0.265279	-1.025671	0.269871
H	-0.144263	1.329196	-1.643213
N	-0.526573	1.014752	0.8524
H	-0.34502	0.744325	1.815056
H	-1.5595	0.839653	0.6684
C	-1.702606	-0.034859	-1.993817
N	-2.480341	-0.286322	-2.842928
F	-2.686315	0.0	0.0
