12

C	0.0	0.0	0.0
C	-0.2899	0.147408	-1.51819
Br	1.962489	0.0	0.0
H	0.112827	1.121667	-1.82187
H	-0.309485	-0.984474	0.34312
H	0.296893	-0.600092	-2.06177
N	-0.53897	0.981236	0.867339
H	-0.373332	1.897217	0.458557
H	-1.571727	0.738641	0.738327
C	-1.657729	0.057795	-2.060596
N	-2.480663	-0.018524	-2.899954
F	-2.681261	0.0	0.0
