12

C	0.0	0.0	0.0
C	-0.513251	0.115883	-1.441042
Br	1.95851	0.0	0.0
H	-0.160998	-0.708834	-2.067423
H	-0.293971	-0.986096	0.356787
H	-1.614278	0.048786	-1.252727
N	-0.533365	0.970033	0.902245
H	-0.360088	1.896298	0.521377
H	-1.558422	0.761456	0.794107
C	-0.16602	1.382966	-2.064773
N	0.111913	2.411178	-2.56122
F	-2.799717	0.0	0.0
