17

C	-0.564646	-0.021513	-1.414265
C	0.0	0.0	0.0
Cl	0.170954	-1.303633	-2.405159
H	1.093594	0.0	0.0
C	-2.018524	-0.196148	-1.430445
N	-3.170558	-0.411597	-1.333248
N	-0.250735	1.318	-2.089074
O	0.927725	1.58921	-2.228213
O	-1.209333	2.01169	-2.416391
C	-0.445528	-1.216352	0.794438
H	-0.191993	-2.146807	0.28187
H	0.10533	-1.204585	1.737828
H	-1.523398	-1.214611	1.006846
N	-0.423702	1.269563	0.587789
H	0.395487	1.678712	1.020983
H	-1.144457	1.144257	1.288048
F	2.586043	0.0	0.0
