17

C	-0.418976	0.083246	-1.471211
C	0.0	0.0	0.0
Cl	0.144893	1.580296	-2.215367
H	1.095697	0.0	0.0
C	0.096537	-1.041983	-2.247577
N	0.508437	-1.94342	-2.879026
N	-1.948559	0.031016	-1.563676
O	-2.578123	1.074857	-1.456983
O	-2.435018	-1.100889	-1.608862
C	-0.455219	-1.2971	0.648795
H	-1.53816	-1.332361	0.82843
H	0.065413	-1.370428	1.60663
H	-0.178919	-2.172562	0.057704
N	-0.444073	1.188905	0.703841
H	0.365378	1.583021	1.165075
H	-1.152776	0.976696	1.393358
F	2.574781	0.0	0.0
