17

C	-0.466544	-0.048194	-1.456476
C	0.0	0.0	0.0
Cl	0.512808	1.024068	-2.457866
H	1.094865	0.0	0.0
C	-0.44141	-1.387387	-2.040349
N	-0.433559	-2.457769	-2.525414
N	-1.939462	0.409206	-1.526664
O	-2.732807	-0.395774	-1.038833
O	-2.218448	1.51113	-1.966716
C	-0.473645	-1.168209	0.845633
H	-1.553262	-1.152785	1.035451
H	0.06153	-1.102583	1.796688
H	-0.214137	-2.128589	0.393991
N	-0.391255	1.303075	0.536618
H	-1.054	1.201146	1.295051
H	0.451135	1.734304	0.896218
F	2.587391	0.0	0.0
