17

C	-0.324378	0.056033	-1.484244
C	0.0	0.0	0.0
Cl	-2.103567	0.117598	-1.851542
H	1.095007	0.0	0.0
C	0.267775	1.240071	-2.101841
N	0.703464	2.2277	-2.565612
N	0.228623	-1.177185	-2.208633
O	1.293126	-1.030916	-2.795072
O	-0.407676	-2.216589	-2.101739
C	-0.556998	-1.210376	0.719217
H	-1.650328	-1.270368	0.669589
H	-0.135171	-2.140064	0.337988
H	-0.261743	-1.102829	1.763497
N	-0.38855	1.241779	0.655497
H	0.368619	1.90397	0.536322
H	-1.247792	1.637123	0.290272
F	2.564165	0.0	0.0
