17

C	-0.451841	-0.093594	-1.458721
C	0.0	0.0	0.0
Cl	0.369561	1.115002	-2.446933
H	1.10158	0.0	0.0
C	-0.218121	-1.411585	-2.04494
N	-0.024976	-2.467212	-2.523718
N	-1.969312	0.14811	-1.533098
O	-2.652618	-0.816443	-1.184021
O	-2.390935	1.257597	-1.817729
C	-0.472667	-1.160669	0.857247
H	-0.231238	-2.127565	0.41044
H	0.072183	-1.092729	1.802553
H	-1.550373	-1.134318	1.060846
N	-0.403643	1.302806	0.516196
H	-1.082943	1.212086	1.263454
H	0.431792	1.74263	0.882992
F	2.580653	0.0	0.0
