17

C	-0.456307	-0.048134	-1.460169
C	0.0	0.0	0.0
Cl	0.39788	1.159487	-2.421042
H	1.095925	0.0	0.0
C	-0.264666	-1.357886	-2.078818
N	-0.107668	-2.406364	-2.585774
N	-1.967093	0.238877	-1.524467
O	-2.67528	-0.706947	-1.175277
O	-2.359063	1.359199	-1.807154
C	-0.475424	-1.181132	0.826902
H	-0.236867	-2.136545	0.355065
H	-1.552869	-1.156509	1.031159
H	0.070286	-1.139082	1.773266
N	-0.399803	1.290304	0.552388
H	0.437688	1.72188	0.923811
H	-1.070555	1.178311	1.302379
F	2.583672	0.0	0.0
