17

C	-0.397397	0.022941	-1.466831
C	0.0	0.0	0.0
Cl	-2.169934	0.186199	-1.730721
H	1.094709	0.0	0.0
C	0.250439	1.126993	-2.171247
N	0.685063	2.020844	-2.796231
N	0.063535	-1.28435	-2.127555
O	1.211956	-1.286268	-2.546479
O	-0.707676	-2.234405	-2.113211
C	-0.5054	-1.214699	0.754627
H	-0.169105	-1.111664	1.789913
H	-0.074877	-2.140041	0.368323
H	-1.598919	-1.304851	0.743611
N	-0.406892	1.283644	0.55363
H	0.34891	1.612616	1.142404
H	-1.25423	1.203378	1.104651
F	2.567791	0.0	0.0
