17

C	-0.405472	-0.023715	-1.462341
C	0.0	0.0	0.0
Cl	-0.100893	1.52094	-2.286494
H	1.098053	0.0	0.0
C	0.31076	-1.075206	-2.182823
N	0.898068	-1.916991	-2.754321
N	-1.914941	-0.294831	-1.649574
O	-2.670451	0.318839	-0.905566
O	-2.258802	-1.104676	-2.505665
C	-0.444055	-1.286127	0.68881
H	0.075288	-1.336573	1.647879
H	-0.157869	-2.174628	0.11954
H	-1.525771	-1.316697	0.873453
N	-0.416187	1.219357	0.665197
H	-1.239756	1.077097	1.236903
H	0.358334	1.519085	1.241725
F	2.585696	0.0	0.0
