17

C	-0.431353	0.163686	-1.459546
C	0.0	0.0	0.0
Cl	0.067517	1.72506	-2.111893
H	1.096208	0.0	0.0
C	0.118946	-0.889	-2.310434
N	0.566412	-1.719379	-3.010654
N	-1.960179	0.060256	-1.544696
O	-2.625042	1.06577	-1.334092
O	-2.40641	-1.079165	-1.690254
C	-0.442367	-1.338392	0.570679
H	-0.165814	-2.174422	-0.075678
H	0.087641	-1.467948	1.517837
H	-1.523921	-1.39209	0.757946
N	-0.445572	1.14094	0.779189
H	0.362189	1.490776	1.27921
H	-1.162986	0.882405	1.444517
F	2.572679	0.0	0.0
