16

C	0.0	0.0	0.0
C	-0.503129	0.073351	-1.444768
F	1.386582	0.0	0.0
H	-1.58944	0.177853	-1.351461
C	-0.403438	1.187696	0.775649
N	-0.55178	2.144173	1.440046
C	-0.407113	-1.2362	0.694825
N	-0.558686	-2.264201	1.242225
C	-0.172047	-1.204801	-2.205889
H	-0.690075	-2.066591	-1.779896
H	-0.499197	-1.093025	-3.242483
H	0.905641	-1.399559	-2.200067
N	0.059549	1.28936	-2.018789
H	0.920964	1.090467	-2.511477
H	-0.602021	1.695013	-2.666014
Br	-3.63077	0.0	0.0
