16

C	0.0	0.0	0.0
C	-0.498776	0.155533	-1.439411
F	1.388037	0.0	0.0
H	-1.582817	0.275317	-1.342228
C	-0.400533	1.143399	0.841158
N	-0.554473	2.064982	1.55152
C	-0.406411	-1.273585	0.623532
N	-0.552525	-2.33339	1.108334
C	-0.191303	-1.089128	-2.264427
H	-0.500323	-0.912007	-3.297081
H	-0.739646	-1.957095	-1.892338
H	0.880258	-1.314523	-2.255945
N	0.086247	1.389559	-1.94733
H	0.970987	1.204116	-2.403613
H	-0.544502	1.809791	-2.616483
Br	-3.620867	0.0	0.0
