16

C	0.0	0.0	0.0
C	-0.562361	-0.257638	-1.419947
F	1.358856	0.0	0.0
H	-1.49373	-0.808732	-1.266763
C	-0.428323	1.287385	0.580253
N	-0.582435	2.336198	1.085797
C	-0.392154	-1.115624	0.894386
N	-0.51677	-2.063886	1.575926
C	0.426235	-1.091247	-2.219644
H	-0.046725	-1.400954	-3.155599
H	0.716657	-1.994731	-1.679343
H	1.322595	-0.51261	-2.450525
N	-0.803845	1.029434	-2.062785
H	-1.701608	1.355344	-1.702853
H	-0.939669	0.863273	-3.055123
Br	-3.566209	0.0	0.0
