16
Coordinates from ORCA-job run
  C   -0.31988248088774      0.31025675980462     -0.37610604656808
  C   1.15291085816784      0.25899694643559      0.11973383964774
  Br  -0.27634407577181      1.29393195426182     -2.07646439049199
  H   1.52544064809398      1.28787687734313      0.19484062655309
  C   -1.17169387213558      1.09769406420561      0.60811286716054
  H   -2.18223671761923      1.21302065360989      0.21331201833629
  H   -1.23170797859020      0.56373186244918      1.56081261220042
  H   -0.75800465779749      2.09309051234535      0.78492717633054
  C   -0.87146372348018     -1.08232351958228     -0.62871521685082
  H   -0.27701420513885     -1.62179210474080     -1.36773944177923
  H   -1.89707477119231     -1.01418852617320     -0.99511622274415
  H   -0.87569624344399     -1.65074800997271      0.30692373733802
  C   2.02696301092550     -0.47955065327060     -0.79760394733851
  N   2.72260610189604     -1.08310197614841     -1.52601672130359
  C   1.21259955991408     -0.35276120671022      1.45389665923956
  N   1.22059854705995     -0.83413363385697      2.52520245027016
