16
Coordinates from ORCA-job run
  C   -0.30210248404061      0.12351869418377     -0.34119154333773
  C   0.99985616520224     -0.21142164887008      0.43393670783023
  Br  0.19520143235808      0.60615160167232     -2.17491934847223
  H   0.69270277290129     -0.48022610117086      1.45541428511356
  C   -0.99445264433379      1.31463775101711      0.30367194645780
  H   -1.91568150351976      1.54373808524317     -0.23436049114384
  H   -1.25169760810734      1.07303689870970      1.34106526132550
  H   -0.36128392525216      2.20306466879174      0.29449946508979
  C   -1.20380275327360     -1.10060237401172     -0.38871723031200
  H   -0.71813553298488     -1.94093490471222     -0.88684276043764
  H   -2.12102052649389     -0.86426514747751     -0.93021833939406
  H   -1.47225712289339     -1.39914301567938      0.63069475794585
  C   1.90132551667739      0.94014052373827      0.53766077108337
  N   2.60148294072584      1.87595361610129      0.65064824986803
  C   1.70537657159082     -1.36690948667853     -0.12862812995680
  N   2.24548870144378     -2.31573916085707     -0.56071360165982
