16
Coordinates from ORCA-job run
  C   -0.31688862954621      0.15232441597895     -0.31526984976132
  C   1.01741054694979     -0.24843073558586      0.36810417352473
  Br  0.09822404588470      0.78213827022692     -2.12470371960350
  H   0.75698515798228     -0.59759243144006      1.37816389621606
  C   -0.97120683496514      1.28832372292956      0.45616111791063
  H   -1.91249214151937      1.56599392289145     -0.02062909672954
  H   -1.18614948595010      0.96161939161935      1.47964356359820
  H   -0.33207916367199      2.17163813990999      0.49398020981012
  C   -1.22769213224502     -1.06143631947468     -0.42056699792521
  H   -2.16860307625409     -0.77859339057168     -0.89507284252616
  H   -1.44825311118792     -1.44348322492074      0.58236613063369
  H   -0.77209450235889     -1.85838967193820     -1.01004459858533
  C   1.93195115502600      0.88739754800334      0.52038602913014
  N   2.64538060913669      1.80708707797330      0.67506672489917
  C   1.68682068945836     -1.35764766165087     -0.31842559979721
  N   2.19868687326092     -2.27194905395078     -0.84815914079448
