17

C	0.0	0.0	0.0
C	-0.604332	-0.229253	-1.372107
Br	2.045797	0.0	0.0
H	-1.710846	-0.174949	-1.03384
C	-0.485682	1.310196	0.571206
H	-0.075752	1.462757	1.574353
H	-1.58159	1.171269	0.580228
H	-0.19666	2.136846	-0.075477
N	-0.378359	-1.089929	0.827369
H	0.171677	-1.920647	0.665589
H	-0.388722	-0.840453	1.8035
C	-0.308846	-1.579573	-1.863224
N	-0.073638	-2.640266	-2.315745
N	-0.26234	0.818997	-2.324135
H	-0.945324	0.816186	-3.072169
H	0.652665	0.641429	-2.725342
F	-2.937246	0.0	0.0
