17

C	0.0	0.0	0.0
C	-0.248455	0.023229	-1.575855
Br	1.960852	0.0	0.0
H	0.522462	-0.625601	-2.010639
C	-0.513084	1.241097	0.701401
H	-0.07566	2.152368	0.293615
H	-0.274611	1.164169	1.764396
H	-1.601895	1.219466	0.56683
N	-0.572473	-1.150801	0.619544
H	-0.439145	-1.954651	0.013492
H	-1.588241	-0.935913	0.60593
C	0.029967	1.375763	-2.107622
N	0.205306	2.434978	-2.590926
N	-1.546453	-0.500625	-1.965859
H	-1.787257	-0.134283	-2.8782
H	-2.283366	-0.234751	-1.264297
F	-3.094053	0.0	0.0
