17

C	0.0	0.0	0.0
C	-0.178736	0.159838	-1.542287
Br	2.122932	0.0	0.0
H	0.508129	0.957424	-1.857771
C	-0.377269	1.257309	0.744788
H	-1.471946	1.280951	0.687787
H	0.071895	2.144234	0.292744
H	-0.052542	1.175275	1.783434
N	-0.565887	-1.137461	0.556407
H	-0.487314	-1.883099	-0.130671
H	-1.602334	-0.827588	0.542231
C	-1.500531	0.618203	-2.01738
N	-2.292823	1.085548	-2.751794
N	0.114183	-1.118514	-2.202489
H	1.115863	-1.266343	-2.145572
H	-0.146051	-1.05292	-3.179074
F	-2.779387	0.0	0.0
