16

C	-0.58717	0.019072	-1.411305
C	0.0	0.0	0.0
F	0.161767	0.896076	-2.170507
H	1.095954	0.0	0.0
N	-0.327473	-1.335832	-2.099916
O	0.806146	-1.78169	-2.001171
O	-1.257099	-1.844605	-2.728227
N	-1.943558	0.340419	-1.445533
H	-2.307262	0.533753	-0.523483
H	-2.484076	-0.313244	-1.990564
C	-0.511999	-1.178661	0.702228
N	-0.952038	-2.105486	1.273604
N	-0.506048	1.211049	0.686085
H	-0.05605	1.994083	0.217914
H	-0.10885	1.195885	1.621314
Br	3.466022	0.0	0.0
