16

C	-0.232252	-0.059834	-1.524236
C	0.0	0.0	0.0
F	0.034474	-1.338905	-1.951502
H	1.09339	0.0	0.0
N	-1.717525	0.150634	-1.871721
O	-2.374147	-0.820595	-2.231907
O	-2.157147	1.287968	-1.71425
N	0.535658	0.923736	-2.158937
H	1.494078	0.864447	-1.804727
H	0.532813	0.799442	-3.16504
C	-0.571951	-1.181759	0.646328
N	-1.07471	-2.095281	1.186979
N	-0.40655	1.217161	0.676935
H	0.332148	1.899177	0.55643
H	-1.254541	1.593788	0.271821
Br	3.405253	0.0	0.0
