16

C	-0.584715	0.030806	-1.403176
C	0.0	0.0	0.0
F	-1.975236	0.06854	-1.279981
H	1.091076	0.0	0.0
N	-0.254738	1.334181	-2.121334
O	-0.925095	1.542505	-3.130929
O	0.662795	2.020753	-1.702004
N	-0.14159	-0.995458	-2.239054
H	0.009867	-1.868894	-1.756536
H	-0.73865	-1.099837	-3.046411
C	-0.422033	-1.273685	0.605701
N	-0.790493	-2.276086	1.096341
N	-0.472893	1.154156	0.753315
H	0.303863	1.517682	1.291207
H	-1.234868	0.910508	1.371758
Br	3.428512	0.0	0.0
