16

C	-0.546957	0.064779	-1.418058
C	0.0	0.0	0.0
F	0.142572	1.030651	-2.118284
H	1.093008	0.0	0.0
N	-0.199686	-1.217539	-2.202008
O	-0.837402	-1.383233	-3.244386
O	0.690089	-1.93938	-1.774712
N	-1.919301	0.325348	-1.464573
H	-2.366177	-0.097516	-2.264081
H	-2.383078	0.140042	-0.588074
C	-0.525543	-1.193463	0.669756
N	-0.998797	-2.114918	1.225985
N	-0.511349	1.191321	0.717566
H	-0.281543	1.992326	0.133173
H	0.075145	1.284376	1.539613
Br	3.45661	0.0	0.0
