16

C	-0.352711	-0.104244	-1.497541
C	0.0	0.0	0.0
F	-1.672536	-0.41658	-1.651242
H	1.094282	0.0	0.0
N	-0.176152	1.290726	-2.094504
O	0.954979	1.591319	-2.450112
O	-1.167626	2.015155	-2.124262
N	0.435384	-1.004772	-2.259025
H	0.243184	-1.945013	-1.928835
H	1.419446	-0.802411	-2.077455
C	-0.455802	-1.25179	0.619315
N	-0.842443	-2.251837	1.098645
N	-0.494392	1.150229	0.725696
H	-1.384798	1.463865	0.361517
H	0.184737	1.896796	0.654587
Br	3.4156	0.0	0.0
