16

C	-0.317946	-0.097414	-1.506589
C	0.0	0.0	0.0
F	-1.610446	-0.488802	-1.748515
H	1.09417	0.0	0.0
N	-0.298705	1.359628	-2.07734
O	0.765049	1.746233	-2.550404
O	-1.327444	2.024949	-1.982908
N	0.585081	-0.948499	-2.129202
H	0.537876	-0.910308	-3.137857
H	1.538002	-0.798532	-1.7966
C	-0.485061	-1.23379	0.627389
N	-0.883256	-2.210902	1.142147
N	-0.475451	1.159337	0.721548
H	-1.387333	1.453713	0.396511
H	0.186768	1.915461	0.606249
Br	3.424244	0.0	0.0
