17

C	-0.320383	0.152662	-1.484905
C	0.0	0.0	0.0
Cl	-0.400524	-1.543744	-2.349278
H	1.098625	0.0	0.0
H	-1.338995	0.502488	-1.683302
N	0.644311	0.996266	-2.058739
H	0.599502	1.031174	-3.067496
H	1.581413	0.746714	-1.726768
C	-0.553165	-1.238786	0.677612
H	-1.637979	-1.330147	0.540055
H	-0.081429	-2.142785	0.294032
H	-0.348066	-1.182359	1.751222
C	-0.46449	1.270176	0.709878
H	-0.088634	2.156033	0.195895
H	-1.560249	1.32662	0.762363
H	-0.071311	1.281514	1.730549
H	3.021221	0.0	0.0
