17

C	-0.355436	0.2135	-1.477832
C	0.0	0.0	0.0
Cl	-0.586759	-1.383192	-2.357388
H	1.098334	0.0	0.0
H	-1.334701	0.69277	-1.593187
N	0.640455	0.976919	-2.175191
H	0.444627	1.964576	-2.083098
H	1.553714	0.781291	-1.756549
C	-0.552516	-1.244742	0.667939
H	-0.304828	-1.222698	1.734155
H	-1.64338	-1.315175	0.569955
H	-0.111933	-2.146539	0.243423
C	-0.427776	1.256915	0.755842
H	-0.009437	1.239187	1.766209
H	-1.520788	1.334571	0.833642
H	-0.047787	2.159874	0.270274
H	3.015977	0.0	0.0
