17

C	-0.487228	-0.003183	-1.439714
C	0.0	0.0	0.0
Cl	0.05704	1.48261	-2.306966
H	1.096095	0.0	0.0
H	0.000798	-0.823549	-1.9662
N	-1.92122	-0.120775	-1.667729
H	-2.214997	-1.029969	-1.329385
H	-2.391918	0.580056	-1.106709
C	-0.407356	-1.315478	0.663774
H	0.108327	-1.39817	1.623934
H	-1.486462	-1.392658	0.84604
H	-0.090655	-2.172064	0.059531
C	-0.482011	1.187509	0.818992
H	-1.571968	1.200367	0.955475
H	-0.172593	2.13025	0.365477
H	-0.02309	1.137403	1.809588
H	3.035666	0.0	0.0
