17
Coordinates from ORCA-job run
  C   0.73191525731791     -0.30739395485065      0.45081834478360
  C   -0.75904304717664     -0.01950768494382      0.23761966600363
  H   0.76409535568239     -1.23484600947465      1.04520096504121
  H   -1.24848681619171      0.04523363664660      1.21216272804484
  N   1.31464784123818      0.84426119668592      1.13840402303881
  H   0.81492423447897      1.05374572138757      1.99667952066566
  H   2.27831187984865      0.64602618032433      1.38013431970124
  N   1.39549460837896     -0.59973681031831     -0.79744410865297
  H   1.47315970450847      0.25463545881928     -1.33780212745211
  H   2.32662547564782     -0.95642494544972     -0.62225525083496
  C   -1.45032832666519     -1.02071478482232     -0.66293351462633
  H   -1.34891664437082     -2.02031291967781     -0.23448064099846
  H   -0.98595497093279     -1.02180943327733     -1.64595026654976
  H   -2.51353465591960     -0.78712017742534     -0.75287048847440
  N   -0.89881985254509      1.36163525177386     -0.32768735915762
  O   -0.52416005124949      1.53411028264773     -1.48607947615389
  O   -1.36692999205001      2.22921899195465      0.40548366562151
