17
Coordinates from ORCA-job run
  C   0.88361201511174      0.24243835394195      0.31980674372928
  C   -0.66280345380559      0.32163878845569      0.23746939297322
  H   1.24666078952569      1.27514723160718      0.44540218343317
  H   -1.04848441928304      0.64875654873752      1.20584695139065
  N   1.56259696005071     -0.30840536894993     -0.82906881528906
  H   1.34571490743990      0.21921584556879     -1.66549492136863
  H   1.26800803789507     -1.26844446658208     -0.96559844091772
  N   1.19795729953422     -0.62801969008204      1.44168262666214
  H   2.20173276779701     -0.76973316738240      1.44712730563645
  H   0.93738718547289     -0.18819606632628      2.31652646419447
  C   -1.32637537971726     -0.95713211538321     -0.22084995274952
  H   -1.01188472112216     -1.76647630162862      0.43877720264236
  H   -1.04654973456880     -1.19370491859212     -1.24629089859549
  H   -2.41347827051038     -0.86547628611948     -0.17734433815919
  N   -0.98539067356979      1.45353927997729     -0.68262519458272
  O   -0.89036200770902      1.24553893651055     -1.89346260077952
  O   -1.25934130254119      2.53831339624719     -0.17090370821991
