13

C	0.0	0.0	0.0
C	-0.472596	0.214318	-1.425626
Br	1.938256	0.0	0.0
H	-0.033281	1.10714	-1.8653
H	-1.56284	0.294876	-1.389827
H	-0.190288	-0.662014	-2.014346
N	-0.356463	1.261762	0.826062
O	-0.221553	2.335708	0.250065
O	-0.712967	1.106512	1.983501
N	-0.521355	-1.120401	0.692268
H	-1.538509	-0.967308	0.746796
H	-0.365148	-1.94234	0.117704
Cl	-3.614468	0.0	0.0
