13

C	0.0	0.0	0.0
C	-0.487262	0.301611	-1.395751
Br	1.95407	0.0	0.0
H	-1.574648	0.401461	-1.351809
H	-0.038107	1.21604	-1.77342
H	-0.217825	-0.541272	-2.033308
N	-0.287118	1.239045	0.925261
O	-0.426932	0.996702	2.118539
O	-0.304398	2.35031	0.413538
N	-0.538298	-1.176909	0.519293
H	-0.348091	-1.239783	1.512698
H	-1.55708	-1.112407	0.385468
Cl	-3.616284	0.0	0.0
