20

C	-0.531434	0.008175	-1.429465
C	0.0	0.0	0.0
Br	0.405769	1.350101	-2.520533
H	1.094298	0.0	0.0
N	-0.206333	-1.35055	-2.051709
O	-1.144964	-2.150744	-2.113245
O	0.948685	-1.59394	-2.363332
C	-2.017828	0.268282	-1.584682
H	-2.591673	-0.43105	-0.97591
H	-2.319242	0.153605	-2.627256
H	-2.233508	1.28839	-1.268749
C	-0.407486	-1.269702	0.746218
H	-1.492141	-1.416034	0.810148
H	0.043996	-2.157641	0.298382
H	-0.006885	-1.195319	1.76125
C	-0.442953	1.241744	0.763695
H	-0.22896	2.153967	0.201609
H	0.141965	1.290456	1.686794
H	-1.507656	1.225454	1.026773
H	2.888531	0.0	0.0
