20

C	-0.346262	-0.057605	-1.466972
C	0.0	0.0	0.0
Br	-2.312757	-0.38659	-1.818461
H	1.097203	0.0	0.0
N	-0.066762	1.307173	-2.097846
O	0.978528	1.409114	-2.735475
O	-0.853602	2.225677	-1.885829
C	0.450843	-1.105974	-2.20555
H	1.500964	-0.977796	-1.909155
H	0.108637	-2.097956	-1.913809
H	0.339204	-0.999908	-3.284975
C	-0.391091	-1.281342	0.730426
H	0.086287	-1.263619	1.714681
H	-1.474896	-1.363348	0.86294
H	-0.027944	-2.176117	0.222459
C	-0.499209	1.217192	0.762405
H	-1.585784	1.331066	0.694723
H	-0.030743	2.137721	0.412824
H	-0.223837	1.094495	1.813921
H	2.807077	0.0	0.0
