20
Coordinates from ORCA-job run
  C   0.76845307442407      0.37535323700097      0.09373730638235
  C   -0.73769863917393      0.30703042251716      0.37181721149505
  F   1.33904974948032      1.00906096552101      1.22163791253344
  H   -1.02635596248074      1.34431669468819      0.58800002897282
  C   1.10016120105604      1.26215464228456     -1.09284087411879
  H   2.17228360352677      1.46983519504973     -1.09316476498058
  H   0.84318912264426      0.78116673366532     -2.03809982039612
  H   0.56590182798556      2.21291363998650     -1.02282010603626
  C   1.44602882782354     -0.97777679422581     -0.01763313635833
  H   1.33988443394741     -1.54092977735484      0.91002744260283
  H   2.51264729423364     -0.83523523558331     -0.20504918505954
  H   1.02984621923179     -1.56611358369346     -0.83800833607730
  C   -1.05941754316353     -0.53417074060751      1.60584019289110
  H   -0.41494366488296     -0.26451634287203      2.44378635836381
  H   -2.09700919444470     -0.37226121123293      1.90962068815434
  H   -0.94081602268674     -1.60211571172968      1.40341800603828
  C   -1.54527697924543     -0.17156496833458     -0.83355929012701
  H   -1.43618430589829      0.48815888653324     -1.69629670002702
  H   -1.25205612763096     -1.18145535002530     -1.13405383849783
  H   -2.60768691474609     -0.20485070158723     -0.57835909575525
