20
Coordinates from ORCA-job run
  C   0.75888670950155      0.39870425450071      0.07243171876653
  C   -0.62850487741145      0.03893804124983      0.61668437889642
  F   1.07354659580826      1.66093616862600      0.62659124345393
  H   -0.52686610551606      0.11826763006025      1.70727905630186
  C   0.81388634583817      0.57373728507437     -1.43382591526347
  H   0.15075927913883      1.37785375039532     -1.75417274506227
  H   0.53218444734826     -0.34477148544134     -1.95281629163470
  H   1.83122876559498      0.83721857008256     -1.73166784728668
  C   1.83830438778561     -0.55012795158435      0.56129382219798
  H   1.75422592544885     -0.70429536583100      1.63992351948213
  H   1.77950349566722     -1.51785338754863      0.06034505770128
  H   2.81721338739978     -0.11365673809538      0.35198702109894
  C   -1.04875358495420     -1.39068400011501      0.27944095955011
  H   -0.36803057518295     -2.13438922464696      0.69773803911602
  H   -1.10398143896134     -1.54517163234944     -0.80187228159232
  H   -2.04330980982252     -1.59051707767906      0.68671762682874
  C   -1.69865165100595      1.03514957685420      0.17363863891434
  H   -2.61097692267567      0.88970970614085      0.75810768319220
  H   -1.95975308223344      0.89908666886953     -0.87938629209731
  H   -1.36291129176792      2.06286521143754      0.31956260743626
