12
Coordinates from ORCA-job run
  C   0.56741212210780     -0.51227423058428      0.36330440847538
  C   -0.87788366772790     -0.25868078393951     -0.01695766203422
  Cl  0.58276699640779     -1.32638176868807      2.01286684439497
  H   -1.43954424038380     -1.18912152557297      0.08229179383362
  H   1.00352416513355     -1.24295296696923     -0.31587181665762
  H   -1.30127827485958      0.46027822183767      0.70382830753421
  N   1.31703593538668      0.69300681622744      0.31906578451914
  H   2.30765412601810      0.52654969288383      0.43442784810621
  H   1.00895222886972      1.33564549657051      1.03896490513448
  N   -0.90624082452836      0.16583000696573     -1.40954170880639
  H   -1.86052507480577      0.30960291522958     -1.71335191631698
  H   -0.40287349161824      1.03849812603929     -1.50102678818280
