12
Coordinates from ORCA-job run
  C   0.43658727137523     -0.22038527341436      0.56430920971727
  C   -0.39532157344668      0.25179733477969     -0.61055721229799
  Cl  -0.47026020352688      0.07191115736148      2.08934894906642
  H   0.22320135084117      0.14496535688636     -1.50908981666266
  H   0.53863136050945     -1.30966815533107      0.51155731290004
  H   -0.59603844350395      1.32155681228975     -0.46550971064403
  N   1.67114765529824      0.52683268373793      0.63385845581403
  H   2.21749077578613      0.22780303659976      1.43229174562867
  H   2.21366606876013      0.34622205038952     -0.20350974988841
  N   -1.57264777984747     -0.59090879732634     -0.77391303419184
  H   -2.03665253816555     -0.36672778624440     -1.64449086422135
  H   -2.22780394407983     -0.40239841972832     -0.02529528522015
