12
Coordinates from ORCA-job run
  C   0.41332380285807     -0.31883743383269      0.64253249741567
  C   -0.31716154371732      0.19785722708111     -0.58780999304754
  Cl  -0.56721984917014      0.11691805922811      2.09305628483774
  H   -0.39367828101948      1.29390299849581     -0.50154320212652
  H   0.43141589754693     -1.40901204804276      0.61268222601194
  H   0.32454077997156     -0.02404755170351     -1.44725717820985
  N   1.75010558852478      0.17455427744235      0.82979166242158
  H   2.37842756343594     -0.26673316879560      0.17023398954580
  H   1.78419540544119      1.17892888945308      0.70423466552040
  N   -1.58451399304526     -0.49298714831253     -0.77641340166878
  H   -2.24096388470476     -0.19877353555689     -0.06430865747514
  H   -1.98047148612151     -0.25377056545647     -1.67619889322530
