12
Coordinates from ORCA-job run
  C   0.48606347528659     -0.51179246808286      0.58455248263252
  C   -0.86368512452997     -0.14527857578272     -0.01357447381438
  Cl  0.20522077541458     -1.28735025756752      2.18506358656733
  H   -1.49916047882852     -1.03792843826249     -0.04418389073306
  H   0.95887607472067     -1.30249940631287     -0.01292081267651
  H   -1.32514596231021      0.57758306668999      0.66261357375561
  N   1.26746082851799      0.67715256576335      0.74519276933985
  H   2.24050970552631      0.45862230104061      0.91350048551652
  H   1.17904205438989      1.20687838239555     -0.11555883875520
  N   -0.64821091686248      0.48942660838987     -1.31442639429972
  H   -1.43007102037322      1.08551458325953     -1.54972555031026
  H   -0.56989941095161     -0.21132836153043     -2.04053293722270
