16

C	-0.385752	0.015445	-1.476442
C	0.0	0.0	0.0
Cl	-0.00825	-1.577471	-2.18599
H	1.093719	0.0	0.0
H	-0.368869	-0.916919	0.45875
N	-1.902267	0.152349	-1.606163
O	-2.58749	-0.474095	-0.800544
O	-2.348909	0.878298	-2.494065
C	0.30754	1.099815	-2.260113
H	0.06649	1.040595	-3.319615
H	1.381259	0.976586	-2.100695
H	-0.001773	2.078303	-1.887665
N	-0.457376	1.150693	0.757955
H	0.079254	1.976663	0.527903
H	-1.448571	1.323436	0.643511
Br	3.614476	0.0	0.0
