16

C	-0.369727	0.163342	-1.488801
C	0.0	0.0	0.0
Cl	-0.056798	-1.337711	-2.386123
H	1.093635	0.0	0.0
H	-0.343933	0.918838	0.491408
N	-1.867857	0.425702	-1.555149
O	-2.631438	-0.524419	-1.389034
O	-2.224171	1.598871	-1.658076
C	0.405163	1.296693	-2.113695
H	0.118703	1.441258	-3.156255
H	1.465267	1.046142	-2.039167
H	0.226171	2.218736	-1.560958
N	-0.492757	-1.160916	0.702285
H	0.088796	-1.954884	0.470513
H	-1.445881	-1.374533	0.435329
Br	3.608026	0.0	0.0
