16

C	-0.401119	-0.002958	-1.462148
C	0.0	0.0	0.0
Cl	-0.021797	-1.561869	-2.218852
H	1.093397	0.0	0.0
H	-0.309411	0.971151	0.405446
N	-1.912022	0.196648	-1.613027
O	-2.375888	0.171639	-2.748438
O	-2.563422	0.428104	-0.594519
C	0.286837	1.110258	-2.223475
H	0.030971	1.068384	-3.281788
H	-0.019553	2.077657	-1.813385
H	1.364222	0.99451	-2.084063
N	-0.529212	-1.127926	0.74346
H	-1.30401	-0.838155	1.322647
H	0.203531	-1.506407	1.327643
Br	3.608629	0.0	0.0
