16

C	-0.606671	-0.042304	-1.391163
C	0.0	0.0	0.0
Cl	0.175648	1.188997	-2.413234
H	1.09486	0.0	0.0
H	-0.311481	0.963562	0.417597
N	-0.31354	-1.387235	-2.054323
O	-0.95977	-1.659541	-3.064167
O	0.544168	-2.100966	-1.548165
C	-2.105073	0.163097	-1.3965
H	-2.498452	0.114515	-2.409636
H	-2.560392	-0.607568	-0.773538
H	-2.321709	1.144418	-0.97033
N	-0.576811	-1.084923	0.80737
H	-0.623313	-0.775992	1.769975
H	0.083184	-1.853312	0.781095
Br	3.679981	0.0	0.0
