17

C	0.0	0.0	0.0
C	-0.592195	-0.06882	-1.400757
F	1.370046	0.0	0.0
H	-1.695449	-0.026207	-1.306795
C	-0.462083	1.269482	0.701124
H	-0.070806	1.252345	1.719129
H	-0.056775	2.138953	0.181448
H	-1.552173	1.303951	0.714401
C	-0.425065	-1.181596	0.779399
N	-0.65948	-2.097766	1.474844
N	-0.219211	-1.290439	-2.180479
O	0.483794	-2.141865	-1.646221
O	-0.673356	-1.331951	-3.319315
N	-0.102207	1.088607	-2.211573
O	1.012268	0.977323	-2.718669
O	-0.834698	2.070975	-2.273054
Cl	-3.561293	0.0	0.0
