17

C	0.0	0.0	0.0
C	-0.552874	-0.050396	-1.42151
F	1.375363	0.0	0.0
H	-1.643396	0.105267	-1.385727
C	-0.461117	1.252955	0.727099
H	-0.045838	2.132239	0.234245
H	-0.083969	1.202615	1.750092
H	-1.551196	1.290497	0.729484
C	-0.430137	-1.199116	0.746426
N	-0.668047	-2.144422	1.400649
N	-0.284728	-1.329986	-2.149868
O	-0.882295	-1.443248	-3.215822
O	0.505389	-2.135498	-1.667555
N	0.107253	1.015549	-2.244356
O	1.110819	0.702189	-2.878823
O	-0.395653	2.132786	-2.187556
Cl	-3.532637	0.0	0.0
