13

C	-0.402435	-0.090136	-1.456847
C	0.0	0.0	0.0
Cl	-2.196316	-0.46382	-1.631634
H	1.092838	0.0	0.0
H	-0.344592	-0.897332	0.520885
H	-0.405883	0.88794	0.486858
C	-0.217593	1.194638	-2.138808
N	-0.088862	2.227867	-2.682081
C	0.394215	-1.180459	-2.155067
H	0.16721	-2.141014	-1.687393
H	1.457203	-0.96145	-1.989805
H	0.158876	-1.232195	-3.219751
H	2.975563	0.0	0.0
