15

C	0.0	0.0	0.0
C	-0.341105	0.090215	-1.502436
Cl	1.796574	0.0	0.0
H	0.228409	-0.685995	-2.013277
H	-0.29327	0.920805	0.511483
N	-0.54561	-1.220276	0.520598
H	-1.560218	-1.156049	0.416448
H	-0.352376	-1.274474	1.514234
N	0.241185	1.390161	-2.026957
O	0.937655	1.340166	-3.037338
O	-0.076495	2.417634	-1.432594
N	-1.696198	0.060078	-1.910772
H	-2.362006	0.458063	-1.249749
H	-2.003071	-0.881471	-2.103762
Br	-4.311029	0.0	0.0
