15

C	0.121594	-0.085974	0.09077
C	-0.422751	-0.08899	-1.338389
F	1.519983	-0.01428	0.061856
H	-1.479726	-0.387816	-1.269539
H	-0.123849	-1.049469	0.553623
C	-0.413757	1.068359	0.897886
H	-0.084102	0.985956	1.936526
H	-1.504262	1.094836	0.8453
H	-0.031498	1.994439	0.46876
C	0.293641	-1.101535	-2.121969
N	0.854489	-1.912134	-2.759905
N	-0.308986	1.237076	-1.954518
H	-1.230959	1.657847	-1.817767
H	-0.193122	1.129005	-2.955126
Cl	-3.506499	1.284131	-1.109525
