15

C	0.151594	-0.020882	0.014919
C	-0.503021	-0.067544	-1.36827
F	1.507578	0.320459	-0.169041
H	-1.551829	-0.354946	-1.225275
H	0.151079	-1.026481	0.450728
C	-0.469069	0.980642	0.953398
H	0.037028	0.937923	1.921233
H	-0.369008	1.986647	0.545766
H	-1.536906	0.791958	1.065695
C	0.170705	-1.117367	-2.159515
N	0.712922	-1.966561	-2.762252
N	-0.51051	1.187157	-2.098022
H	0.300113	1.737124	-1.84267
H	-1.367334	1.670696	-1.833128
Cl	-3.527215	1.367613	-0.725297
