16

C	0.0	0.0	0.0
C	-0.612251	0.04401	-1.383538
Br	1.943705	0.0	0.0
H	-1.726451	0.112736	-1.105871
H	-0.361621	-0.844949	-1.950102
C	-0.474733	1.078728	0.947458
H	-0.160636	2.047003	0.564305
H	-1.567935	0.983491	0.934441
H	-0.056561	0.914547	1.938827
N	-0.379552	-1.375234	0.581149
O	-0.492831	-1.456547	1.79587
O	-0.472444	-2.315807	-0.199227
N	-0.15459	1.18897	-2.189297
O	0.308575	0.939048	-3.307732
O	-0.2912	2.331305	-1.747289
F	-2.827927	0.0	0.0
