16

C	0.0	0.0	0.0
C	-0.672557	-0.073457	-1.34006
Br	1.930168	0.0	0.0
H	-0.620861	0.895672	-1.834595
H	-1.783337	-0.237296	-1.013633
C	-0.489583	1.248319	0.717708
H	-0.156192	2.131344	0.168208
H	-0.085917	1.275775	1.728283
H	-1.583988	1.157992	0.708543
N	-0.406793	-1.204327	0.873851
O	-0.995518	-2.134281	0.345669
O	-0.096653	-1.136871	2.060449
N	-0.162072	-1.050973	-2.312309
O	0.484952	-2.025534	-1.929994
O	-0.448966	-0.831693	-3.494222
F	-2.882895	0.0	0.0
