16

C	0.0	0.0	0.0
C	-0.681478	-0.079628	-1.334834
Br	1.930015	0.0	0.0
H	-0.627953	0.884498	-1.838947
H	-1.797346	-0.230753	-0.991803
C	-0.476521	1.26305	0.703406
H	-0.134405	2.1341	0.140396
H	-0.065414	1.301103	1.710617
H	-1.571109	1.189906	0.705272
N	-0.413129	-1.188544	0.887687
O	-0.992863	-2.128545	0.368198
O	-0.121199	-1.100631	2.076886
N	-0.194288	-1.071482	-2.30265
O	0.482129	-2.028327	-1.924296
O	-0.533948	-0.884789	-3.474862
F	-2.884181	0.0	0.0
