16

C	0.0	0.0	0.0
C	-0.671641	-0.040259	-1.34299
Br	1.929834	0.0	0.0
H	-1.780067	-0.214143	-1.024631
H	-0.625034	0.9427	-1.809717
C	-0.485527	1.237735	0.737366
H	-0.090438	1.243191	1.75139
H	-0.137666	2.127175	0.207727
H	-1.580782	1.157326	0.718668
N	-0.412431	-1.219796	0.843139
O	-0.15656	-1.160594	2.042258
O	-0.949514	-2.15866	0.279422
N	-0.16689	-0.986128	-2.349869
O	0.519678	-1.949619	-2.012517
O	-0.498498	-0.749657	-3.516295
F	-2.877986	0.0	0.0
