15

C	-0.543376	0.0914	-1.563526
C	0.071446	0.079522	-0.160521
Br	-2.499717	-0.173661	-1.537266
H	1.154235	0.231438	-0.311218
H	-0.163493	-0.778054	-2.100584
C	-0.279508	1.313984	-2.314133
N	-0.033397	2.307425	-2.892337
N	-0.046634	-1.248951	0.395817
H	0.854447	-1.349515	0.93776
H	-0.812583	-1.264874	1.062509
C	-0.423051	1.207244	0.735477
H	0.191507	1.182119	1.637607
H	-1.470835	1.053362	1.012409
H	-0.327626	2.193341	0.267464
H	2.329558	-0.893355	1.486503
