15

C	-0.788482	-0.054072	-1.461453
C	0.103598	0.060614	-0.223854
Br	-0.860372	1.609711	-2.556158
H	1.141554	0.235357	-0.544561
H	-1.825318	-0.212776	-1.155107
C	-0.38021	-1.13652	-2.350044
N	-0.073262	-1.958536	-3.131472
N	0.066937	-1.253772	0.382785
H	-0.694221	-1.270875	1.059369
H	0.973408	-1.288626	0.965708
C	-0.315796	1.191069	0.708443
H	-0.235916	2.181776	0.252879
H	-1.35127	1.042055	1.041234
H	0.343968	1.135029	1.576484
H	2.222069	-0.919853	1.740833
