15

C	-0.448817	0.029673	-1.510531
C	0.024651	0.134778	-0.053937
Br	-2.387297	-0.290509	-1.670425
H	1.10782	0.296722	-0.133781
H	0.013055	-0.858082	-1.943625
C	-0.133958	1.208057	-2.311922
N	0.139652	2.168375	-2.932103
N	-0.145785	-1.156723	0.572969
H	-0.645938	-1.050013	1.448154
H	0.844221	-1.444517	0.795956
C	-0.608808	1.297371	0.692883
H	-0.509728	2.244169	0.152604
H	-0.108679	1.398583	1.659216
H	-1.672505	1.111171	0.869673
H	2.478718	-1.232864	0.805277
