15

C	-0.663486	0.033487	-1.58448
C	0.115826	0.065311	-0.273109
Br	-0.165975	-1.515897	-2.702699
H	1.185643	0.066619	-0.536506
H	-0.406947	0.897918	-2.20287
C	-2.109859	0.002992	-1.393175
N	-3.279525	0.042649	-1.290507
N	-0.260951	-1.032003	0.59021
H	0.387009	-0.91778	1.412083
H	0.042764	-1.898624	0.151111
C	-0.185222	1.371732	0.453023
H	-1.235055	1.402074	0.756231
H	0.051874	2.248231	-0.161606
H	0.444829	1.366076	1.347924
H	1.744197	-0.431636	2.318537
