15

C	-0.676686	0.011526	-1.578806
C	0.113481	0.062217	-0.274864
Br	-0.209428	-1.56919	-2.665873
H	1.1819	0.043048	-0.5463
H	-0.413786	0.858256	-2.218638
C	-2.121854	0.005081	-1.375734
N	-3.290255	0.063642	-1.267737
N	-0.270752	-1.010175	0.616101
H	0.018007	-1.890399	0.194196
H	0.385918	-0.886529	1.429689
C	-0.164409	1.388453	0.424173
H	0.07773	2.24795	-0.21209
H	-1.211043	1.438729	0.73574
H	0.473198	1.394744	1.313667
H	1.758493	-0.400093	2.312489
