19

C	-0.419865	0.053056	-1.466734
C	0.0	0.0	0.0
Cl	-2.178599	0.419161	-1.651503
H	1.09076	0.0	0.0
C	0.396396	0.989974	-2.326595
H	0.105262	2.014041	-2.114896
H	1.448326	0.854607	-2.058267
H	0.230176	0.766595	-3.382638
N	-0.209892	-1.370843	-1.997661
O	0.909301	-1.605559	-2.442909
O	-1.121017	-2.187318	-1.899661
C	-0.474874	-1.201793	0.781178
H	0.014872	-2.095104	0.390908
H	-0.155032	-1.080237	1.815489
H	-1.557606	-1.333146	0.75565
N	-0.377086	1.252543	0.665197
O	-1.00679	1.200356	1.731823
O	0.028882	2.309016	0.16439
H	2.578657	0.0	0.0
