19

C	-0.42194	0.060079	-1.465557
C	0.0	0.0	0.0
Cl	-2.175849	0.4536	-1.645883
H	1.090768	0.0	0.0
C	0.407841	0.982634	-2.327474
H	0.236411	0.762701	-3.383817
H	0.135312	2.011014	-2.113472
H	1.457828	0.829694	-2.060899
N	-0.238997	-1.366996	-2.002344
O	-1.164981	-2.164831	-1.90482
O	0.875983	-1.623079	-2.447979
C	-0.471322	-1.206051	0.776843
H	-1.554188	-1.338047	0.754047
H	-0.147145	-1.090725	1.810402
H	0.01779	-2.096832	0.379623
N	-0.374174	1.24967	0.672402
O	-0.978415	1.190604	1.752072
O	0.011327	2.310374	0.162798
H	2.575995	0.0	0.0
