15

C	-0.445197	0.087866	-1.461432
C	0.0	0.0	0.0
F	-0.261245	-1.151946	-2.076446
H	1.09622	0.0	0.0
H	-1.525829	0.291843	-1.517199
C	0.357239	1.121073	-2.219306
H	0.120358	2.127305	-1.865948
H	0.122231	1.062794	-3.285289
H	1.419269	0.932927	-2.049325
C	-0.54774	-1.202888	0.625317
N	-1.015818	-2.160673	1.119678
N	-0.373343	1.183454	0.773619
H	0.39965	1.838909	0.717944
H	-1.215177	1.619875	0.412313
H	2.808683	0.0	0.0
