15

C	-0.489402	0.013633	-1.44337
C	0.0	0.0	0.0
F	-0.101667	1.241478	-1.999831
H	1.101157	0.0	0.0
H	0.048628	-0.762542	-1.997328
C	-1.989004	-0.105386	-1.608043
H	-2.261589	0.040259	-2.6566
H	-2.331057	-1.091853	-1.288176
H	-2.479748	0.65208	-0.995997
C	-0.470652	-1.217657	0.652023
N	-0.82984	-2.210482	1.169061
N	-0.524113	1.187518	0.710448
H	-0.107487	1.971536	0.214414
H	-0.064011	1.188018	1.617769
H	2.821583	0.0	0.0
