15

C	-0.530053	0.038211	-1.428194
C	0.0	0.0	0.0
F	-0.390184	-1.230511	-2.004381
H	1.100559	0.0	0.0
H	-1.607563	0.253277	-1.420215
C	0.230187	1.041906	-2.260953
H	0.079911	2.039415	-1.846593
H	-0.123633	1.019904	-3.295548
H	1.294594	0.803231	-2.216799
C	-0.496783	-1.172616	0.714969
N	-0.933001	-2.071376	1.335669
N	-0.362683	1.25821	0.674371
H	0.467557	1.563251	1.174737
H	-1.103927	1.112931	1.3473
H	2.795778	0.0	0.0
