15

C	-0.515356	0.05513	-1.433935
C	0.0	0.0	0.0
F	0.006107	1.192747	-2.043424
H	1.095888	0.0	0.0
H	-0.116385	-0.808271	-1.980037
C	-2.022934	0.134907	-1.540493
H	-2.491171	-0.767547	-1.139957
H	-2.363391	1.003246	-0.97408
H	-2.321779	0.25368	-2.58525
C	-0.449284	-1.243033	0.617519
N	-0.834029	-2.235357	1.11963
N	-0.415593	1.185521	0.764532
H	0.438294	1.575057	1.155234
H	-1.023999	0.933017	1.53239
H	2.76465	0.0	0.0
