15

C	-0.396549	-0.115401	-1.449894
C	0.0	0.0	0.0
F	-1.803466	-0.093961	-1.581996
H	1.103028	0.0	0.0
H	-0.029658	0.789562	-1.941333
C	0.150064	-1.361629	-2.100753
H	-0.279228	-2.251547	-1.636673
H	1.234797	-1.373293	-1.958986
H	-0.086545	-1.374477	-3.16679
C	-0.469926	-1.152385	0.776261
N	-0.860584	-2.02292	1.464471
N	-0.416267	1.279146	0.566353
H	0.251377	1.530373	1.288178
H	-1.339336	1.214678	0.973481
H	2.774221	0.0	0.0
