15

C	-0.516379	0.039805	-1.43377
C	0.0	0.0	0.0
F	0.001523	1.173207	-2.053828
H	1.097457	0.0	0.0
H	-0.115194	-0.826906	-1.972696
C	-2.023992	0.114516	-1.540756
H	-2.366304	0.985995	-0.980327
H	-2.324004	0.224463	-2.586332
H	-2.489257	-0.785902	-1.133009
C	-0.448505	-1.234934	0.632775
N	-0.822661	-2.221272	1.154347
N	-0.414856	1.194848	0.751818
H	0.443162	1.59612	1.122155
H	-1.005812	0.947204	1.535542
H	2.761124	0.0	0.0
