15

C	-0.442659	0.111411	-1.458646
C	0.0	0.0	0.0
F	-0.245496	-1.115818	-2.096249
H	1.09626	0.0	0.0
H	-1.525396	0.305432	-1.516885
C	0.351884	1.164432	-2.196331
H	1.415306	0.978534	-2.034657
H	0.11237	2.160904	-1.819183
H	0.11178	1.127714	-3.262135
C	-0.553966	-1.209022	0.608054
N	-1.022627	-2.170838	1.094303
N	-0.36578	1.178122	0.788044
H	-1.154791	1.668865	0.385891
H	0.439781	1.790445	0.796745
H	2.801517	0.0	0.0
