15

C	-0.315644	0.012354	-1.479774
C	0.0	0.0	0.0
F	-1.695904	0.239544	-1.69835
H	1.096449	0.0	0.0
H	0.200195	0.883449	-1.898434
C	0.109183	-1.247868	-2.187906
H	1.173105	-1.401928	-1.988387
H	-0.054075	-1.158968	-3.264375
H	-0.456071	-2.103509	-1.813106
C	-0.529688	-1.195683	0.651944
N	-0.960324	-2.162629	1.163769
N	-0.422676	1.202303	0.712644
H	0.361585	1.847172	0.694703
H	-1.214688	1.6225	0.240726
H	2.753029	0.0	0.0
