16

C	0.0	0.0	0.0
C	-0.351276	0.082672	-1.514336
F	1.363905	0.0	0.0
H	0.391692	0.789144	-1.89417
N	-0.270082	1.401359	0.648962
O	-0.396621	1.414297	1.869345
O	-0.242057	2.391437	-0.07807
N	-0.590434	-1.034004	0.701431
H	-1.596496	-1.02177	0.511313
H	-0.451013	-0.913534	1.698158
N	-1.63824	0.516288	-1.975803
H	-2.413824	0.030036	-1.523664
H	-1.753217	1.491511	-1.735063
C	-0.007103	-1.229308	-2.094367
N	0.267666	-2.25742	-2.589452
Cl	-3.975812	0.0	0.0
