16

C	0.0	0.0	0.0
C	-0.348731	-0.103518	-1.516171
F	1.364263	0.0	0.0
H	0.411098	0.535187	-1.976013
N	-0.269298	1.471183	0.469027
O	-0.473571	1.632394	1.667473
O	-0.162748	2.365305	-0.366202
N	-0.581873	-0.943228	0.825761
H	-0.442828	-0.699924	1.799914
H	-1.589294	-0.9687	0.640254
N	-1.623684	0.297318	-2.041873
H	-1.712261	1.300432	-1.933127
H	-2.408183	-0.10422	-1.525035
C	-0.030548	-1.483304	-1.926587
N	0.222814	-2.57585	-2.272716
Cl	-3.940947	0.0	0.0
