16

C	0.0	0.0	0.0
C	-0.327584	-0.604494	-1.411968
F	1.35312	0.0	0.0
H	0.415373	-0.153965	-2.073335
N	-0.374298	1.488733	-0.037697
O	-0.861369	2.005328	0.95721
O	-0.070712	2.068406	-1.080443
N	-0.540618	-0.573252	1.158458
H	-1.515917	-0.292497	1.252014
H	-0.492965	-1.583373	1.100149
N	-1.624252	-0.439123	-2.00482
H	-2.390191	-0.582851	-1.338718
H	-1.719553	0.520677	-2.30857
C	0.011617	-2.036364	-1.308288
N	0.295528	-3.166989	-1.173419
Cl	-3.987129	0.0	0.0
