16

C	0.0	0.0	0.0
C	-0.552653	0.064734	-1.429296
F	1.347068	0.0	0.0
H	-1.540237	0.531734	-1.361018
N	-0.277526	1.378755	0.696529
O	-0.542543	2.352018	0.000872
O	-0.138592	1.379	1.917049
N	-0.521906	-1.064613	0.732112
H	-0.214537	-0.988733	1.694953
H	-1.547847	-0.975502	0.696472
N	-0.61371	-1.281642	-2.011583
H	-0.722724	-1.937638	-1.247307
H	-1.461911	-1.330383	-2.564422
C	0.332026	0.893276	-2.261104
N	1.033755	1.51477	-2.967332
Cl	-3.497941	0.0	0.0
