16

C	0.0	0.0	0.0
C	-0.352718	0.248694	-1.495979
F	1.378368	0.0	0.0
H	0.419503	0.95726	-1.80787
N	-0.257435	1.329837	0.788784
O	-0.506197	1.219427	1.984592
O	-0.099717	2.387246	0.18425
N	-0.584362	-1.100273	0.592532
H	-1.585037	-1.10368	0.376
H	-0.479772	-1.062138	1.600012
N	-1.62231	0.790509	-1.893479
H	-1.673606	1.748637	-1.572004
H	-2.413025	0.308723	-1.45973
C	-0.074534	-1.0078	-2.215521
N	0.160861	-1.984027	-2.822875
Cl	-3.94966	0.0	0.0
