16

C	0.0	0.0	0.0
C	-0.524383	-0.012656	-1.468183
F	1.352346	0.0	0.0
H	-1.469066	0.537282	-1.448053
N	-0.341455	1.379709	0.600957
O	-0.664442	1.453416	1.776844
O	-0.162765	2.32641	-0.163038
N	-0.487892	-0.98295	0.87582
H	-1.495766	-0.823617	0.972853
H	-0.355501	-1.891725	0.44941
N	-0.840164	-1.330706	-1.990843
H	-1.705449	-1.63405	-1.556355
H	-0.095449	-1.994926	-1.818507
C	0.411904	0.651685	-2.383489
N	1.152058	1.134498	-3.156264
Cl	-3.442407	0.0	0.0
