11

C	0.0	0.0	0.0
C	-0.54605	-0.495517	-1.338118
Cl	1.781703	0.0	0.0
H	-1.64552	-0.455085	-1.238693
H	-0.349958	-0.643429	0.807079
H	-0.221253	0.171373	-2.140985
C	-0.419807	1.378479	0.267999
N	-0.637755	2.501706	0.529475
C	-0.105947	-1.853793	-1.630307
N	0.247695	-2.945576	-1.878086
Cl	-3.446462	0.0	0.0
