11

C	0.0	0.0	0.0
C	-0.48022	-0.245404	-1.432158
Cl	1.781722	0.0	0.0
H	-1.579397	-0.249691	-1.392029
H	-0.370803	-0.793859	0.646439
H	-0.117727	-1.225158	-1.756177
C	-0.419673	1.303906	0.517521
N	-0.589707	2.389614	0.931117
C	0.009705	0.768221	-2.359896
N	0.407797	1.568322	-3.121136
Cl	-3.332732	0.0	0.0
