11

C	0.0	0.0	0.0
C	-0.249878	-0.129029	-1.532646
Cl	1.78419	0.0	0.0
H	0.18176	0.770422	-1.982192
H	-0.3842	-0.846574	0.560316
H	0.386562	-0.956519	-1.856999
C	-0.429997	1.268478	0.582473
N	-0.527718	2.33936	1.056454
C	-1.538184	-0.362153	-2.193094
N	-2.237152	-0.613026	-3.10821
Cl	-3.057741	0.0	0.0
