11

C	0.0	0.0	0.0
C	-0.240948	-0.025306	-1.540817
Cl	1.785419	0.0	0.0
H	0.314114	0.82971	-1.939083
H	-0.385573	-0.883183	0.499408
H	0.288588	-0.913789	-1.897588
C	-0.43375	1.227185	0.661527
N	-0.526264	2.263228	1.208758
C	-1.53585	-0.024511	-2.228965
N	-2.235572	-0.040977	-3.177349
Cl	-3.037255	0.0	0.0
