11

C	0.0	0.0	0.0
C	-0.240414	-0.021458	-1.543293
Cl	1.78556	0.0	0.0
H	0.44108	-0.784199	-1.93013
H	-0.388652	-0.883944	0.495533
H	0.13939	0.933308	-1.920553
C	-0.437517	1.224559	0.661404
N	-0.529273	2.265919	1.199522
C	-1.512045	-0.288361	-2.223501
N	-2.192873	-0.553829	-3.147584
Cl	-3.008714	0.0	0.0
