13
Coordinates from ORCA-job run
  C   0.88339962807299      0.22414932422740     -0.37910860711349
  C   -0.62877939251002      0.23107650362731     -0.14181371343385
  Br  1.48913646992746     -1.38914059964355     -1.21583636753517
  H   -0.85013921484633      1.20209831262454      0.31202576571158
  H   1.19391313704220      1.06646765554041     -0.99722424122319
  N   1.52783324380212      0.44901280759777      0.97940532277341
  O   2.21947456623026     -0.41617634488543      1.48469326091507
  O   1.25324050259550      1.54776334323221      1.45308713303367
  N   -0.97418873202144     -0.79763397373875      0.81579844315955
  H   -0.92405061822380     -1.71709531709534      0.39390190798442
  H   -1.91222671471815     -0.65472662849100      1.16704743480100
  C   -1.33578968975321      0.16406292212376     -1.43485386428174
  N   -1.94082318559760      0.08814199488066     -2.43912247479127
