13
Coordinates from ORCA-job run
  C   0.78847145823905      0.42833146537599     -0.41061986952306
  C   -0.67151745566608      0.08025207102406     -0.10974359540651
  Br  1.71278257692535     -0.98969144278430     -1.30761085370244
  H   -1.09068378968411      0.96772075900599      0.37453222229060
  H   0.86592378493157      1.32696929315029     -1.02250627637030
  N   1.42515095151720      0.78116775807018      0.92419112823936
  O   0.92546298105717      1.78020250432360      1.43325455609596
  O   2.32150072475755      0.09513892809439      1.38040358185784
  N   -0.72430837381848     -1.01183299130198      0.83853060793133
  H   -0.47890397328086     -1.88871488910726      0.39480613620699
  H   -1.65376207184061     -1.09751176124150      1.22924990938366
  C   -1.40238834193029     -0.13434120316729     -1.37306735840746
  N   -2.01872847120746     -0.33769049144216     -2.35242018859598
