13
Coordinates from ORCA-job run
  C   0.59238613979684      0.54047706692902      0.42896970984617
  C   -0.57030995608703     -0.10053686244767     -0.32988484978699
  Br  0.69273879441307      2.43103062504335      0.06644088319526
  H   -0.40114399216327      0.05716226607843     -1.40263708060463
  H   0.48906058944858      0.40226059536070      1.50312722062557
  N   1.89145282614049     -0.09019526867908      0.01637060630787
  O   2.06313604030784     -0.26500106677521     -1.18583416914320
  O   2.66675066544840     -0.38043658124881      0.92129535933005
  N   -1.81792084707430      0.44351638120850      0.19369343387389
  H   -2.59331393714209     -0.15306038960149     -0.06642050561679
  H   -1.97872742466352      1.36109473801578     -0.20358687361678
  C   -0.52901593733945     -1.54620545790080     -0.07566185127070
  N   -0.50509296108556     -2.70110604598274      0.13412811686030
