13
Coordinates from ORCA-job run
  C   0.67263391677449      0.79397285349316     -0.13795832516580
  C   -0.69102839570600      0.16269125228425     -0.39553845683104
  Br  1.66641444907559      1.09183891560488     -1.75844020692405
  H   -1.24737919746096      0.91628596297429     -0.96360340228085
  H   0.54040811012354      1.74948785580630      0.36626793248996
  N   1.50417487163867     -0.04321528748799      0.79907067508464
  O   2.38350937797343      0.54848703776196      1.41069068000240
  O   1.23693096074453     -1.23968723277895      0.87500837468321
  N   -1.35104366888787     -0.01374468753767      0.88743544516296
  H   -1.06490992223365     -0.88966741108003      1.30711605955421
  H   -2.35547868889719     -0.02928143552936      0.76702550531320
  C   -0.62676552822986     -1.04472786873532     -1.23966433364870
  N   -0.66846628491471     -2.00143995477551     -1.91940994744015
