13
Coordinates from ORCA-job run
  C   0.60847573019501      0.55082702816789      0.39458970510799
  C   -0.57566613620047     -0.10347932013362     -0.31860462626058
  Br  0.73976048129759      2.41915252769783     -0.06084327277282
  H   -0.41782817195419      0.00048971627729     -1.39964455011288
  H   0.51602940876717      0.46701046107500      1.47531661340146
  N   1.88984310724302     -0.12509371862815     -0.00157812998598
  O   2.03866050372650     -0.37036813859592     -1.19438770250894
  O   2.66622178627369     -0.39476095959699      0.90871244139720
  N   -1.80629949716823      0.48760187585264      0.19393082231504
  H   -1.95464656313531      1.38905875412023     -0.24325080103777
  H   -2.59563224549745     -0.10536728028979     -0.03047502388009
  C   -0.55680756346462     -1.53611356623522      0.00330768135646
  N   -0.55211084008273     -2.67895737971125      0.27192684298094
