13
Coordinates from ORCA-job run
  C   0.66917497649584      0.78132565707594     -0.14609867986050
  C   -0.67483325401464      0.10042239374412     -0.40878308979906
  Br  1.65583909546452      1.12393085058259     -1.75979803926935
  H   -1.25516505160811      0.80261467955791     -1.02451379981778
  H   0.51277434505586      1.72962597949728      0.36539728918687
  N   1.49935392954639     -0.04414908602907      0.79714220470604
  O   1.98568237446851      0.56069648176259      1.74654432262092
  O   1.61883501886834     -1.23427309123287      0.54284448281820
  N   -1.27708112115543     -0.16114168961738      0.89320842549196
  H   -1.89950276620105      0.58841305518828      1.16228119678706
  H   -1.78147607393762     -1.03612851071348      0.91047411216306
  C   -0.55628222440861     -1.12978614120795     -1.19737615014966
  N   -0.49731924857400     -2.08255057860799     -1.88032227487775
