13
Coordinates from ORCA-job run
  C   0.76468956545152      0.26241972888983     -0.34544407160576
  C   -0.75128802089465     -0.01673004529821     -0.20830750022887
  Br  1.81224051768815     -1.35157734985501     -0.37685268248798
  H   -1.21240254170213      0.95818724127371     -0.00281527817741
  H   0.99611981111771      0.81696086428248     -1.25465157436523
  N   1.25446209511283      1.12923733884365      0.78515401291344
  O   2.16269668695380      1.90626717756813      0.51594986880546
  O   0.71268459866621      0.99571491841552      1.88001284869839
  N   -1.20820750940493     -0.94121706844803      0.79907842093583
  H   -0.84665755468635     -1.87039316548542      0.62439544989022
  H   -0.89786539775313     -0.62903551085977      1.70954342185294
  C   -1.21992094783262     -0.45313895306359     -1.53082193117994
  N   -1.56455130271641     -0.80769517626328     -2.59524098505108
