13
Coordinates from ORCA-job run
  C   0.61474188545516      0.67068107665505      0.23680831328797
  C   -0.52912966508725     -0.11995235899447     -0.40405719312825
  Br  0.97279774044464      2.29860023010561     -0.71432200551852
  H   -0.26241441935490     -0.28591016238951     -1.45036469721944
  H   0.41457461241076      0.91799856623275      1.27872168578766
  N   1.86132285288468     -0.17181026024104      0.23603975029082
  O   2.49720969801340     -0.20912683524975      1.28401636777011
  O   2.13100752221979     -0.75026562382521     -0.81116240965654
  N   -1.75420934829134      0.65027647019340     -0.33620573696279
  H   -2.16736882671733      0.59071711433586      0.58657340141295
  H   -2.42710422328902      0.30134924207514     -1.00585487870026
  C   -0.61359931499957     -1.43565721971754      0.26463801567250
  N   -0.73982851368900     -2.45590023918027      0.83416938696378
