13
Coordinates from ORCA-job run
  C   0.53715006413843      0.48540826699425      0.43264709930073
  C   -0.61431896296221     -0.10613347801657     -0.40445774286532
  Br  0.52879792817164      2.40994956723079      0.35940783530873
  H   -0.45861860330499      0.21719726466006     -1.43756174284142
  H   0.48870218149384      0.18407949951136      1.47823169736776
  N   1.85493800624631     -0.01322721162796     -0.09421918605388
  O   2.62839372171146     -0.48804604823124      0.73110412770193
  O   2.03127810245104      0.08055008060854     -1.30402356699226
  N   -1.94917976729138      0.26319565779183      0.00728167195184
  H   -2.12281973658901      0.01253087428498      0.97284884343119
  H   -2.09617411375989      1.25691508421335     -0.11199157855073
  C   -0.47631038983790     -1.56960491998942     -0.35726314794178
  N   -0.35083843046729     -2.73381463742996     -0.27100430981682
