13
Coordinates from ORCA-job run
  C   0.56230089847537      0.50897588845410      0.36731016127322
  C   -0.59544856212303     -0.12764192652655     -0.42715024821080
  Br  0.79716208371497      2.35931123720897     -0.11240682089493
  H   -0.33211409493705     -0.06088718698732     -1.48648728742097
  H   0.40784263174358      0.45272974538670      1.44415462080358
  N   1.84043489066828     -0.23124354092842      0.08162293280554
  O   2.10669543592619     -0.42806858585931     -1.09902290584719
  O   2.49293849007844     -0.59000911494126      1.05643665585188
  N   -1.89818378813433      0.46428131507086     -0.22851219317114
  H   -1.91530115551784      1.41307085938873     -0.57906463528825
  H   -2.16196189390996      0.46365786273428      0.74913872547226
  C   -0.64248980869106     -1.55003169564785     -0.05540495814783
  N   -0.66287512729357     -2.67214485735292      0.28938595277464
