13
Coordinates from ORCA-job run
  C   0.63506805491098      0.76583112654738     -0.14836334224762
  C   -0.73355253185785      0.10617304409826     -0.46500083472280
  Br  1.57495960357995      1.25169700324086     -1.74481812806309
  H   -1.22712209873630      0.78262800123336     -1.17067168714816
  H   0.48349296281864      1.66036398492003      0.45412778585200
  N   1.43918692726433     -0.17525290263641      0.71549760009323
  O   1.09996754128982     -0.15890779236840      1.90012629886547
  O   2.27397938993474     -0.90627141186906      0.20564162056516
  N   -1.61885504770753     -0.09541544099389      0.65887205775909
  H   -1.17730967699720     -0.64743503774786      1.38372289150936
  H   -1.89744798914370      0.79308954111774      1.05590601202364
  C   -0.51211219584256     -1.17097424281950     -1.15816886123197
  N   -0.33925493951330     -2.20452587272246     -1.68687141325427
