13
Coordinates from ORCA-job run
  C   0.58402641843638      0.49931185365908      0.35223192662749
  C   -0.61723921990126     -0.11339037657381     -0.39515470201821
  Br  0.77908430599632      2.36934964402759     -0.06479861519061
  H   -0.42107334202905      0.00088823388644     -1.46498757563109
  H   0.49654582889686      0.39825662010081      1.43333291543375
  N   1.84563133707906     -0.21904599899179     -0.04172472884357
  O   2.55843039062748     -0.61347819803569      0.87545054446430
  O   2.03958907071987     -0.36498053372983     -1.24374750123090
  N   -1.90879122304224      0.45740630775473     -0.08984661616569
  H   -2.11583787247671      0.39996883663143      0.89964998358911
  H   -1.94994407809153      1.42411128906960     -0.38510198358226
  C   -0.63456963632434     -1.55079186303891     -0.08396561546750
  N   -0.65585197989086     -2.68760581475968      0.20866196801521
