13
Coordinates from ORCA-job run
  C   0.82052845307588      0.42944540010740     -0.34282285840851
  C   -0.66020099003373      0.08865904656180     -0.15710548482046
  Br  1.79703990016786     -0.97791324103910     -1.20042444350437
  H   -1.10699991305252      0.96984878938756      0.31386166161829
  H   0.94977333118775      1.34014572558506     -0.92753759914104
  N   1.36015407384452      0.74793176022054      1.04241518888787
  O   0.83302426131641      1.74148942653867      1.53442077646008
  O   2.21363354354775      0.04271305840604      1.54896211423547
  N   -0.79093966377563     -1.02228497309315      0.76095376049731
  H   -0.52250487436559     -1.89239878634035      0.31731859339098
  H   -1.74654411032213     -1.10602039235033      1.08276035768631
  C   -1.29842329052039     -0.09241926857776     -1.47487552356560
  N   -1.84654072107015     -0.26919654540637     -2.49892654333630
