13
Coordinates from ORCA-job run
  C   0.59144593282890      0.41423134011943      0.55392100168259
  C   -0.56488435076959     -0.00855237963101     -0.35343853636676
  Br  0.72373684237767      2.33462487072271      0.64932350696603
  H   -0.37334124891455      0.39642793787687     -1.35520476248096
  H   0.46490489727028      0.02837293033258      1.56318829404456
  N   1.88955408594728     -0.12532538541729      0.02520136478553
  O   2.08312345488760     -0.01412199841304     -1.18119148938429
  O   2.64329011811700     -0.63291535069976      0.84879587965004
  N   -1.81489538821367      0.41838658927367      0.26495067925204
  H   -2.59195475656845     -0.09542199810873     -0.13138892240345
  H   -1.96178520244503      1.40356491394718      0.08197555197492
  C   -0.54716933749209     -1.47363059461767     -0.45005808852741
  N   -0.54002504702538     -2.64564087538493     -0.51807447919287
