13
Coordinates from ORCA-job run
  C   0.62243673896743      0.75838020985459     -0.18307328024077
  C   -0.72595921849155      0.08840456222686     -0.49524059424158
  Br  1.73014130277646      0.99454635627195     -1.73612545088724
  H   -1.27370093475857      0.81058242508174     -1.11257136698200
  H   0.46127924327006      1.73878640961795      0.26333716450529
  N   1.36257691947096     -0.03256956010404      0.85820111928286
  O   1.73193062756757      0.59103045594851      1.84974508507927
  O   1.50420753003296     -1.23254547908929      0.65250147395973
  N   -1.52075337801887     -0.19887461993056      0.68097252783360
  H   -1.68330331677814      0.63092125244966      1.23679722059315
  H   -1.09865687171595     -0.92050958430609      1.25119087716127
  C   -0.58239449174317     -1.13044261248811     -1.30122360919551
  N   -0.52680415057920     -2.09670981553316     -1.96451116686807
