13
Coordinates from ORCA-job run
  C   0.64638592972739      0.65027068219482      0.20555976883431
  C   -0.56349057890806     -0.09661099619848     -0.36206901831013
  Br  0.95846137414102      2.30327808841770     -0.71827501195182
  H   -0.38850496268497     -0.23216240573292     -1.43184635991305
  H   0.53959323499430      0.86514746560547      1.26823930765025
  N   1.87074769336902     -0.21407831623431      0.07211900575285
  O   2.03744284420552     -0.76463428133059     -1.01098236198495
  O   2.59394348184229     -0.29445634838091      1.05925817748657
  N   -1.76190446202877      0.69358730732018     -0.16723926418842
  H   -2.49735707192552      0.37594013582373     -0.78469200536582
  H   -2.09472874486130      0.61527006035871      0.78613750621615
  C   -0.62013719132643     -1.43227362372217      0.26913200368880
  N   -0.72145154654449     -2.46827776812127      0.81465825208528
