13
Coordinates from ORCA-job run
  C   0.67394893124227      0.79654838295678     -0.12708748142563
  C   -0.67803764713397      0.15635938694636     -0.42079056044402
  Br  1.71936554314770      1.07602672065070     -1.71819047087443
  H   -1.21903047443953      0.90206448343894     -1.01368331857572
  H   0.52248149994886      1.75822925041904      0.35966195190712
  N   1.47803262144600     -0.02464905140365      0.84730522048111
  O   2.33054115597432      0.58010282448429      1.48366789589576
  O   1.21765222306769     -1.22246210704004      0.92533579364623
  N   -1.37793508063234     -0.01014547612219      0.84209102040846
  H   -1.09990789312297     -0.87934251860698      1.28084638093733
  H   -2.37784236635657     -0.03416253535908      0.68952803806778
  C   -0.58336245924541     -1.06021155071312     -1.24880580848783
  N   -0.60590605389607     -2.03735780965106     -1.89987866153611
