13
Coordinates from ORCA-job run
  C   0.78553897095389      0.42656161564898     -0.29668172821368
  C   -0.68136509580847      0.00026874903284     -0.15589591650264
  Br  1.87628975235430     -0.87309296672954     -1.19382728835230
  H   -1.14574234778164      0.76642811868016      0.48788629415026
  H   0.86953195516813      1.36156373112148     -0.85058517471016
  N   1.38913100273816      0.71872197274511      1.05648940067107
  O   0.88473619713668      0.17367648084260      2.03649861201554
  O   2.34865530562827      1.47811664070342      1.06584544053870
  N   -0.83471325881146     -1.35725561876248      0.32841365296079
  H   -0.58052448870197     -1.39013842467837      1.30696033217776
  H   -1.79560834432361     -1.65703556598655      0.22436690356657
  C   -1.30058669952066      0.12113551710132     -1.48143687215316
  N   -1.81634294903163      0.23004975028104     -2.53003365614874
