13
Coordinates from ORCA-job run
  C   0.59253001579502      0.49848652285583      0.33345459484056
  C   -0.62184372342927     -0.11579472631258     -0.39096302063681
  Br  0.83048519994462      2.34565585487298     -0.15723509557809
  H   -0.42198634130773     -0.04976993651248     -1.46416525319601
  H   0.50227292438512      0.44239200834875      1.41759124732580
  N   1.83807541007757     -0.26308069771827     -0.02955667542599
  O   2.54206030379640     -0.63470829809821      0.90376807451032
  O   2.02927308377255     -0.46200599445149     -1.22431578504509
  N   -1.90017471395009      0.49711372830586     -0.11221568465209
  H   -2.10617345635727      0.49315982441864      0.87923212691075
  H   -1.92112872393848      1.44880360211720     -0.45450479307988
  C   -0.67109200150363     -1.53855628765093     -0.02129881771351
  N   -0.69129797728486     -2.66169560017531      0.32020908174003
