13
Coordinates from ORCA-job run
  C   0.63805977420504      0.76188108566721     -0.15518170484090
  C   -0.74197145872585      0.11637863734170     -0.45025358223653
  Br  1.55136397400004      1.25267053933776     -1.76540458880175
  H   -1.24348640663037      0.80309637879506     -1.14026843150772
  H   0.50565419601032      1.65278230704927      0.45713225223356
  N   1.45041898521695     -0.19280589365746      0.68573988906495
  O   1.13552513229103     -0.18180975815166      1.87706944878305
  O   2.26730504627947     -0.92820367803696      0.15359645365793
  N   -1.60652157823499     -0.08767041786213      0.68903356581942
  H   -1.15596842529143     -0.64988675026790      1.40034453612849
  H   -1.87044559652168      0.79946551432950      1.09885668905820
  C   -0.54495156115806     -1.15667631439304     -1.15825869450967
  N   -0.38298208144046     -2.18922165015128     -1.69240583284901
