13
Coordinates from ORCA-job run
  C   0.71639469049591      0.77498342494416     -0.17709699798447
  C   -0.69589734498127      0.21105649407385     -0.39747442233358
  Br  1.56124541328397      1.23665193586016     -1.83149347521508
  H   -1.15778456011638      0.84712819905442     -1.15756327412234
  H   0.64690431170163      1.66018249211173      0.45418583096176
  N   1.53661572198411     -0.23492447045853      0.60779226783623
  O   2.48688032145370     -0.79627761887816      0.09032098526107
  O   1.11086168958181     -0.41526105760338      1.74815546286633
  N   -1.48909120967691      0.33197129081224      0.81150599099179
  H   -1.12944601828069     -0.27609593474034      1.53643472907433
  H   -2.44994851935101      0.07736930261789      0.61711495348692
  C   -0.60021895451326     -1.15398345325836     -0.95758182708468
  N   -0.53751554158164     -2.26180060453571     -1.34430022373828
