16

C	-0.320451	0.089155	-1.487127
C	0.0	0.0	0.0
Cl	-0.066692	-1.466812	-2.296292
H	1.09408	0.0	0.0
H	-0.310007	0.964882	0.420799
N	-1.801865	0.473649	-1.624854
O	-2.649993	-0.398704	-1.76569
O	-2.035569	1.671957	-1.479287
N	0.439817	1.084429	-2.191819
H	1.420164	0.841529	-2.044802
H	0.285312	1.97168	-1.723627
C	-0.608662	-1.151529	0.779122
H	-1.700528	-1.168044	0.708008
H	-0.225729	-2.107469	0.421887
H	-0.333798	-1.056589	1.83228
Cl	3.434692	0.0	0.0
