16

C	-0.318869	0.048529	-1.490887
C	0.0	0.0	0.0
Cl	-0.143928	-1.584445	-2.189243
H	1.094431	0.0	0.0
H	-0.390697	-0.917289	0.442806
N	-1.790581	0.450002	-1.63509
O	-2.022118	1.606443	-1.981948
O	-2.634505	-0.362688	-1.275026
N	0.474158	0.947057	-2.268132
H	0.267032	1.897972	-1.98793
H	1.447628	0.75005	-2.034818
C	-0.497347	1.227622	0.754546
H	-0.148612	2.153581	0.291209
H	-0.090361	1.204815	1.767301
H	-1.589024	1.262708	0.823103
Cl	3.431361	0.0	0.0
