16

C	-0.455425	-0.030876	-1.432172
C	0.0	0.0	0.0
Cl	-2.350308	0.241781	-1.463853
H	1.094174	0.0	0.0
H	-0.348488	0.928983	0.448506
N	-0.00807	1.20749	-2.207888
O	0.089791	1.082158	-3.424738
O	0.164188	2.238155	-1.575579
N	-0.064986	-1.143603	-2.144754
H	-0.362538	-1.142684	-3.107851
H	-0.241172	-2.010874	-1.665244
C	-0.476002	-1.208581	0.800302
H	-1.558826	-1.346127	0.750915
H	-0.190987	-1.070968	1.844788
H	0.022738	-2.123426	0.468961
Cl	3.478689	0.0	0.0
