16

C	-0.274299	0.034342	-1.488431
C	0.0	0.0	0.0
Cl	-0.150875	-1.692883	-2.16297
H	1.095327	0.0	0.0
H	-0.387457	-0.913803	0.445382
N	-1.727036	0.371013	-1.834161
O	-2.592202	-0.037553	-1.06648
O	-1.932179	0.994967	-2.871222
N	0.564594	0.947848	-2.11875
H	0.486432	0.937148	-3.125045
H	1.525434	0.817288	-1.802576
C	-0.486639	1.250104	0.726082
H	-0.154397	2.148109	0.202613
H	-1.574049	1.273576	0.82444
H	-0.046331	1.269492	1.725467
Cl	3.437139	0.0	0.0
