16

C	-0.357919	-0.112697	-1.477614
C	0.0	0.0	0.0
Cl	-1.996735	-0.799656	-1.696711
H	1.097317	0.0	0.0
H	-0.300388	-0.950652	0.453243
N	-0.368938	1.309112	-2.062438
O	-1.413515	1.950468	-2.056161
O	0.727474	1.728025	-2.411722
N	0.566124	-0.872128	-2.27002
H	0.490366	-1.841901	-1.983257
H	1.506752	-0.56148	-2.017433
C	-0.598676	1.171091	0.757386
H	-1.688658	1.197566	0.678119
H	-0.324802	1.094066	1.811802
H	-0.201332	2.118794	0.388527
Cl	3.447202	0.0	0.0
