16

C	-0.285086	0.034637	-1.489589
C	0.0	0.0	0.0
Cl	-0.413008	-1.691596	-2.177661
H	1.095428	0.0	0.0
H	-0.316848	0.973288	0.384975
N	-1.672958	0.587699	-1.842777
O	-2.514676	0.64289	-0.951223
O	-1.846876	0.939677	-3.004581
N	0.652651	0.832202	-2.135431
H	0.586547	0.799402	-3.142135
H	1.596267	0.656598	-1.789951
C	-0.58206	-1.131662	0.825286
H	-0.368619	-0.940327	1.879817
H	-1.663132	-1.210817	0.699973
H	-0.121969	-2.083724	0.563427
Cl	3.448496	0.0	0.0
