19

C	0.0	0.0	0.0
C	-0.676795	-0.03026	-1.360762
Br	1.956647	0.0	0.0
H	-1.781985	0.098796	-1.072247
C	-0.454646	1.246121	0.76286
H	-0.090318	2.165646	0.309298
H	-1.549097	1.207262	0.753167
H	-0.075664	1.180232	1.785825
C	-0.479355	-1.231633	0.774058
H	-1.574602	-1.183927	0.730088
H	-0.092485	-2.156596	0.348998
H	-0.138297	-1.153387	1.808856
N	-0.564842	-1.318872	-2.112175
O	0.420224	-2.037047	-1.955069
O	-1.49693	-1.553107	-2.880919
N	-0.192236	1.014531	-2.307692
O	-0.451403	2.1806	-2.019501
O	0.43235	0.657147	-3.30687
F	-2.95801	0.0	0.0
