19

C	0.0	0.0	0.0
C	-0.264773	0.046895	-1.519735
Br	1.970287	0.0	0.0
H	0.205752	-0.821809	-1.973556
C	-0.528291	1.150344	0.82962
H	-0.141491	2.112507	0.505248
H	-1.62383	1.065456	0.709139
H	-0.249159	0.976868	1.873184
C	-0.51719	-1.327083	0.523665
H	-0.175167	-1.468141	1.55242
H	-0.175962	-2.168748	-0.084869
H	-1.615647	-1.202798	0.482612
N	0.351169	1.208659	-2.255495
O	0.327519	2.327806	-1.761514
O	0.807135	0.930941	-3.36676
N	-1.690988	-0.004187	-2.056689
O	-2.087524	-1.131262	-2.313814
O	-2.219306	1.053349	-2.357743
F	-2.894519	0.0	0.0
