17
Coordinates from ORCA-job run
  C   -0.79327835979425      0.02961451897644     -0.40697639474810
  C   0.58366054097934      0.51736440698720      0.05466496487010
  F   -1.65807758435486      1.14907408472306     -0.19339906455189
  H   0.88622471694174      1.31773681296832     -0.62125742783892
  N   -0.72204220962531     -0.24355630633157     -1.80448193856629
  H   -0.87792926043791      0.60436093570850     -2.33373631023826
  H   -1.39676006477178     -0.94593246569829     -2.07519058574124
  N   -1.24573334540259     -1.10619538764134      0.29881740708844
  H   -1.14930394125867     -0.95427351579631      1.29515235573010
  H   -2.22133714163492     -1.27519284079734      0.08371920226387
  C   1.62264992713481     -0.58267272763141      0.12310229457148
  H   2.59867723559968     -0.16547967625533      0.38006877270176
  H   1.68211180878272     -1.06050010347862     -0.85425222156412
  H   1.34289594360339     -1.33064651871113      0.86318905104517
  N   0.47038425464660      1.18539625095147      1.39063740338806
  O   0.81512064333084      2.35994134363897      1.47004300795306
  O   0.06273683626117      0.49996118838737      2.32989948363679
