17
Coordinates from ORCA-job run
  C   -0.75267816235215     -0.33747955522369     -0.13626067847170
  C   0.65366209926996      0.27554563301104     -0.12448277708204
  F   -1.01420856875666     -0.89819651452711      1.12046965773788
  H   0.96264907377341      0.38941557582975     -1.16363465989772
  N   -1.73596406214455      0.62246489561477     -0.49754038937719
  H   -2.63547883159716      0.16584211587153     -0.58982660803969
  H   -1.80760585496809      1.34321147904065      0.21071862522666
  N   -0.71033318635629     -1.46005059328322     -1.04329417941965
  H   -0.97329765719937     -1.15764578025940     -1.97253523429064
  H   -1.35434883014797     -2.17066411512425     -0.72040359276750
  C   1.65359540728111     -0.55023508494547      0.66198858132163
  H   2.65449127978791     -0.12900932547105      0.55237864680023
  H   1.64816989025893     -1.56775362096866      0.27244943349715
  H   1.37902069306100     -0.56869436955701      1.71606311524597
  N   0.66097266050257      1.66796656579570      0.42409786774211
  O   -0.00085389011183      1.88511087318300      1.43995053072989
  O   1.37120793969917      2.48917182101341     -0.15013833895538
