17
Coordinates from ORCA-job run
  C   -0.77173331917455     -0.43039319202824     -0.10010007729776
  C   0.62524948493341      0.23740539600817     -0.07644598271513
  F   -0.99054065523906     -1.00130161092835      1.13601215730412
  H   0.91285110707217      0.46592202567991     -1.10489794523230
  N   -1.89825516432710      0.44434373370307     -0.30132965264312
  H   -2.02529902939494      1.05559248120414      0.49714594569578
  H   -1.77732572408719      1.01075181197601     -1.13158289513076
  N   -0.70698158306436     -1.49685051163595     -1.05496801767893
  H   -1.62543960668541     -1.92548986844208     -1.09876740951286
  H   -0.47877460875835     -1.14149555138432     -1.97525068188681
  C   1.67520686271423     -0.58756029513896      0.63532520147628
  H   1.40655274605393     -0.70957079714141      1.68220433368885
  H   1.72700408507717     -1.56933824478309      0.16534150685915
  H   2.65209822543221     -0.10399231904426      0.56928461288960
  N   0.48084967534789      1.58045534645496      0.56284229811783
  O   0.41763532037614      2.55379660099045     -0.18936570132058
  O   0.37690218372382      1.61872499450997      1.78655230738664
