17
Coordinates from ORCA-job run
  C   -0.70148208510827     -0.14532938769832     -0.64988200317731
  C   0.70842653120559      0.18319084384944     -0.12339434521701
  F   -0.83496278264810      0.68778288267778     -1.78192344574755
  H   1.41786401775495     -0.09229268355832     -0.90503950615159
  N   -0.84689210245292     -1.47773774977950     -1.14800320656946
  H   -0.14621499541084     -1.70076146064355     -1.84162958470350
  H   -0.83989178011124     -2.15004886143557     -0.39490192606707
  N   -1.70264936953629      0.06567053373699      0.31758817902190
  H   -1.65513586769072      1.00237783861141      0.69595355258863
  H   -2.60747433004434     -0.11041589533104     -0.10007247961660
  C   1.04456870435992     -0.46790195977165      1.20321449486625
  H   2.06674499716022     -0.22086697883813      1.49768161104009
  H   0.35245320800759     -0.13754296724817      1.97561980386485
  H   0.97127893528001     -1.55259213673993      1.11058659238114
  N   0.87832262792619      1.66764220617054      0.00823040336425
  O   1.76558218554981      2.19625639547165     -0.65410576343557
  O   0.12946210575844      2.25356938052637      0.79107762355856
