17
Coordinates from ORCA-job run
  C   -0.59662601793090     -0.28708284965351     -0.71975853888597
  C   0.67794256511723      0.32853562132638     -0.10072062183007
  F   -0.14271070652633     -0.77327860821102     -1.94541739831570
  H   1.08053083791499      1.01707258918617     -0.84456599925677
  N   -1.07783450318060     -1.37371571340913      0.05219440690487
  H   -1.05594280657633     -1.16744704613795      1.04167444649772
  H   -2.01662711801396     -1.61135419589385     -0.24202681608542
  N   -1.63008977387596      0.65243701766282     -1.05532937914975
  H   -1.27795180808378      1.42399098921119     -1.60900470056810
  H   -2.08643806997575      1.00741690552445     -0.22587894246861
  C   1.71730473156979     -0.68087404285579      0.34149973722086
  H   2.62299299197612     -0.17131518188744      0.67802688159265
  H   1.33966859440237     -1.30957639731546      1.14534862383031
  H   1.96327907635950     -1.31731509594211     -0.50839098283681
  N   0.27359720815363      1.20127671708365      1.04260767222621
  O   0.38231956196413      2.41753711801274      0.90171393688422
  O   -0.17341476329416      0.64269217329886      2.04702767424037
