17
Coordinates from ORCA-job run
  C   -0.65052073367038     -0.20563941757237     -0.59516042553549
  C   0.66650395933134      0.41913719765467     -0.09335927949343
  F   -0.28290389081465     -1.06237108622015     -1.64996663993040
  H   0.91904572670481      1.22127615714120     -0.78882158165908
  N   -1.26984858654990     -0.94486586604154      0.45384077955635
  H   -0.68623737948512     -1.71141462173436      0.76682476376141
  H   -2.15944371514401     -1.31830378780080      0.14681340686667
  N   -1.48225750678900      0.79356801485846     -1.18284509885398
  H   -2.36567519182729      0.39303008578562     -1.47585829343369
  H   -1.64968232132442      1.53367498045315     -0.51309730319433
  C   1.80849450028077     -0.56161698387811      0.05772515638139
  H   1.56698648689563     -1.36850822857338      0.74903313621585
  H   2.69046369662007     -0.05007075500002      0.44446025047464
  H   2.04336045006822     -0.98333815486146     -0.91823875609555
  N   0.36834722324942      1.10683353646097      1.21029139714823
  O   0.77936263080527      0.59661932428412      2.24628619536413
  O   -0.29599534835076      2.14098960504400      1.14307229242727
