17
Coordinates from ORCA-job run
  C   -0.89776254152392      0.03598026507120     -0.33872946222806
  C   0.52015537581753      0.55305365565032     -0.01218479224771
  F   -1.73426147716761      1.13256684654845     -0.06461901724402
  H   0.77597798683151      1.33655542551164     -0.72786774005365
  N   -0.92632559563715     -0.33606704765124     -1.70668511771025
  H   -1.84559527793106     -0.70521515810649     -1.91996958140100
  H   -0.73987018992813      0.46088158012669     -2.30190769648333
  N   -1.41175308807720     -1.05233386451690      0.42375260434497
  H   -0.91600658745952     -1.90357555030523      0.19754279170106
  H   -1.33022502318126     -0.85999967204935      1.41356518672829
  C   1.56920281169047     -0.53850692379555      0.02486112414086
  H   2.55929730125988     -0.11152564744153      0.19660746744273
  H   1.35464335127616     -1.24540758656428      0.82629492835881
  H   1.57130519302522     -1.06440995072981     -0.93006870758959
  N   0.48776612839183      1.25950273695484      1.30575821702265
  O   0.76747042297469      2.45409102814165      1.31895598220234
  O   0.19398120963856      0.58540986315559      2.29369381301590
