17
Coordinates from ORCA-job run
  C   -0.62161413974989     -0.35604467007825     -0.66572970357829
  C   0.63431035914233      0.38701884148084     -0.15910960222840
  F   -0.22374358443072     -0.82130908787380     -1.91857630851195
  H   0.91326058433850      1.09121984474189     -0.94381156624436
  N   -0.93545992434841     -1.46868491789943      0.15400794931616
  H   -1.86542480781911     -1.80145953885310     -0.06737283809624
  H   -0.86462218117818     -1.23860632708231      1.13597740528934
  N   -1.76221137169889      0.47767797971017     -0.92773967885447
  H   -1.52866612934998      1.26551760111944     -1.52000204598100
  H   -2.17980573599967      0.80828318248511     -0.06823655967152
  C   1.79351046830388     -0.51321013162145      0.21672763051905
  H   1.53908710473637     -1.15093121047967      1.06097296776863
  H   2.67264300082607      0.08431112825025      0.46831678855669
  H   2.02832123283326     -1.14802673180654     -0.63752295663130
  N   0.24229695187253      1.24614345304899      0.99835286584580
  O   -0.09162647471772      0.67245129357385      2.03771780885592
  O   0.24974464723963      2.46464929128401      0.83702784364594
