16

C	0.0	0.0	0.0
C	-0.416487	0.065805	-1.476092
Br	1.953489	0.0	0.0
H	0.01921	0.952893	-1.940791
H	-0.285086	-0.972824	0.403652
C	-0.58628	1.137081	0.805106
H	-1.675255	1.028107	0.807541
H	-0.225016	1.108491	1.834696
H	-0.318518	2.102927	0.368374
N	-1.802259	-0.013129	-1.76876
H	-2.360616	-0.558339	-1.115906
H	-2.243327	0.893693	-1.809556
N	0.240198	-1.092263	-2.21222
O	0.856116	-0.839159	-3.243914
O	0.054686	-2.213414	-1.748894
Br	-4.548986	0.0	0.0
