16

C	0.0	0.0	0.0
C	-0.582361	0.22234	-1.40252
Br	1.955108	0.0	0.0
H	-1.641537	0.459905	-1.241421
H	-0.291137	-1.013238	0.281125
C	-0.48045	0.990956	1.044658
H	-1.573421	0.964136	1.054014
H	-0.099507	0.709749	2.028951
H	-0.144257	2.000238	0.808298
N	-0.479294	-0.866322	-2.319981
H	-1.243902	-1.503809	-2.138771
H	0.409259	-1.343019	-2.237254
N	0.038653	1.45179	-2.016742
O	0.908249	1.300376	-2.869681
O	-0.349309	2.538751	-1.586709
Br	-3.846717	0.0	0.0
