17

C	0.0	0.0	0.0
C	-0.426868	0.314001	-1.461417
Br	1.96692	0.0	0.0
H	0.030572	-0.456216	-2.09341
C	-0.569856	0.977857	1.013414
H	-1.661232	0.88074	1.014033
H	-0.289148	1.99781	0.742894
H	-0.191689	0.753836	2.011901
C	-0.383155	-1.375521	0.315436
N	-0.654417	-2.493048	0.559247
C	0.133587	1.602247	-1.881728
N	0.536431	2.6444	-2.244916
C	-1.9449	0.310507	-1.650537
H	-2.422585	1.173387	-1.193087
H	-2.41789	-0.560888	-1.199889
H	-2.174293	0.320842	-2.718049
Cl	-4.750166	0.0	0.0
