17

C	0.0	0.0	0.0
C	-0.428143	0.127977	-1.486125
Br	1.9668	0.0	0.0
H	0.058483	-0.694394	-2.023013
C	-0.565263	1.098331	0.885214
H	-0.271586	2.075753	0.497324
H	-0.197278	0.991228	1.906455
H	-1.657764	1.013241	0.889455
C	-0.380291	-1.324566	0.489489
N	-0.651103	-2.404091	0.868386
C	0.094811	1.375486	-2.050981
N	0.469412	2.371127	-2.549359
C	-1.943676	0.0466	-1.684995
H	-2.14987	-0.083335	-2.74972
H	-2.466636	0.930331	-1.330369
H	-2.380423	-0.792338	-1.144771
Cl	-4.746271	0.0	0.0
