17

C	0.0	0.0	0.0
C	-0.455074	-0.093354	-1.508365
Br	1.969105	0.0	0.0
H	0.458077	-0.063925	-2.110526
C	-0.490884	1.240495	0.734985
H	-0.12221	1.232527	1.762563
H	-0.13218	2.139318	0.229543
H	-1.586207	1.213724	0.724429
C	-0.357224	-1.207919	0.744058
N	-0.56346	-2.19167	1.353776
C	-1.18814	1.107978	-1.921447
N	-1.630695	2.100094	-2.36807
C	-1.20257	-1.381392	-1.864488
H	-1.45108	-1.363922	-2.92911
H	-2.123873	-1.44755	-1.284904
H	-0.560408	-2.244344	-1.670412
Cl	-3.688692	0.0	0.0
