17

C	0.0	0.0	0.0
C	-0.574416	-0.187831	-1.419136
Br	1.965453	0.0	0.0
H	-1.6575	-0.33401	-1.238415
C	-0.498127	1.279969	0.657949
H	-0.105753	2.15208	0.133174
H	-1.592231	1.256923	0.617978
H	-0.165916	1.316044	1.696696
C	-0.350439	-1.165622	0.818933
N	-0.573311	-2.113052	1.478093
C	-0.035682	-1.390523	-2.05237
N	0.37947	-2.337382	-2.611023
C	-0.389179	1.029378	-2.324731
H	-1.006131	1.852364	-1.963176
H	0.658047	1.339776	-2.368012
H	-0.721083	0.783824	-3.335666
Cl	-3.658215	0.0	0.0
