13
Coordinates from ORCA-job run
  C   -1.12306705379960      0.73084633122899     -0.28178502889273
  C   -0.01179780991597     -0.30804625592270     -0.21267219559519
  Br  -0.94316930213480      1.90621680768080     -1.82372306963264
  H   0.04990917117122     -0.81037213881734     -1.19000297870616
  H   -2.09874765213713      0.25392801731289     -0.37973366592924
  H   -1.11475531373151      1.35446091500858      0.61171334109075
  N   -0.38802987238039     -1.21214514278982      0.87694611683122
  H   -1.13698085311439     -1.82696252866871      0.57972077905614
  H   0.40050624723047     -1.79711809069274      1.12705923361146
  C   1.33626847048782      0.31416525241732      0.10793954975626
  H   1.62225592348433      1.05242697597703     -0.64137689182821
  H   1.29314859902602      0.79740044241497      1.08758074956831
  H   2.11445944581393     -0.45380058514926      0.13833406067003
