13
Coordinates from ORCA-job run
  C   -0.93567867032774      0.82640602758161     -0.31844011072761
  C   0.04601085140010     -0.34305813494617     -0.26636601000951
  Br  -2.75544243133143      0.23601699993913     -0.69745628259166
  H   0.00188917949698     -0.85875125039432     -1.23186120081123
  H   -0.97425506935365      1.34553282023661      0.64149757190735
  H   -0.67871953038510      1.53528217917191     -1.10673934834465
  N   -0.22568259486720     -1.33710152535384      0.76100319448088
  H   -0.21160254953951     -0.89730709536007      1.67535852550765
  H   -1.14950963102349     -1.73140742365415      0.62788860583167
  C   1.45436264100648      0.20652630281543     -0.06540414727636
  H   1.52963220411221      0.73451502759926      0.89101867405258
  H   2.16581880303688     -0.61990296109177     -0.05171743045627
  H   1.73417679777547      0.90224903345635     -0.85978204156284
