13
Coordinates from ORCA-job run
  C   -1.10597842071434      0.64929814127893     -0.21856096576495
  C   0.05179254785767     -0.34462758881896     -0.29285099070108
  Br  -0.99562338943803      2.05991207589141     -1.56280306110028
  H   0.08863341844415     -0.74876003462821     -1.31024308608556
  H   -2.05811973708929      0.14670323968377     -0.39323174979419
  H   -1.13078338020984      1.14274434475718      0.75555894807588
  N   -0.16870873609376     -1.47088196449083      0.61282714838542
  H   -1.04800586117777     -1.93195585979823      0.40882852077635
  H   -0.20465702159557     -1.14416878360022      1.57246854587830
  C   1.39046529452897      0.29390682097469      0.03773706554430
  H   1.63689011881345      1.09628970974350     -0.65761927190235
  H   1.36979802298702      0.71507861042737      1.04900861376921
  H   2.17329714368736     -0.46453871142041      0.00088028291897
