13
Coordinates from ORCA-job run
  C   -1.07432342207243      0.73195307818969     -0.56501357199623
  C   -0.04359039041603     -0.35462735681618     -0.31181298497152
  Br  -1.38659042360857      1.85931583745940      1.00157196796353
  H   0.01950685854051     -0.89342653384391     -1.26779435677311
  H   -2.03642498476812      0.28256179035821     -0.80464137581213
  H   -0.75810346519499      1.40571071214813     -1.36112030726759
  N   -0.57533035074721     -1.30298083304198      0.66272258756984
  H   -0.64183874773179     -0.84931607444665      1.56767851731276
  H   0.06655310204700     -2.08063292426764      0.76391779835655
  C   1.34221492849109      0.19940322796309      0.01450901593460
  H   1.69021206880087      0.89687272417291     -0.75359550122125
  H   2.06490025806501     -0.61830291646613      0.07970833085546
  H   1.33281456859465      0.72246926859107      0.97286988004909
