13
Coordinates from ORCA-job run
  C   -1.04455208083462      0.63392726583585     -0.54520590304421
  C   0.06983782832192     -0.38186513344160     -0.28541797029298
  Br  -1.44017306760968      1.73858170708884      1.01428797330963
  H   0.16141772723045     -0.93238428335412     -1.23275609719251
  H   -1.97906412447207      0.12910975492959     -0.79486546329474
  H   -0.78055883561663      1.32138710706167     -1.35066378346752
  N   -0.21552010787311     -1.36722495626509      0.74740267777310
  H   -0.33007702843828     -0.89652797207567      1.63834804854013
  H   -1.08408910301648     -1.85041374840318      0.54763661341692
  C   1.40771193243571      0.27992346596825      0.00701609965313
  H   2.18312971627787     -0.48457833793886      0.06634220660661
  H   1.67463065469206      0.99849556483974     -0.77191957786901
  H   1.37730648890285      0.81156956575459      0.96079517586146
