17

C	-0.58119	0.023363	-1.410171
C	0.0	0.0	0.0
Cl	-2.316732	0.003023	-1.525915
H	1.089491	0.0	0.0
N	-0.095721	1.284585	-2.146786
O	-0.00182	2.297078	-1.469066
O	0.078006	1.175046	-3.350741
N	0.011953	-1.139532	-2.263768
O	1.229336	-1.161007	-2.257285
O	-0.759096	-1.857167	-2.870945
N	-0.42121	-1.24719	0.71867
O	-0.557466	-2.254428	0.031369
O	-0.520273	-1.17882	1.936838
N	-0.460054	1.147318	0.866411
O	0.415538	1.816185	1.393742
O	-1.671476	1.280931	1.013454
Cl	3.139759	0.0	0.0
