17

C	-0.523076	-0.001219	-1.417428
C	0.0	0.0	0.0
Cl	-2.207781	-0.260307	-1.71238
H	1.085603	0.0	0.0
N	-0.064832	1.314123	-2.115346
O	-0.858664	1.899903	-2.831502
O	1.086458	1.628668	-1.853311
N	0.242663	-1.089257	-2.200433
O	0.476395	-0.857515	-3.376668
O	0.497351	-2.098826	-1.563587
N	-0.427082	-1.150552	0.877499
O	-1.60211	-1.506467	0.871345
O	0.487592	-1.669576	1.508372
N	-0.463385	1.251881	0.697023
O	-1.670114	1.363706	0.913417
O	0.41836	2.030451	1.044615
Cl	2.690925	0.0	0.0
