14

C	-0.29001	-0.11237	-1.484391
C	0.0	0.0	0.0
Br	-2.24767	-0.247644	-1.832072
H	1.10514	0.0	0.0
H	-0.041974	0.85424	-1.930485
N	0.376129	-1.26053	-2.016903
H	1.328823	-1.265964	-1.652351
H	0.413558	-1.214837	-3.027224
C	-0.469649	-1.18036	0.740331
N	-0.890319	-2.047439	1.412759
N	-0.47058	1.262613	0.545993
H	-1.437906	1.177276	0.836493
H	0.090404	1.484926	1.359011
Cl	3.301454	0.0	0.0
