14

C	-0.368113	0.121565	-1.480014
C	0.0	0.0	0.0
Br	-0.235559	-1.683321	-2.39292
H	1.103095	0.0	0.0
H	-1.420709	0.375497	-1.608221
N	0.482638	1.102671	-2.033009
H	1.459164	0.880031	-1.840552
H	0.336379	1.23824	-3.023234
C	-0.554856	-1.174173	0.663325
N	-0.979627	-2.10049	1.246406
N	-0.527758	1.214728	0.660895
H	-0.147028	1.223441	1.602846
H	-0.083997	1.989214	0.174112
Cl	3.349061	0.0	0.0
