14

C	-0.518079	0.029015	-1.437764
C	0.0	0.0	0.0
Br	-0.05349	1.703375	-2.306829
H	1.094364	0.0	0.0
H	0.019386	-0.732465	-2.01397
N	-1.97017	-0.101773	-1.452664
H	-2.202484	-1.052844	-1.179765
H	-2.310258	0.040793	-2.396011
C	-0.433873	-1.305483	0.552072
N	-0.858664	-2.312364	0.987176
N	-0.478047	1.12584	0.774973
H	-1.451572	1.010311	1.02113
H	0.085254	1.218041	1.609706
Cl	3.345184	0.0	0.0
