14

C	-0.550676	-0.008278	-1.424327
C	0.0	0.0	0.0
Br	0.22174	1.612582	-2.380047
H	1.098593	0.0	0.0
H	-0.130957	-0.830975	-2.000905
N	-1.958812	-0.018982	-1.412659
H	-2.354621	0.098345	-2.334524
H	-2.284417	0.707249	-0.784688
C	-0.456451	-1.229862	0.657506
N	-0.823439	-2.212895	1.184892
N	-0.557361	1.16298	0.721276
H	0.038831	1.948786	0.477898
H	-0.421799	1.007021	1.714196
Cl	3.350618	0.0	0.0
