12
Coordinates from ORCA-job run
  C   0.97716555175277      0.08713742811171      0.10251062630107
  C   -0.37177066432348      0.26836562814157      0.04066685516411
  H   1.55378272941939      0.96792416822109      0.36559722516648
  N   1.66788414405097     -1.03739108276730     -0.09925523977178
  H   2.66902406760414     -1.02837972573369     -0.03181011164637
  H   1.18945064034312     -1.86782781871430     -0.41015071124721
  N   -1.30941210563561     -0.79864462108039     -0.18431815239327
  O   -0.83491155695337     -1.84585499002793     -0.64794455497215
  O   -2.48033559507112     -0.64227072966039      0.13748307590361
  N   -0.89677726605779      1.61417380033439      0.20925843886153
  O   -0.27120416888460      2.36649156835005      0.95685545630486
  O   -1.89289577624440      1.91627637482520     -0.43989290767088
