12
Coordinates from ORCA-job run
  C   0.97225235354002      0.15965270036684      0.04219224032198
  C   -0.38624545109194      0.21461411626034      0.12973707215789
  H   1.49948827377334      1.01976116421169      0.44184304419441
  N   1.72731370417322     -0.82606624112799     -0.44838476043559
  H   1.28891487879292     -1.61730103756525     -0.89215038190360
  H   2.72610874764423     -0.73032360237551     -0.46394983527198
  N   -1.25361528766774     -0.86943938823231     -0.24532242016907
  O   -0.74493543326652     -1.74657065300404     -0.95855298777148
  O   -2.39625946975261     -0.89872771493208      0.19368684534402
  N   -0.99762143996330      1.44053349208982      0.61853122170725
  O   -0.36340232837117      2.08378580769082      1.45533974867283
  O   -2.07299854781046      1.76908135661766      0.12803021315335
