12
Coordinates from ORCA-job run
  C   0.98145858469400      0.08393229259383      0.05317714977420
  C   -0.36632280352966      0.27834515063178      0.00933664871318
  H   1.57716286744080      0.98130559616848      0.18468296640676
  N   1.65263578431848     -1.06400553829210     -0.06556355368992
  H   2.65414729326892     -1.06639990067757     -0.00308631583134
  H   1.14758946636995     -1.93391204819618     -0.12326900955056
  N   -1.31393857164144     -0.76829030721472     -0.26510780277254
  O   -2.43697186782385     -0.47041846649614     -0.65132342672147
  O   -0.89058287167910     -1.92668739177753     -0.14034619270421
  N   -0.87989297922550      1.61655920314487      0.25652716679326
  O   -0.17275369103824      2.55895398274961     -0.10142363201592
  O   -1.95253121115436      1.70961742736567      0.84439600159856
