12
Coordinates from ORCA-job run
  C   0.98311313471569      0.13220353780720     -0.13849716725423
  C   -0.35093727436124      0.24943118984232      0.09961055761364
  H   1.54574973253313      1.06111841272885     -0.16419244154985
  N   1.68768522018855     -0.99004389450421     -0.31277231217216
  H   1.21637928304372     -1.87941303270938     -0.32960972950691
  H   2.67178955948920     -0.94531519930256     -0.49921833086075
  N   -1.28962822731189     -0.82985813653645      0.06658342165912
  O   -0.81802108170437     -1.97205403785078     -0.02465143424010
  O   -2.48515867624989     -0.56056510379481      0.11278541625986
  N   -0.92529177196949      1.56819953823183      0.32523181355060
  O   -0.72059351430543      2.43279909959018     -0.52722544324816
  O   -1.51508638406797      1.73149762649780      1.39195564974897
