12
Coordinates from ORCA-job run
  C   0.97240682313871      0.10263986918788      0.12772605414541
  C   -0.37390556842611      0.26792920473196      0.00272380814451
  H   1.53205218419252      1.00499142483041      0.35009967667952
  N   1.68016385690136     -1.02285891093700      0.00804804781251
  H   1.20973103901601     -1.89722326763180     -0.16434405005178
  H   2.68145824025006     -0.99549414835456      0.07275931613983
  N   -1.27273581444300     -0.78171632107053     -0.39051753240032
  O   -0.82658164075466     -1.93488592447189     -0.29893278947485
  O   -2.37290286217538     -0.49048264481765     -0.84203431949270
  N   -0.93629922923976      1.57921839324795      0.30016173888367
  O   -0.23588795870116      2.55727245215031      0.04123058039367
  O   -2.05849906975857      1.61260987313491      0.79307946922053
