12
Coordinates from ORCA-job run
  C   0.98069693762273      0.08960134521534      0.05573063126570
  C   -0.36790752203854      0.27661509726178      0.00360480309135
  H   1.57088910604675      0.99171231701600      0.17963847327289
  N   1.65854299280289     -1.05585166588168     -0.04869426650866
  H   2.65974066994888     -1.05220444232041      0.01856157236084
  H   1.15825548212384     -1.92898322965481     -0.09875852756961
  N   -1.30922860448899     -0.77773141277379     -0.26182477143897
  O   -0.88037775205228     -1.93254026415564     -0.12319788804566
  O   -2.43278514250529     -0.48991637768609     -0.65417996895709
  N   -0.88881677508940      1.61460622016613      0.23721897195880
  O   -0.18558459111507      2.55721435468219     -0.12762740293182
  O   -1.96342480125553      1.70747805813099      0.82152837350223
