12
Coordinates from ORCA-job run
  C   0.80160792204970     -0.45896719695263     -0.34589020964637
  C   -0.44175450169257      0.05011952089354     -0.11939815997933
  H   0.89297443108906     -1.08991415046025     -1.22397905312178
  N   1.91553479870594     -0.25924024616417      0.36243428183436
  H   2.76988912671536     -0.70821055760985      0.08777082847552
  H   1.87291273970934      0.26363756592402      1.22263023749472
  N   -1.53267272981567     -0.38480494972687     -0.97781539967882
  O   -1.24913853181469     -0.65227718628149     -2.14581388152176
  O   -2.64166254116386     -0.49960577970825     -0.46616706551901
  N   -0.73989024750973      0.98941213688089      0.92799919981828
  O   0.10595764128175      1.07970775714347      1.82971844363856
  O   -1.75375810755464      1.67114308606159      0.84751077820565
