12
Coordinates from ORCA-job run
  C   0.79975607351469     -0.50084642208380     -0.30452172079498
  C   -0.43059764690108      0.03575725348364     -0.11971310786150
  H   0.88393522541074     -1.19608575476462     -1.13480628162470
  N   1.91479889810034     -0.30015671076365      0.41459002418155
  H   1.94839053318549      0.44664069084975      1.08833170033401
  H   2.77650875753575     -0.68002711017640      0.06636386130775
  N   -0.79057648211804      0.85743418696574      1.00916882689083
  O   -1.97241353206826      0.93950765550483      1.31736047485540
  O   0.14431791341075      1.42098930512290      1.59114333697287
  N   -1.51217555829678     -0.27847787237127     -1.03898779708826
  O   -2.21821853902245      0.66706620792270     -1.37830930986230
  O   -1.54472564275115     -1.41380142968982     -1.51062000731067
