12
Coordinates from ORCA-job run
  C   0.77103696681712     -0.37600021989246     -0.48539678215938
  C   -0.45202195370456      0.05379545369131     -0.05675457467255
  H   0.76174379010790     -0.93780288667174     -1.41284134223541
  N   1.96054230853650     -0.19253832384150      0.08250179569778
  H   2.78395506705113     -0.55766407096787     -0.36052049025209
  H   2.00829643997915      0.22023555454631      1.00056264119407
  N   -1.62000504516265     -0.38873597812540     -0.80922304523096
  O   -2.63397112457620     -0.65513734782158     -0.17893946381690
  O   -1.50685811407301     -0.42907012970477     -2.03650954217604
  N   -0.65421158624300      0.87705280984554      1.10216614744661
  O   0.30471772932361      0.94379738286827      1.88513310824514
  O   -1.72422447805600      1.44106775607389      1.26982154795972
