12
Coordinates from ORCA-job run
  C   0.97428980455880      0.15648183896894      0.00211223676989
  C   -0.38026337781034      0.22195149332196      0.13323280749965
  H   1.51859748875406      1.02583472989486      0.35624124215871
  N   1.70721220412424     -0.84773983160385     -0.48443019739771
  H   2.70551931549767     -0.75954775209233     -0.53447958989883
  H   1.24949738661372     -1.64983775169797     -0.88725752093673
  N   -1.26431333169014     -0.86968049960448     -0.17541443814771
  O   -0.78526242866683     -1.77078346957070     -0.87911011652410
  O   -2.39017283110799     -0.87991706411273      0.30572968272965
  N   -0.96947726249934      1.46336748719319      0.60927093021553
  O   -2.06054959533198      1.78280038489602      0.14836771232017
  O   -0.30407737244188      2.12607043440710      1.40573725121149
