12
Coordinates from ORCA-job run
  C   0.97473355025406      0.14991615214385      0.02557434455440
  C   -0.38387620619843      0.25150957265610      0.03549624963693
  H   1.51188053383198      1.07982930083476      0.18122716660147
  N   1.71826536455095     -0.94133226564029     -0.17118594891793
  H   2.71919082984975     -0.87654067538648     -0.14161195692643
  H   1.27233043701219     -1.84092225455254     -0.25499181670222
  N   -0.97848189549962      1.53743664879782      0.36483371728594
  O   -0.35078766883526      2.54291813190656      0.03129860889955
  O   -2.03324351529511      1.52708025830655      0.99116451000399
  N   -1.26696578706724     -0.84463179804018     -0.25980813609397
  O   -2.42039950706759     -0.60797377068022     -0.59561633150443
  O   -0.76164613553568     -1.97528930034591     -0.20538040683729
