12
Coordinates from ORCA-job run
  C   0.96404529698025      0.20238182460452     -0.04931042709752
  C   -0.39384287924579      0.23121910557050      0.05732189919153
  H   1.45909733914494      1.16320085722270      0.04688692572257
  N   1.75078982495894     -0.85195708792319     -0.27669686809337
  H   1.35008064316073     -1.77586403844369     -0.30860628173905
  H   2.74620502411552     -0.73287444052147     -0.32051411151605
  N   -1.03302223034564      1.49145740633357      0.40241394730209
  O   -0.48882018348056      2.52007813397209     -0.00015360903121
  O   -2.03580099706774      1.44089495876403      1.10722914847071
  N   -1.23404402387472     -0.91771732600610     -0.14810964061915
  O   -2.42085614194566     -0.75202942674542     -0.39955527416641
  O   -0.66383167240026     -2.01778996682753     -0.10990570842417
