12
Coordinates from ORCA-job run
  C   0.96921822603001      0.14743044260382      0.10916858885147
  C   -0.39175196356191      0.20726549104248      0.12451527135411
  H   1.47706528351775      0.96606282626596      0.60861776054725
  N   1.74697689025735     -0.80091940355285     -0.41858398420129
  H   2.74532951946054     -0.70891813761953     -0.37594219751235
  H   1.33052128495848     -1.54475229923713     -0.95570110212936
  N   -1.24069576850012     -0.83431952565269     -0.38847047402081
  O   -0.69618457512196     -1.65220768641887     -1.14434454628752
  O   -2.40597443346619     -0.89189379742269     -0.01714564348286
  N   -1.02572642750171      1.39065928780542      0.68415408693054
  O   -0.43684210831969      1.95354676074784      1.60747998462439
  O   -2.07093592775256      1.76904604143823      0.16525225532644
