12
Coordinates from ORCA-job run
  C   0.83470755626518     -0.42231058135968     -0.31313274460899
  C   -0.43329235274021      0.04781078649050     -0.14746681272045
  H   1.00502938371354     -0.99295550923726     -1.22021768557501
  N   1.88862408053501     -0.24989372650015      0.48813750315462
  H   2.77094727293255     -0.66407761970711      0.24965323217182
  H   1.77105995799144      0.21426896255912      1.37463013620604
  N   -0.82754214616062      0.91345145176316      0.93121123466007
  O   -1.84636712489995      1.58288469450184      0.81714641718830
  O   -0.05320069522458      0.95912094524793      1.89811635280148
  N   -1.44783248661559     -0.34561876670033     -1.11254837708586
  O   -2.58912309184979     -0.51203458008078     -0.69460873893520
  O   -1.07301035394696     -0.52964605697725     -2.27092051725683
