12
Coordinates from ORCA-job run
  C   0.96444323407318      0.19708740174263     -0.06527620279800
  C   -0.39053171626322      0.23222151113536      0.07293088973615
  H   1.46841801624193      1.15170536535352      0.04509063039210
  N   1.73787698408954     -0.85643114431056     -0.33813435429744
  H   2.73274936091532     -0.74249785394921     -0.40272504328735
  H   1.32981226743516     -1.77644004231014     -0.38513027343928
  N   -1.01294701918120      1.48689105385204      0.46521753907536
  O   -2.00184377386316      1.42375102068579      1.18843548126260
  O   -0.46946908333080      2.52254672552367      0.08013894498845
  N   -1.24355913785817     -0.90500457641127     -0.14520014691042
  O   -0.68139987411217     -2.00983655410964     -0.14583990485971
  O   -2.43354925814640     -0.72399290720219     -0.36950755986245
