12
Coordinates from ORCA-job run
  C   0.94776550599067      0.17315542606837     -0.21133969780152
  C   -0.38498551965882      0.24453112203998      0.06271155535667
  H   1.44098464913543      1.12552155706053     -0.37622354393196
  N   1.71034980460718     -0.91747383013895     -0.31487156947702
  H   1.31537244358884     -1.82455620642848     -0.12426976660463
  H   2.68468841864747     -0.82874778948558     -0.53779898518543
  N   -1.23295765207705     -0.90854276646191      0.20159916191533
  O   -0.65168925268367     -1.98758549330109      0.38755950050725
  O   -2.44376724947423     -0.77756161051397      0.07521086683949
  N   -0.98689464668039      1.55848462854987      0.22744728454352
  O   -1.89003732036803      1.66579103020523      1.05060299383282
  O   -0.50982918102739      2.47698393240601     -0.43962779999451
