12
Coordinates from ORCA-job run
  C   0.95524703264224      0.08826749416953      0.22922613017163
  C   -0.38154302934838      0.25621353649011      0.02636801915590
  H   1.47156161801355      0.94043125169306      0.65900127057570
  N   1.69593344463556     -0.99547153634066     -0.01427025442108
  H   1.28097448013638     -1.79079591397094     -0.47302669925829
  H   2.68164947588835     -0.97960822882086      0.17291888354585
  N   -1.25576681196810     -0.79015051193197     -0.43046989425242
  O   -2.46075203539988     -0.68782370703605     -0.23863270099774
  O   -0.70073226252740     -1.77018064363038     -0.94852458134880
  N   -0.95975802812066      1.56612291944836      0.28206361290392
  O   -0.44854970971498      2.23457217649760      1.18106096936191
  O   -1.87926417423669      1.92842316343222     -0.44471475543657
