12
Coordinates from ORCA-job run
  C   0.73743705851984     -0.60952684504792     -0.24132338394104
  C   -0.43009015530035      0.08515668058226     -0.13954467719602
  H   0.75539908289690     -1.38017629419981     -1.00503419844070
  N   1.85897987590996     -0.44388760315220      0.46367243038045
  H   1.87516468968503      0.21221430458143      1.22816338621307
  H   2.64958129875100     -1.03784131358432      0.29318947699470
  N   -1.55847284182721     -0.33603971042189     -0.95497756099075
  O   -2.67901141594882     -0.22161073578383     -0.46903916794380
  O   -1.29888079251231     -0.82299134351179     -2.05572279802919
  N   -0.61218020213524      1.21384361395646      0.73313830992108
  O   -1.52379402807313      1.99999539152691      0.50947315673320
  O   0.22686743003432      1.33886385505470      1.63700502629899
