12
Coordinates from ORCA-job run
  C   0.97811847842920      0.11509326623566      0.05735078812669
  C   -0.37761769384743      0.23551488509313      0.11718094128839
  H   1.53830604190550      0.95386181585967      0.45750399709292
  N   1.69451869165219     -0.90984884273671     -0.41057005395247
  H   2.69686802530819     -0.86327648078035     -0.40421792426025
  H   1.22679072217896     -1.68487711096870     -0.85298181971785
  N   -1.28790404844269     -0.81205268249013     -0.26041192307750
  O   -2.43749028044499     -0.78385329466441      0.16007919549155
  O   -0.80889510843500     -1.71942766567533     -0.95602912841196
  N   -0.94023212234047      1.49194968734414      0.58695967442594
  O   -0.29196735864390      2.11114254262095      1.43107370354517
  O   -1.99049534731956      1.86577388016208      0.07506254944937
