12
Coordinates from ORCA-job run
  C   0.96262133876419      0.17881874900705     -0.12007532964293
  C   -0.37123557148326      0.22490069554207      0.15363672359417
  H   1.51239612443680      1.09101191385606      0.08762859247629
  N   1.67270507865922     -0.85036170005773     -0.58810634491761
  H   1.20238257671436     -1.69910759297853     -0.85941188470326
  H   2.65654432817684     -0.74427789747765     -0.75461840371504
  N   -1.24548801187288     -0.91234854270953      0.04939299361600
  O   -0.81493407400685     -1.86589847725193     -0.61547120631120
  O   -2.31138489649610     -0.90246579584165      0.65184243869954
  N   -0.94807046124987      1.49338280418132      0.57038254311668
  O   -2.09302360711657      1.73934540376975      0.20497886763697
  O   -0.22351282452589      2.24800043996076      1.21982101015040
