12
Coordinates from ORCA-job run
  C   0.72637136532345     -0.60677438396997     -0.27870932505548
  C   -0.45164493134550      0.04664895586218     -0.07483577479614
  H   0.67736360955586     -1.45462283590062     -0.95413535889489
  N   1.91797735391837     -0.34535704529471      0.26367844500415
  H   2.03361414471974      0.46916098150271      0.84535821125924
  H   2.71344015430093     -0.90503912154276      0.01688152099975
  N   -1.61127821965360     -0.36040040335060     -0.85287271617373
  O   -2.40349800736225      0.51535836491831     -1.18489651050956
  O   -1.68475024539313     -1.55018324156315     -1.16149239162154
  N   -0.61342851281374      1.12383803187619      0.86440868344840
  O   0.43259291270380      1.66304393263590      1.25387222165521
  O   -1.73675962395392      1.40432676482650      1.26274299468459
