12
Coordinates from ORCA-job run
  C   0.62292519549607     -0.43634568137468     -0.58793725222923
  C   -0.50256675072560      0.32058849331468      0.04466693110972
  H   1.07397803503116      0.08084738441177     -1.43684607107639
  N   1.59379108256015     -1.10114319899733      0.17131680681535
  H   2.50722653082153     -0.68136814216731      0.11094248729011
  H   1.32293339289645     -1.27180158749158      1.12766033377896
  N   -1.42432658468306     -0.47454396469536     -0.50126962299206
  O   -0.42754754259358     -1.35007246087213     -1.11155414436151
  O   -2.60365420788694     -0.62415924550409     -0.62580477800465
  N   -0.68592395467506      1.53436395274587      0.75067728381869
  O   -1.83366289072928      1.86991816222601      1.03570984274379
  O   0.35582769448815      2.13571628840414      1.02243818310723
