12
Coordinates from ORCA-job run
  C   0.96271683049996      0.21099385747142     -0.04590083635843
  C   -0.39666709273865      0.22904700487591      0.04123064146112
  H   1.44532087398410      1.18103184880302      0.01425644644208
  N   1.76374623911186     -0.84335235573930     -0.21736532948813
  H   1.37318610979167     -1.77214877942133     -0.21273772432176
  H   2.75835072292198     -0.71546769805041     -0.25439830953536
  N   -1.22158638924466     -0.93729750396731     -0.12482352094786
  O   -2.40561100908059     -0.79590596120596     -0.40272015775743
  O   -0.64121764186072     -2.02834260645699     -0.02763040290494
  N   -1.05433666490958      1.49488769221845      0.32535897929478
  O   -0.51629648191899      2.51210768164869     -0.11266897369066
  O   -2.06660549655639      1.46144681982381      1.01739918780660
