12
Coordinates from ORCA-job run
  C   0.74469186508970     -0.41641810245762     -0.49559866227174
  C   -0.45392799408048      0.05483113965519     -0.05113585979341
  H   0.71210845321750     -0.95778248280284     -1.43544842409046
  N   1.94602991500163     -0.27538441148102      0.06946742408880
  H   2.02358409418466      0.16078673768690      0.97439630215497
  H   2.75321171680235     -0.68599285084029     -0.36269457860117
  N   -1.65434952043291     -0.30272031052504     -0.79057637733984
  O   -1.53523855348772     -0.45182452406233     -2.00705671541399
  O   -2.68317757457942     -0.47649455772802     -0.14544203102092
  N   -0.60088172458630      0.88719376167918      1.11248652179130
  O   -1.61260897190069      1.56557432903452      1.23671333597345
  O   0.36055829477167      0.89723127184137      1.89488906452300
