12
Coordinates from ORCA-job run
  C   0.76681358706924     -0.28828453072319     -0.55010474883527
  C   -0.45504662529695      0.04605898278236     -0.04867993605449
  H   0.76672127233220     -0.64611008078743     -1.57452857627021
  N   1.95496213092623     -0.20937122916366      0.05370461241937
  H   2.78300384419895     -0.50111285406415     -0.43229074593380
  H   2.00476830904509      0.05330046687839      1.02513454324036
  N   -1.63139001900977     -0.21257969573289     -0.86406740767459
  O   -2.65998078250464     -0.54120834081180     -0.28193765088929
  O   -1.49222179219606     -0.12893852204346     -2.08471090988254
  N   -0.64949833221772      0.64090542161589      1.24644064020016
  O   0.30193478721475      0.54145062562948      2.03480345441196
  O   -1.68906637956133      1.24588975642046      1.47523672526835
