12
Coordinates from ORCA-job run
  C   0.75810846405116     -0.43717432127234     -0.45524350752631
  C   -0.45018021754843      0.06251651888325     -0.07248377304849
  H   0.75761410508014     -0.99267639599106     -1.38739569098737
  N   1.93565436927581     -0.30894957367854      0.16074207532417
  H   2.75318676782178     -0.74108802109237     -0.22892031064786
  H   1.98133685090272      0.13995034124857      1.06159742748712
  N   -1.62278569234636     -0.28536907291475     -0.85974471109099
  O   -1.45236079406407     -0.45683394641702     -2.06707814377355
  O   -2.68255436402728     -0.42949098068361     -0.25891012802467
  N   -0.63364778790645      0.91554056937499      1.07080436016065
  O   0.29208496458999      0.91998001401727      1.89526484794203
  O   -1.63645666582901      1.61459486852562      1.13936755418527
