12
Coordinates from ORCA-job run
  C   0.98217136225704      0.07948887232287      0.04470590034327
  C   -0.36594263848339      0.27598597241460      0.04087810591266
  H   1.58193095486631      0.96825755970247      0.21157083103492
  N   1.64816036419657     -1.06734386580702     -0.10949984016321
  H   2.65153389493745     -1.06828085212250     -0.09691060146838
  H   1.14482468854424     -1.91085745497883     -0.33363164490982
  N   -1.32652205293132     -0.79017483993581     -0.05494114268633
  O   -0.89000436398114     -1.87566697439254     -0.46453293070553
  O   -2.47639524893273     -0.59218789497795      0.31631656038291
  N   -0.86612880557602      1.63842619653040      0.13595786687238
  O   -0.19395868379115      2.43393221877153      0.79296533409781
  O   -1.89066947110586      1.90742106247277     -0.48287843871067
