12
Coordinates from ORCA-job run
  C   0.77000165262092     -0.55603273124280     -0.26634066502384
  C   -0.43429425904134      0.06768516777040     -0.13615472443989
  H   0.82941807760754     -1.29217834355269     -1.06130284566831
  N   1.88079426278009     -0.35998779813361      0.44769030169073
  H   1.86381995002335      0.26785672502670      1.23550082521162
  H   2.70476072818885     -0.89716503809669      0.24918205734379
  N   -1.53825296345329     -0.38152662471396     -0.97010213620351
  O   -1.25306504074334     -0.80324276602857     -2.09128631837246
  O   -2.66245596599376     -0.35460922219004     -0.47993769321509
  N   -0.67894045638513      1.14513708069048      0.78441654188635
  O   0.15437662346162      1.28003672454804      1.69217496687588
  O   -1.63616260906553      1.88502682592273      0.59615968991473
