12
Coordinates from ORCA-job run
  C   0.96797345495766      0.08909308720359      0.16754059674840
  C   -0.37386623030106      0.26813010279487      0.01364538331396
  H   1.51940929019991      0.96338864111118      0.49758629244255
  N   1.68232478073343     -1.01674011419306     -0.05373596428473
  H   2.67273993602596     -1.01343740730814      0.10735287019199
  H   1.21323596713474     -1.87274788629430     -0.30338611129533
  N   -1.25682929782237     -0.73588702037285     -0.51600961475314
  O   -0.81248009453134     -1.89302388711509     -0.53055376673033
  O   -2.34508401538107     -0.39738340160769     -0.96350497035719
  N   -0.95029687403774      1.54336511611105      0.41047980326132
  O   -2.07701768213342      1.52637413429386      0.89526889587849
  O   -0.24110923484470      2.54086863537658      0.27531658558401
