12
Coordinates from ORCA-job run
  C   0.85185879079534     -0.34253283955500     -0.42633328651101
  C   -0.41813591582770     -0.03118293426852     -0.13432189329208
  H   1.01318976173954     -1.03470095549101     -1.24844134428982
  N   1.93916857229238      0.16104846230607      0.24589322454521
  H   1.91397991237607      0.15312101980541      1.25359459139156
  H   2.83320111597361     -0.10863678438326     -0.12860049043380
  N   -0.79626347274081      0.87122352260357      0.94427566134736
  O   -0.58894007206416      2.07042887757201      0.78237759834980
  O   -1.27877772566751      0.33544960944947      1.94378978208355
  N   -1.53815352966110     -0.56405966477973     -0.88061894257185
  O   -1.39407937734113     -1.65858278055156     -1.41972253606330
  O   -2.53804805987453      0.14942446729256     -0.93189236455564
