15

C	0.0	0.0	0.0
C	-0.54149	0.009628	-1.434286
Cl	1.783714	0.0	0.0
H	-1.636151	-0.076884	-1.221333
H	-0.27067	-0.968781	0.434228
N	-0.559745	1.121066	0.699644
H	-0.33438	1.018851	1.684562
H	-1.585092	0.904184	0.582892
C	-0.093655	-1.159769	-2.177733
N	0.248369	-2.091081	-2.808881
C	-0.229505	1.299844	-2.188853
H	-0.580052	2.142505	-1.592589
H	-0.742726	1.303899	-3.154283
H	0.844692	1.413365	-2.362859
F	-2.83519	0.0	0.0
