15

C	0.0	0.0	0.0
C	-0.426801	-0.391151	-1.443081
Cl	1.842216	0.0	0.0
H	0.477939	-0.455121	-2.05566
H	-0.238241	-0.834628	0.665207
N	-0.523701	1.258027	0.399431
H	-1.557406	1.032602	0.309655
H	-0.325338	1.377447	1.388435
C	-1.249054	0.625101	-2.107961
N	-1.791822	1.382372	-2.823482
C	-1.132337	-1.750061	-1.454364
H	-1.379209	-2.048177	-2.477846
H	-2.036638	-1.610773	-0.859225
H	-0.474895	-2.510446	-1.020592
F	-2.725943	0.0	0.0
