15

C	0.0	0.0	0.0
C	-0.423696	-0.068859	-1.515964
Cl	1.79407	0.0	0.0
H	0.475905	-0.014129	-2.138018
H	-0.297433	-0.941286	0.458331
N	-0.536454	1.0495	0.796954
H	-0.374798	1.93396	0.324853
H	-1.56504	0.823561	0.704272
C	-1.197385	1.117467	-1.893932
N	-1.65842	2.112578	-2.315187
C	-1.185728	-1.361701	-1.818362
H	-0.558345	-2.224881	-1.571747
H	-2.078469	-1.315052	-1.190768
H	-1.44996	-1.416594	-2.880887
F	-2.757963	0.0	0.0
