14

C	0.0	0.0	0.0
C	-0.432717	0.136693	-1.451092
F	1.3567	0.0	0.0
H	0.104289	-0.598242	-2.049778
H	-1.521959	0.005435	-1.453912
C	-0.506309	1.002691	0.936698
N	-0.613718	1.858302	1.735753
N	-0.393535	-1.384811	0.496223
O	-0.494225	-1.533106	1.705355
O	-0.421513	-2.277795	-0.34383
N	-0.097703	1.461819	-2.028187
O	0.483992	2.304564	-1.347165
O	-0.437586	1.621934	-3.200335
F	-2.410162	0.0	0.0
