17

C	0.0	0.0	0.0
C	-0.364702	-0.063743	-1.539192
Cl	1.774442	0.0	0.0
H	0.367252	-0.75619	-1.966736
C	-0.633659	1.11721	0.76868
H	-1.722928	0.938763	0.679075
H	-0.31859	1.094484	1.8114
H	-0.349526	2.06941	0.31828
N	-0.383195	-1.346958	0.610601
O	-0.285305	-2.332356	-0.116505
O	-0.692922	-1.369744	1.794116
C	-0.035969	1.266148	-2.096892
N	0.225448	2.304587	-2.579933
N	-1.677699	-0.459235	-1.952771
H	-1.696837	-1.4714	-1.925948
H	-2.406476	-0.150772	-1.230463
F	-3.177862	0.0	0.0
