17

C	0.0	0.0	0.0
C	-0.674993	-0.089593	-1.365289
Cl	1.764671	0.0	0.0
H	-1.740644	-0.309737	-1.014554
C	-0.49899	1.198144	0.775954
H	-0.183855	2.095382	0.245935
H	-0.076963	1.183344	1.779664
H	-1.59143	1.097181	0.786716
N	-0.372829	-1.268627	0.784914
O	-0.342168	-1.208573	2.007712
O	-0.618106	-2.280232	0.138957
C	-0.124153	-1.10556	-2.248988
N	0.296565	-1.84395	-3.063136
N	-0.665525	1.227202	-2.018384
H	-0.277071	1.16184	-2.94979
H	-1.631024	1.5231	-2.083646
F	-2.911953	0.0	0.0
