17

C	0.0	0.0	0.0
C	-0.425566	-0.075705	-1.476716
Cl	1.796046	0.0	0.0
H	0.038233	0.824989	-1.899516
C	-0.41139	1.292048	0.679476
H	-0.05462	2.1238	0.066905
H	0.05391	1.353594	1.661995
H	-1.497792	1.280027	0.741535
N	-0.449224	-1.189696	0.821462
O	-0.695454	-2.236409	0.234363
O	-0.465172	-1.046608	2.037432
C	-1.882574	0.043428	-1.790355
N	-2.616401	0.129773	-2.720917
N	0.183756	-1.199965	-2.199561
H	-0.285615	-2.039694	-1.882721
H	-0.087135	-1.068937	-3.168313
F	-2.600602	0.0	0.0
