17

C	0.0	0.0	0.0
C	-0.649284	-0.466989	-1.333411
Cl	1.786973	0.0	0.0
H	-1.419099	-1.174444	-1.016926
C	-0.487402	1.339741	0.484606
H	0.005172	1.594828	1.421237
H	-0.263969	2.075581	-0.285265
H	-1.569679	1.224401	0.603786
N	-0.321882	-1.071594	1.051718
O	-0.490975	-0.706986	2.206656
O	-0.310477	-2.23757	0.669911
C	0.287481	-1.146394	-2.22856
N	0.957675	-1.712904	-3.009932
N	-1.295879	0.667984	-2.000568
H	-2.161164	0.703535	-1.421626
H	-1.56251	0.353377	-2.929083
F	-2.88185	0.0	0.0
