17

C	0.0	0.0	0.0
C	-0.310715	-0.278306	-1.521121
Cl	1.797394	0.0	0.0
H	0.276074	-1.176835	-1.744111
C	-0.633023	1.233148	0.564186
H	-0.321236	1.391247	1.595738
H	-1.720965	1.041973	0.501654
H	-0.3481	2.092962	-0.045926
N	-0.410706	-1.219365	0.810752
O	-0.485597	-2.293167	0.222112
O	-0.570393	-1.053729	2.014308
C	0.301257	0.82206	-2.285179
N	0.731298	1.691028	-2.948881
N	-1.685468	-0.456522	-1.925304
H	-2.349599	-0.43348	-1.07752
H	-1.977993	0.34499	-2.473004
F	-3.19495	0.0	0.0
