17

C	0.0	0.0	0.0
C	-0.292914	-0.282271	-1.522378
Cl	1.794254	0.0	0.0
H	0.404688	-1.088638	-1.780098
C	-0.604682	1.241135	0.575981
H	-0.282646	2.101146	-0.01351
H	-0.290442	1.368731	1.610889
H	-1.696255	1.0823	0.506867
N	-0.395106	-1.223505	0.814424
O	-0.596463	-1.047964	2.009627
O	-0.403644	-2.302909	0.235509
C	0.172354	0.918078	-2.248872
N	0.47457	1.858523	-2.886745
N	-1.638083	-0.640551	-1.903219
H	-1.92068	-0.071781	-2.691275
H	-2.329714	-0.441585	-1.103533
F	-3.113841	0.0	0.0
