13

C	-0.211154	-0.080911	0.062335
C	-0.62993	-0.361496	-1.361664
Cl	1.396775	0.687072	0.168398
H	-1.512506	-1.012077	-1.267087
H	-0.997664	0.56799	0.501332
H	0.153973	-0.908543	-1.894466
N	-0.114583	-1.346326	0.862754
O	0.156369	-2.394427	0.273139
O	-0.298041	-1.257118	2.07479
N	-0.922897	0.922587	-1.986026
H	-1.337631	0.738126	-2.892898
H	-1.662062	1.303435	-1.35985
F	-2.517563	1.252416	0.101646
