13

C	-0.270995	-0.093771	0.077723
C	-0.619319	-0.504697	-1.343829
Cl	1.261665	0.834277	0.131395
H	-1.461511	-1.195506	-1.251807
H	-1.118163	0.542098	0.435936
H	0.213719	-1.036945	-1.812582
N	-0.077236	-1.266195	0.993076
O	0.138743	-2.371801	0.490231
O	-0.152816	-1.055275	2.201799
N	-1.060562	0.625526	-2.146166
H	-1.780787	1.063862	-1.538185
H	-0.290428	1.283036	-2.212269
F	-2.549141	1.235953	-0.018262
