13

C	-0.265393	-0.099158	0.066867
C	-0.612536	-0.396778	-1.382869
Cl	1.269074	0.818283	0.195512
H	-1.457047	-1.089961	-1.346401
H	-1.110823	0.509205	0.472747
H	0.21965	-0.893832	-1.890187
N	-0.076056	-1.340189	0.887781
O	0.139788	-2.403258	0.300352
O	-0.154637	-1.22455	2.109155
N	-1.048672	0.793728	-2.095976
H	-1.768823	1.18626	-1.457549
H	-0.276193	1.451625	-2.109884
F	-2.538994	1.242447	0.069569
