13

C	-0.273957	-0.099471	0.071178
C	-0.622424	-0.373196	-1.382975
Cl	1.260259	0.81665	0.212657
H	-1.465708	-1.06835	-1.357504
H	-1.119084	0.502368	0.488245
H	0.210075	-0.860183	-1.89946
N	-0.082812	-1.35373	0.871325
O	-0.155389	-1.25739	2.094759
O	0.128281	-2.407747	0.266125
N	-1.061123	0.828603	-2.075197
H	-0.28912	1.487171	-2.080358
H	-1.779598	1.210341	-1.428392
F	-2.545707	1.24411	0.102064
