16
Coordinates from ORCA-job run
  C   1.01382412895614     -0.44668946500658      0.19525416643987
  C   -0.25998064321514      0.32353369692409     -0.24242504777437
  Br  0.60813735005049     -1.82929256617039      1.54384412110752
  H   0.11839573190114      1.04274973525450     -0.98256271284744
  C   1.98775562955865      0.46545867000776      0.79423684671812
  N   2.74336496529501      1.23516891661135      1.26200017433901
  C   1.62363260130843     -1.12583933448210     -0.94763457974607
  N   2.08675056276721     -1.64744066854845     -1.89413794361911
  C   -0.88185301006605      1.09981123017885      0.91305390357637
  H   -0.16476873851899      1.76872479149727      1.39363526052682
  H   -1.70365273152955      1.70960749414390      0.53090302971540
  H   -1.28780561383710      0.42245905001407      1.66692836978079
  C   -1.27029552015928     -0.58983008965971     -0.92780601106675
  H   -0.83117433604241     -1.13464407035353     -1.76621228332172
  H   -1.68836866011636     -1.31085236949726     -0.22270610243200
  H   -2.09196171635216      0.01607497908622     -1.31637119139645
