16
Coordinates from ORCA-job run
  C   0.90374311784416     -0.66689888476575      0.32811331249968
  C   -0.52464179580193     -0.06390367929377      0.31959976538182
  Br  0.84762502030292     -2.60995703418320      0.65969029352324
  H   -0.96073348768894     -0.34028960647392      1.28680068932381
  C   1.70860713571336     -0.08713990564665      1.40320050417204
  N   2.32187248188770      0.40064853201129      2.27974681438728
  C   1.56506699842083     -0.45108328067639     -0.95834136684143
  N   2.05101250590864     -0.24487329582889     -2.00892994034562
  C   -1.37536908777143     -0.63611728211424     -0.80907610889830
  H   -2.38029006103396     -0.21233259840776     -0.74821048419442
  H   -0.95947748308556     -0.37063705359120     -1.78478379906035
  H   -1.46438794188931     -1.72108502745717     -0.75087085043398
  C   -0.43789684541290      1.45983839592412      0.21906943577504
  H   -1.44682456620100      1.87764007288656      0.24619220243394
  H   0.02367873661873      1.76490479319803     -0.72427135099010
  H   0.12801527218868      1.89828585441893      1.04307088326734
