16
Coordinates from ORCA-job run
  C   0.95151302780233     -0.51828572173095      0.44181916345497
  C   -0.54321865826127     -0.15368230799748      0.24995585000637
  Br  1.39960034497650     -0.67560583774054      2.35571971167313
  H   -1.10150970017841     -0.93617933835721      0.77726243723055
  C   1.81437650075850      0.51095553802103     -0.13699700576882
  N   2.46005153218972      1.36452357335793     -0.62373982976011
  C   1.25378866552994     -1.81609348482353     -0.16156369546745
  N   1.45627943770436     -2.86328994687615     -0.65627976648605
  C   -0.89463347993041     -0.19489520868170     -1.23807336925820
  H   -0.70817970790656     -1.17484342880316     -1.68125485028992
  H   -0.32733037796717      0.55547461056601     -1.79585499175384
  H   -1.95617913887137      0.03155323616666     -1.36083348239873
  C   -0.87675774603766      1.20771764524745      0.85030548880733
  H   -0.33170309162402      2.00483454681273      0.33749825136823
  H   -0.64834879299655      1.25751582656904      1.91511392258522
  H   -1.94474881518793      1.40030029826987      0.72592216605733
