16
Coordinates from ORCA-job run
  C   1.01010673814750     -0.45859665363590      0.18953121048128
  C   -0.25777289483184      0.32649645429076     -0.23953763218519
  Br  0.59838716228839     -1.83587151191101      1.54133308836022
  H   0.12460227327132      1.04264337525502     -0.98057532577813
  C   1.99864312035218      0.44300084632295      0.78048065840089
  N   2.76612339706398      1.20652308839418      1.23918651099619
  C   1.60366037931313     -1.14449585398093     -0.95789589420568
  N   2.05072103760321     -1.66961887623108     -1.91015217138664
  C   -0.86400900586436      1.10767524588934      0.92093270397711
  H   -1.27383118795199      0.43367976552744      1.67563186075637
  H   -1.68063621411583      1.72788454394311      0.54457950467025
  H   -0.13645126626241      1.76708110705526      1.39879645453288
  C   -1.28214857785299     -0.57434468036545     -0.92051396805103
  H   -0.85464328779594     -1.12055292939629     -1.76396393722494
  H   -2.10048375442744      0.04108438597184     -1.30102699396144
  H   -1.70226791893691     -1.29358830712923     -0.21480606938215
