16

C	0.0	0.0	0.0
C	-0.675828	0.003023	-1.336506
F	1.364991	0.0	0.0
H	-1.830443	0.027057	-0.978078
H	-0.460062	-0.884375	-1.920443
C	-0.470444	1.054424	0.963539
H	-0.165604	2.024559	0.57771
H	-0.027708	0.869175	1.939678
H	-1.561714	0.994759	1.001646
N	-0.310437	-1.397713	0.61371
O	-0.663968	-2.310434	-0.123503
O	-0.07366	-1.524634	1.811467
N	-0.352085	1.134728	-2.179756
O	-0.317861	2.278446	-1.703819
O	-0.187849	0.899923	-3.387903
H	-2.970531	0.0	0.0
