13
Coordinates from ORCA-job run
  C   -0.93162473211260     -0.17250746566956     -0.04828965856546
  C   0.48694330834347      0.12395930014246     -0.52595111591114
  Cl  -1.68855352589803      1.22288992307236      0.66863250566320
  H   0.97052118052986     -0.82572262975268     -0.77428505235631
  H   -1.52722810562994     -0.50393835687827     -0.90078527580339
  N   -0.91165030971621     -1.38549399944850      0.88720913480171
  O   -1.47773938877678     -1.31952561675928      1.96103160502998
  O   -0.34076342931166     -2.35349423954030      0.39955734155190
  N   1.30807457060925      0.71309639576940      0.60802147795860
  O   1.98016686766645      1.70619853775092      0.37514439157718
  O   1.23112730626095      0.09257049519156      1.66048636737310
  C   0.47453762654224      1.01314682277511     -1.67698030206537
  N   0.42618863149300      1.69082083334678     -2.63479141925400
