13
Coordinates from ORCA-job run
  C   -0.92152209237567     -0.21692878593313     -0.06677760178954
  C   0.49783200319061      0.11711932810609     -0.51701659330795
  Cl  -1.76132281220013      1.17970089773639      0.54820867280143
  H   1.02989771124191     -0.82190471663425     -0.69770215144376
  H   -1.47351784058897     -0.62090548341029     -0.91717254231368
  N   -0.87838028053159     -1.37496065481615      0.93477489335417
  O   -1.47131905575802     -1.27292572458030      1.99106709551463
  O   -0.25960315008327     -2.34483806593194      0.51313298248709
  N   1.25481067545419      0.80297120032813      0.60733280889222
  O   1.17564043426571      0.23322881437240      1.68792627008814
  O   1.88534842526171      1.81497809296327      0.34225379540923
  C   0.48502005388862      0.94163807812566     -1.71511467273212
  N   0.43811592823490      1.56382701967411     -2.70991295695985
