13
Coordinates from ORCA-job run
  C   -0.84334458247954     -0.41417610379656     -0.14202686164957
  C   0.46926961094418      0.29088608416288     -0.47175402413083
  Cl  -2.00658332043499      0.66485364624498      0.57593754997357
  H   1.21264161165083     -0.47072944234530     -0.72630191053419
  H   -1.25868350526208     -0.82936214412224     -1.06196431205601
  N   -0.55667797739303     -1.64359573155719      0.72567700567375
  O   0.28601120307327     -2.38541214883789      0.23497602904963
  O   -1.18719689034759     -1.81023718893902      1.75153579171384
  N   1.01027068813628      0.99135832640175      0.76261292957037
  O   1.03672261093983      0.29203755559330      1.76702334640657
  O   1.39074429786793      2.14642546553890      0.64812888049392
  C   0.29725542439377      1.22916552710152     -1.56986874608168
  N   0.15057082891114      1.93878615455487     -2.49397567842936
