16
Coordinates from ORCA-job run
  C   0.49609972027701      0.07902291396861      0.45248432345567
  C   -0.86943476892462      0.52880309351715     -0.05785608320674
  H   0.40038011890826     -0.37727829205549      1.43999948815820
  H   -0.72624891507092      1.05571871786476     -1.00586659943948
  H   -1.28028425588963      1.25096570204429      0.65585415082400
  N   1.31141287768846      1.31521303591604      0.69812165891061
  O   1.68366909566639      1.94303647787657     -0.29119327837390
  O   1.52784248611294      1.63209848122794      1.86674567843234
  C   1.25356036621931     -0.82671330241199     -0.50079279246797
  H   2.26503161919582     -1.01461366565472     -0.13413816156555
  H   1.32151831195982     -0.36897507960065     -1.48837360268194
  H   0.74422936129836     -1.78757053504682     -0.58683441225129
  C   -1.83936187571905     -0.63633193233760     -0.22892673591621
  H   -1.52358720867544     -1.31353966764147     -1.02436707021620
  H   -2.83405066055818     -0.26795793075735     -0.48788830498645
  H   -1.92977627248852     -1.21387801690925      0.69503174132493
