16
Coordinates from ORCA-job run
  C   0.52527059445351     -0.01544334389685      0.29998111290620
  C   -0.77036668816512     -0.31044715834268     -0.46448315207794
  H   0.33228170159740      0.01078089389866      1.37779844081267
  H   -0.69146948364824      0.12672277293883     -1.46579004108300
  H   -0.81453348562388     -1.39462539975683     -0.60981222407492
  N   0.95454228785220      1.40400408393164     -0.00317812664643
  O   2.06556564791757      1.59377646216703     -0.49259898142255
  O   0.15313945939321      2.29144315079300      0.28285282720825
  C   1.64929187284798     -0.97940434186523     -0.02054491742152
  H   1.31927104086172     -1.99527465434044      0.20686774568359
  H   1.91497475349492     -0.92651701977043     -1.07693694916017
  H   2.54430209539543     -0.76472185890427      0.56298931545468
  C   -2.05020663789559      0.15646491665506      0.22253718669444
  H   -2.19954684605992     -0.37824422621956      1.16445089319551
  H   -2.01730827135066      1.22397722365721      0.43240551320588
  H   -2.91520804107054     -0.04249150094514     -0.41453864327468
