16
Coordinates from ORCA-job run
  C   0.64441851065203     -0.07295256228957      0.56845558533538
  C   -0.86584029309645     -0.29573542281537      0.66893824976919
  H   1.08967546703552     -0.22328211045441      1.55518608491626
  H   -1.02220819432952     -1.35604096032938      0.89412267097987
  H   -1.23238419722562      0.27055528908119      1.52947788285492
  N   0.85105334089889      1.39443289814330      0.30095194595898
  O   1.16195295524983      1.74515675047135     -0.83573948380984
  O   0.63422868129194      2.15302717301581      1.24393255677781
  C   1.35306796532039     -0.91506648074653     -0.47168417572837
  H   1.22890139095236     -1.96989947875523     -0.21457841267547
  H   0.95689771482701     -0.74450358040926     -1.47078166937810
  H   2.42047522507134     -0.68989820237237     -0.49197664056363
  C   -1.64626821220717      0.09957133047555     -0.58129099390556
  H   -1.54188768232080      1.16451552952287     -0.79870616168247
  H   -2.70922660904532     -0.10304543886706     -0.43441892823037
  H   -1.32285606307443     -0.45783473367089     -1.46188851061859
