16
Coordinates from ORCA-job run
  C   0.63487022580662     -0.06941659650998      0.58002807414437
  C   -0.87709880097024     -0.29324699238053      0.65492722876733
  H   1.06240271135937     -0.21232255819243      1.57565290463392
  H   -1.03560559549549     -1.35353615217023      0.87881474599777
  H   -1.25913449807971      0.27386122304160      1.50812578011533
  N   0.84413324431973      1.39587104840136      0.30515764897995
  O   1.17368018049621      1.73782682594294     -0.82886722829685
  O   0.60953773356834      2.16145208825803      1.23802054845170
  C   1.36250994842044     -0.91885454744728     -0.44091729084477
  H   0.98203215099227     -0.75826770663307     -1.44775892278126
  H   1.23691681056243     -1.97167558117647     -0.17637533060253
  H   2.42955323752567     -0.69109980302291     -0.44606626223083
  C   -1.63604163759179      0.09911567650582     -0.60924033883907
  H   -1.53237287406542      1.16463183887529     -0.82424694243426
  H   -2.70065724148423     -0.10815254572055     -0.48223359781028
  H   -1.29372559536420     -0.45618621777160     -1.48402101725052
