15
Coordinates from ORCA-job run
  C   -0.54562230417759      0.26932800153677     -0.65405158845967
  C   0.83887182136401     -0.34520871966618     -0.59068051253591
  Cl  -1.19333278138043      0.18696755851198     -2.30889607703114
  H   0.77633870441223     -1.35139463017932     -1.00536845632794
  H   1.47233662548713      0.25430383214106     -1.24842905760049
  N   -0.58723671128725      1.60305917753387     -0.21066727542824
  H   -1.52593746377878      1.97820799075849     -0.25941340179230
  H   -0.25897765663429      1.67410613156242      0.74355679455721
  N   -1.49154555402992     -0.66602715277065      0.18216045941939
  O   -1.46357093290200     -1.86191900686919     -0.07287688225162
  O   -2.16410356463779     -0.12625986242739      1.05536660478331
  C   1.41278037302932     -0.38830857729183      0.82291022485266
  H   0.76385339492139     -0.93745723049072      1.50915169902746
  H   2.37674074233907     -0.90009314856588      0.80923956520687
  H   1.58840530727490      0.61069563621659      1.22799790358040
