15
Coordinates from ORCA-job run
  C   -0.66177115584985      0.22432073586616     -0.62433420001888
  C   0.77057443742606     -0.30743304960191     -0.59605998850154
  Cl  -1.27789808492765      0.09905699211953     -2.28881780204227
  H   1.36157434566579      0.35351757622925     -1.23765513063547
  H   0.77606557881710     -1.29857561235185     -1.05498358105066
  N   -0.90814878314707      1.54500570984477     -0.15479546284200
  H   -0.33852924734516      2.20912827677303     -0.66177873096049
  H   -0.75542486929022      1.61682878095619      0.84154828220556
  N   -1.47191040830667     -0.73385757690934      0.26155508324394
  O   -1.61325588088865     -1.87743832975892     -0.14688621691220
  O   -1.81973543232533     -0.30665541165425      1.35798500568736
  C   1.36131390199271     -0.36597916582677      0.80813012324776
  H   1.33509722589099      0.60749530088726      1.30211916973707
  H   0.83541276992261     -1.08528220439977      1.43906393357894
  H   2.40563560236534     -0.67913202217339      0.75490951526286
