17

C	-0.40752	0.038087	-1.456169
C	0.0	0.0	0.0
F	-0.052351	-1.078925	-2.089229
H	1.095628	0.0	0.0
N	-1.918834	0.19594	-1.622282
O	-2.350267	1.337094	-1.486827
O	-2.564647	-0.823132	-1.822452
N	0.165819	1.201716	-2.259763
O	0.684634	2.130376	-1.662661
O	0.020597	1.083814	-3.471731
C	-0.460372	-1.279773	0.539104
N	-0.855249	-2.272724	1.027114
C	-0.504745	1.138863	0.890798
H	-0.049118	1.005896	1.873138
H	-1.590881	1.125658	1.001047
H	-0.186611	2.09848	0.493963
Cl	3.202253	0.0	0.0
