17

C	-0.416304	-0.111379	-1.442431
C	0.0	0.0	0.0
F	0.168951	0.826625	-2.185473
H	1.095517	0.0	0.0
N	-0.125515	-1.450007	-2.10701
O	-0.413762	-1.489395	-3.299381
O	0.357336	-2.341781	-1.426581
N	-1.925276	0.055655	-1.601982
O	-2.329772	1.132546	-2.01808
O	-2.597595	-0.904277	-1.239606
C	-0.524955	-1.066039	0.841688
N	-0.973247	-1.833138	1.609689
C	-0.424236	1.365816	0.561251
H	-1.50758	1.451313	0.678003
H	-0.060822	2.160563	-0.089929
H	0.048794	1.486238	1.536085
Cl	3.200317	0.0	0.0
