17

C	-0.538248	-0.014252	-1.406423
C	0.0	0.0	0.0
F	-1.881076	-0.115436	-1.448536
H	1.092179	0.0	0.0
N	-0.150977	1.260525	-2.138672
O	-1.016945	2.122606	-2.224938
O	1.002623	1.308115	-2.537524
N	-0.008528	-1.14296	-2.277246
O	-0.406001	-1.111011	-3.437726
O	0.708911	-1.982692	-1.754106
C	-0.498821	-1.185875	0.692187
N	-0.945958	-2.09058	1.292991
C	-0.448718	1.271247	0.736086
H	-0.128833	1.191914	1.77528
H	-1.531031	1.409943	0.69933
H	0.04881	2.141525	0.306047
Cl	3.227235	0.0	0.0
