17

C	-0.393302	-0.004111	-1.458048
C	0.0	0.0	0.0
F	0.234277	-0.962236	-2.135135
H	1.097522	0.0	0.0
N	-1.88889	-0.198704	-1.737387
O	-2.67096	-0.10495	-0.800075
O	-2.167883	-0.42941	-2.908694
N	-0.094237	1.33187	-2.133355
O	0.908231	1.394472	-2.822628
O	-0.90754	2.221925	-1.904462
C	-0.448828	-1.260353	0.585602
N	-0.801948	-2.271242	1.068314
C	-0.431058	1.209377	0.832017
H	-0.07323	1.046876	1.849906
H	-1.509939	1.352073	0.841724
H	0.059654	2.107242	0.457118
Cl	3.204506	0.0	0.0
