13
Coordinates from ORCA-job run
  C   0.44642975716549     -0.27540691743811     -0.44479985111500
  C   -0.77391951076399      0.31682071405653      0.23229799929792
  F   0.55498147390695      0.26783390961958     -1.72353804488617
  H   -0.71635669484076      0.09363551644711      1.30916686749538
  H   0.30844482121445     -1.35492688432210     -0.57886106074255
  H   -0.70518840067949      1.40286830208615      0.12073645697546
  C   1.73289565947803      0.01107269929356      0.29872309848062
  H   1.85529806887070      1.08768578452979      0.43838025624929
  H   2.58526108599570     -0.35833732276159     -0.27319178454681
  H   1.73617848331474     -0.47238671898930      1.27821274738856
  N   -2.00374400419499     -0.13926342658227     -0.40827898501573
  H   -2.76839664653331      0.48161389851760     -0.17928709230214
  H   -2.25088409293353     -1.06020955445697     -0.06856060727883
