13
Coordinates from ORCA-job run
  C   0.51754734027236     -0.75538143479533     -0.07829087771591
  C   -0.90511887500905     -0.41643715079501      0.33260315090880
  F   0.49931748944597     -1.25711608798098     -1.38078395035613
  H   -0.92582673567261     -0.30362458219146      1.42712882143062
  H   0.88558521926457     -1.56799413104930      0.55986884883761
  H   -1.52400663915757     -1.28375478949100      0.08830774178291
  C   1.45838352512029      0.42582396492206     -0.04191406715410
  H   1.09533014400759      1.19167445251114     -0.72733085430832
  H   1.52117789065108      0.84211466886247      0.96759706080920
  H   2.45893332684436      0.12170378058356     -0.35278970316405
  N   -1.40919933315360      0.75080337997236     -0.38678790985536
  H   -1.27296786732076      1.59243024100999      0.15611643578894
  H   -2.39915548529265      0.65875768844150     -0.56372469700421
