13
Coordinates from ORCA-job run
  C   0.48494926216523     -0.62678811234940      0.22484507184115
  C   -1.01501138303867     -0.47326269912143      0.00443215020472
  F   0.83899310052193     -1.90957521982150     -0.20924109002924
  H   -1.51681348056382     -1.31128591509595      0.49590668011529
  H   0.70711389664881     -0.58908958402992      1.29850710837668
  H   -1.21511579528385     -0.56897763811633     -1.06713931587406
  C   1.33064834296661      0.37476010635220     -0.52725997867235
  H   1.14537413603123      1.39111354057131     -0.17436430755580
  H   2.38975111161969      0.15433646550621     -0.38487244591851
  H   1.10797720894664      0.32367461347708     -1.59587039465720
  N   -1.60587840380723      0.76943876742915      0.48120732302249
  H   -1.22762530535703      1.56507862138796     -0.01471997784940
  H   -1.42436269084956      0.89857705381060      1.46856917699624
