13
Coordinates from ORCA-job run
  C   0.43650891561116     -0.71784056963207     -0.08435822864109
  C   -0.94675452463615     -0.42385794034158      0.48014964716549
  F   0.27161295933595     -1.06624510291153     -1.43482190888888
  H   -1.54718821397306     -1.33273295617345      0.37842477703282
  H   0.85366413698882     -1.60081746332925      0.41330820256855
  H   -0.85726865626332     -0.21880054542495      1.55190634739861
  C   1.40955898829010      0.43639455126483     -0.01850156985729
  H   2.36633435721696      0.14945648007086     -0.45711742264681
  H   1.57905589140707      0.73802750627692      1.01821654577567
  H   1.02535280324141      1.29079834747261     -0.57757382572171
  N   -1.67571392362232      0.66767334959193     -0.14937777000029
  H   -1.69126615582019      0.52393161255096     -1.15131648177785
  H   -1.22489657777641      1.55501273058473      0.03006168759276
