15

C	-0.475748	-0.109835	-1.441159
C	0.0	0.0	0.0
F	-1.841959	-0.573798	-1.420847
H	1.092302	0.0	0.0
H	-0.316946	-0.903091	0.530028
N	-0.410255	1.139725	-2.110606
H	-0.781576	1.045111	-3.04736
H	-0.943039	1.841706	-1.610618
C	0.332144	-1.157905	-2.170722
H	0.15146	-2.137112	-1.722738
H	0.038349	-1.197605	-3.224317
H	1.39236	-0.912263	-2.068942
C	-0.551421	1.161161	0.675994
N	-0.998452	2.119913	1.188621
H	2.84233	0.0	0.0
