15

C	-0.342566	-0.01687	-1.492435
C	0.0	0.0	0.0
F	-0.143436	1.334801	-1.925906
H	1.094469	0.0	0.0
H	-0.3719	0.918263	0.458913
N	0.563757	-0.900145	-2.122729
H	0.53537	-0.784995	-3.128111
H	1.509621	-0.729372	-1.767434
C	-1.781596	-0.327576	-1.848268
H	-2.447797	0.402027	-1.382199
H	-1.911529	-0.270165	-2.933271
H	-2.044223	-1.329555	-1.509373
C	-0.514639	-1.161464	0.701061
N	-0.942233	-2.092326	1.277059
H	2.843967	0.0	0.0
