15

C	-0.364952	-0.052254	-1.492972
C	0.0	0.0	0.0
F	-0.242157	1.253189	-1.980651
H	1.094587	0.0	0.0
H	-0.296484	-0.944961	0.470499
N	0.578956	-0.855809	-2.225064
H	1.510947	-0.663989	-1.840638
H	0.384562	-1.834897	-2.049428
C	-1.789851	-0.484011	-1.775683
H	-1.966574	-1.500286	-1.413408
H	-1.962791	-0.451436	-2.853271
H	-2.48544	0.193299	-1.275963
C	-0.599197	1.104785	0.722461
N	-1.101821	1.995708	1.30139
H	2.839975	0.0	0.0
