15

C	-0.474007	-0.095601	-1.442895
C	0.0	0.0	0.0
F	-1.839587	-0.558494	-1.428933
H	1.092259	0.0	0.0
H	-0.317526	-0.907728	0.521731
N	-0.406038	1.159205	-2.101149
H	-0.778451	1.073609	-3.038687
H	-0.936572	1.857051	-1.594744
C	0.333991	-1.135856	-2.181338
H	0.04398	-1.162212	-3.236154
H	0.151033	-2.119771	-1.745467
H	1.393638	-0.893102	-2.07262
C	-0.551236	1.155804	0.685533
N	-0.998399	2.111144	1.204318
H	2.843901	0.0	0.0
