15

C	-0.346896	-0.064887	-1.500927
C	0.0	0.0	0.0
F	-0.169793	1.247512	-1.961399
H	1.095503	0.0	0.0
H	-0.38713	0.912704	0.459474
N	0.579208	-0.88703	-2.232339
H	0.3594	-1.862002	-2.063288
H	1.513036	-0.717909	-1.844317
C	-1.778738	-0.443574	-1.820029
H	-2.462348	0.257322	-1.335797
H	-2.007294	-1.451216	-1.467629
H	-1.917222	-0.395848	-2.901967
C	-0.481212	-1.172369	0.706556
N	-0.879314	-2.131693	1.257913
H	2.834933	0.0	0.0
