15

C	-0.454189	0.054884	-1.454356
C	0.0	0.0	0.0
F	-0.07106	-1.19796	-2.005138
H	1.093362	0.0	0.0
H	-0.338764	-0.939605	0.449796
N	-1.871735	0.208003	-1.576804
H	-2.129255	0.140221	-2.555823
H	-2.332938	-0.542943	-1.075006
C	0.291399	1.115525	-2.230077
H	0.017525	2.105454	-1.861322
H	0.041452	1.04395	-3.293861
H	1.362477	0.958264	-2.082091
C	-0.500437	1.125676	0.772384
N	-0.896792	2.040286	1.394273
H	2.86216	0.0	0.0
