14

C	-0.369802	-0.13452	-1.355888
C	0.043861	-0.090332	0.104029
F	-1.728064	0.285205	-1.395149
H	1.094408	-0.402849	0.125154
H	0.017255	0.973725	0.390117
N	0.400085	0.68038	-2.227244
H	0.352227	1.626017	-1.852288
H	1.426351	0.401451	-2.064957
C	-0.378967	-1.53108	-1.855508
N	-0.426473	-2.626237	-2.27303
N	-0.795514	-0.959101	0.923761
H	-0.418534	-1.008661	1.861497
H	-1.724054	-0.560666	0.979546
H	2.840771	0.089788	-1.456038
