14

C	-0.337189	-0.076988	-1.485052
C	-0.244652	0.159228	0.018331
F	-0.240858	1.23992	-2.075035
H	0.673762	0.741426	0.144478
H	-1.101548	0.770443	0.317429
N	0.642629	-0.958644	-1.907125
H	0.777129	-0.981414	-2.907289
H	1.519905	-0.942193	-1.325002
C	-1.68984	-0.525108	-1.910373
N	-2.760226	-0.867744	-2.251177
N	-0.230003	-1.104735	0.738218
H	-0.342852	-0.897401	1.725604
H	0.731693	-1.451176	0.629072
H	2.585693	-1.027665	-0.087715
