14

C	-0.348448	0.099583	-1.631141
C	0.669014	0.222113	-0.505517
F	0.41315	-0.024937	-2.840871
H	1.180422	-0.74306	-0.470675
H	1.392628	0.991773	-0.790502
N	-1.189397	-0.998796	-1.450932
H	-1.111398	-1.469584	-0.514565
H	-2.150155	-0.839431	-1.712041
C	-1.084156	1.374787	-1.822392
N	-1.678855	2.366131	-2.030219
N	-0.021253	0.583327	0.721919
H	0.667305	0.876469	1.406538
H	-0.442714	-0.293648	1.075613
H	-0.928179	-2.023302	1.029736
