14

C	-0.618108	0.125129	-1.537701
C	0.130124	0.1903	-0.194195
F	0.082596	-0.740128	-2.407868
H	1.203162	0.223883	-0.419018
H	-0.156872	1.134289	0.284336
N	-1.941263	-0.318333	-1.318699
H	-1.83408	-1.080553	-0.644258
H	-2.353034	-0.644404	-2.184093
C	-0.61746	1.435268	-2.228711
N	-0.609844	2.482172	-2.760023
N	-0.182383	-0.981631	0.595111
H	-0.5291	-0.686611	1.500597
H	0.757006	-1.4689	0.79211
H	2.191694	-1.836401	1.065265
