11
Coordinates from ORCA-job run
  C   -0.76040554294908      0.31047630619843     -0.14559910321479
  C   0.54200466282699     -0.08729936313849      0.05147787950115
  C   -1.10449855851376      1.67048614769317     -0.38663497725562
  N   -1.40210980795187      2.79096657377812     -0.58905114501716
  C   -1.78277604789589     -0.68048485065276     -0.09787615910388
  N   -2.55942099743398     -1.56371942136744     -0.03682120683995
  C   1.58936653757991      0.89318351107417      0.01837611628610
  N   2.46767936433259      1.67706409411583      0.00988485606837
  N   0.93427927725111     -1.37739996542470      0.20755955084905
  H   0.22613573483200     -2.07580001421111      0.38197146921567
  H   1.84974537792198     -1.55847301806521      0.58471271951107
