11
Coordinates from ORCA-job run
  C   -0.76178000983938      0.28857686979472     -0.17920815477946
  C   0.49795255441182     -0.23698301633746     -0.00556174582847
  C   -1.34251980717642      0.43996867787331     -1.46994532809195
  N   -1.83131163657356      0.57250476786604     -2.53239032837002
  C   -1.48706630022307      0.69891270085532      0.97611943470257
  N   -2.00936603512224      1.01409296567964      1.98361936826464
  C   1.25354275419299     -0.64568742670048     -1.15522199869501
  N   1.89996877659343     -0.97811528041037     -2.08123754941350
  N   1.07119596024836     -0.47250422054153      1.20261469014664
  H   0.64341344107553     -0.06540605429875      2.02184974663183
  H   2.06697030241253     -0.61535998378044      1.23936186543272
