11
Coordinates from ORCA-job run
  C   -0.75764111692410      0.29854628172805     -0.18532102052240
  C   0.53961094529829     -0.08098694032083      0.07285139171901
  C   -1.10178472848728      1.64674256196766     -0.48514910151536
  N   -1.39575535964799      2.75931844881220     -0.73168287345750
  C   -1.77312259142302     -0.69973936122615     -0.14265346252614
  N   -2.54235503267900     -1.58954693814822     -0.08155788584915
  C   1.57971105675420      0.90730274590349      0.04652494245284
  N   2.45095051835250      1.69885246506566      0.04247831161604
  N   0.93603037178829     -1.36142291906463      0.28865611800650
  H   0.22703701275120     -2.05907567077637      0.46332824465131
  H   1.83631892421689     -1.51899067394086      0.71052533542485
