11
Coordinates from ORCA-job run
  C   -0.77341055619222      0.22242133463435     -0.22088895925827
  C   0.51315661388562     -0.19907221910711      0.02515876558024
  C   -1.32119143307402      0.23922297585844     -1.53461211510759
  N   -1.78216649259065      0.25983295315885     -2.61723163538305
  C   -1.56340740738703      0.65818486890758      0.88145059265963
  N   -2.14003343492126      1.00263088523619      1.84899058228726
  C   1.33269756575872     -0.63283416296599     -1.07031182949427
  N   2.03039292795134     -0.98466223777857     -1.95079280039145
  N   1.06117424611238     -0.30771551070315      1.26245616033204
  H   2.06200118628649     -0.38159062738019      1.33863927357387
  H   0.57978678417062      0.12358174013960      2.03814196520158
