11
Coordinates from ORCA-job run
  C   -0.78737565675920      0.17368069709302     -0.21111543403391
  C   0.54004681096969     -0.11544412854403      0.00730327598692
  C   -1.39024801607256      0.02926203547972     -1.49269868998983
  N   -1.90080424965001     -0.08655333213509     -2.54679834159474
  C   -1.56899737793389      0.62312023895083      0.89192875447794
  N   -2.13499803179143      0.98352916263015      1.85989913552167
  C   1.34777529389743     -0.57908432299145     -1.08431129391870
  N   2.02893860475025     -0.97089108995490     -1.96075101940195
  N   1.18173461797752      0.07713402606410      1.18850972666717
  H   0.62270304230024      0.25584282834256      2.01046561532351
  H   2.06122496231196     -0.38959611493490      1.33656827096191
