11
Coordinates from ORCA-job run
  C   -0.76324002242069      0.26178584726086     -0.21578198597811
  C   0.53111755782075     -0.14470410113463      0.01389579765898
  C   -1.28762601109455      0.39742621113254     -1.53205398414179
  N   -1.73135973837540      0.51063179566080     -2.61621774816079
  C   -1.59176164951723      0.53803528372692      0.90950023353215
  N   -2.20011854146033      0.73733077750584      1.89807112813920
  C   1.38251022072745     -0.44684194292789     -1.10127519939683
  N   2.09975785093960     -0.71412890944601     -1.99560560588057
  N   1.10470088152802     -0.21990913769516      1.24232415241126
  H   0.50561403054532     -0.16409339979520      2.05342757632659
  H   1.95040542130706     -0.75653242428809      1.34371563548990
