11
Coordinates from ORCA-job run
  C   -0.76724813015503      0.19917936608689     -0.26105550833850
  C   0.53553856431442     -0.12234969458753      0.04365515825618
  C   -1.26228539696629      0.14913992917368     -1.59463329019016
  N   -1.68172343451913      0.10805790826743     -2.69354598026274
  C   -1.63376742322062      0.58250813614085      0.80259365211943
  N   -2.27629803769075      0.88319953779034      1.74276343162299
  C   1.42533030174345     -0.52285929241997     -1.00875503663674
  N   2.17405487240514     -0.86532829313216     -1.85014557779178
  N   1.08098912489953     -0.02095178034558      1.28273264831314
  H   1.94589232754557     -0.50209857395911      1.46623826311188
  H   0.46151723164372      0.11150275698515      2.06915223979628
