11
Coordinates from ORCA-job run
  C   -0.77040072471884      0.19436391740165     -0.25323148466888
  C   0.53851571430726     -0.11358454268416      0.03861947797957
  C   -1.26898007774973      0.17725452330240     -1.58635210511673
  N   -1.69373373672714      0.16433457613309     -2.68394165324479
  C   -1.64093282917035      0.52746046286214      0.82399868277819
  N   -2.28574598751231      0.78546848376517      1.77519657391666
  C   1.43223863613157     -0.46530531151315     -1.02772018280127
  N   2.18274183894292     -0.76857957532134     -1.88244026452023
  N   1.08542845796368     -0.04038239207448      1.27927907356961
  H   0.46438596531755      0.05448073723985      2.07001621845385
  H   1.95648274321539     -0.51651087911118      1.44657566365403
