11
Coordinates from ORCA-job run
  C   -0.74401244189417      0.28890169108728     -0.24395408555298
  C   0.53545029170864     -0.08089720843669      0.10175404955868
  C   -1.77537260422450     -0.69008762701681     -0.15973376942355
  N   -2.56196415561629     -1.56069085858632     -0.05707334730873
  C   -1.05674194983000      1.61168017208693     -0.66648112870797
  N   -1.32622106746457      2.70330906337643     -1.01428095090869
  C   1.58967709867516      0.89054043711794      0.03704284022618
  N   2.47167081142470      1.66956603969749      0.00410734191017
  N   0.90378456328105     -1.34259674305423      0.44162753466190
  H   0.17780626996186     -2.01415046652519      0.64677206233772
  H   1.78492318397812     -1.47457449974681      0.91021945320727
