11
Coordinates from ORCA-job run
  C   -0.75745660610149      0.32407382154480     -0.13675891956929
  C   0.53308720679952     -0.08612164666597      0.10764379447550
  C   -1.07599264997129      1.68378756548941     -0.41188825657162
  N   -1.35033554258116      2.80428744913818     -0.64494565541255
  C   -1.79013628218523     -0.65706090846379     -0.12138819870836
  N   -2.57313720903908     -1.53632503759877     -0.09143321538118
  C   1.59448809649803      0.87969580898477      0.08594615988463
  N   2.48524309996064      1.64923464040073      0.07379994231749
  N   0.88401393502505     -1.35323380925585      0.44534333151333
  H   0.20028612107587     -2.08738757077390      0.32927773179900
  H   1.85093983051915     -1.62095031279961      0.36440328565304
