11
Coordinates from ORCA-job run
  C   -0.75485091455393      0.29405757868650     -0.20403154901113
  C   0.52632248278724     -0.06545717925838      0.14660126915089
  C   -1.08243570296955      1.62421681121469     -0.59074586913884
  N   -1.36071599814589      2.72077161297176     -0.91518734360313
  C   -1.76558148874031     -0.70953658997330     -0.18428835063427
  N   -2.53071276963294     -1.60382073078378     -0.14113209585909
  C   1.56553864461046      0.92408700965813      0.12205598073269
  N   2.43871540740520      1.71332607163443      0.09983318470036
  N   0.88274346320140     -1.29716345118939      0.59262570998423
  H   1.85844338424504     -1.54476491369336      0.58713039004336
  H   0.22353349179320     -2.05471621926726      0.48613867363504
