11
Coordinates from ORCA-job run
  C   -0.77399537455042      0.24392101959488     -0.19457142893136
  C   0.52616134283343     -0.16375975352650     -0.00288018109590
  C   -1.48286933572146      0.78216558758048      0.91761646801373
  N   -1.98950448880973      1.20936925658229      1.89128159823552
  C   -1.41906666606454      0.13153412196668     -1.45844615029430
  N   -1.96215148573525      0.03987959998777     -2.49861786347628
  C   1.25788554991509     -0.72020765064976     -1.10495560417585
  N   1.87741489946802     -1.19034580629328     -1.98867099839967
  N   1.21481771612218     -0.01188688745826      1.15743826235836
  H   2.05284140749150     -0.55367201416024      1.29009238782816
  H   0.69946643505118      0.23300252637595      1.99071350993759
