11
Coordinates from ORCA-job run
  C   -0.80374112141822      0.16963235554928     -0.14371233071368
  C   0.54387092287954     -0.08544533855103     -0.03341268608630
  C   -1.55266039735182      0.37137932015629      1.05103291802573
  N   -2.09075255391331      0.52205489836618      2.08779327362641
  C   -1.45797668258383      0.22551390964691     -1.40664605917074
  N   -2.00971174158901      0.27073436621598     -2.44531683451942
  C   1.31663153716726     -0.30519537417344     -1.22278214218039
  N   1.97061329235546     -0.50060581735557     -2.18190920114305
  N   1.23336602712315     -0.07665356861489      1.13629012240293
  H   2.13994549909349     -0.51345689434931      1.16008966854241
  H   0.70941521823729     -0.07795785689041      1.99957327121610
