11
Coordinates from ORCA-job run
  C   -0.75049924847021      0.30151318529819     -0.20820201920173
  C   0.53694587004240     -0.08644486769985      0.08393550601422
  C   -1.78156816695798     -0.67885973165289     -0.14139085521363
  N   -2.56543194772001     -1.55399946599566     -0.05817915035036
  C   -1.06954907608383      1.64294573576447     -0.56139345555281
  N   -1.34272229555084      2.75066236717660     -0.85027594367047
  C   1.59265283201506      0.88442279551139      0.03205666872318
  N   2.47630447285479      1.66183747598956      0.00806127756479
  N   0.91048234606677     -1.36308046148478      0.35522636270075
  H   0.18856635384523     -2.04252187467448      0.54767905984404
  H   1.80381885995863     -1.51847515823255      0.79248254914202
