11
Coordinates from ORCA-job run
  C   -0.74443722777500      0.29894991247368     -0.22950204004040
  C   0.53606886235046     -0.08860472512067      0.09230980335926
  C   -1.78940656581592     -0.66192044208310     -0.11184627627592
  N   -2.58684861692589     -1.51886527472843      0.01830565794598
  C   -1.04421452885831      1.62218317705557     -0.65994749809222
  N   -1.30297472767823      2.71445677670640     -1.01367989121572
  C   1.60471028974829      0.86416199688234     -0.00842269407727
  N   2.49734810815480      1.62877460085100     -0.07375421965616
  N   0.89100127666218     -1.35265392638965      0.43739996633177
  H   1.77931211721563     -1.49468453438635      0.88915932693475
  H   0.15944101292200     -2.01179756126078      0.66097786478594
