11
Coordinates from ORCA-job run
  C   -0.75083194659092      0.27999715803257     -0.23218856760499
  C   0.49901574392693     -0.23242358778218      0.02978590921328
  C   -1.25198866375646      0.40084776031072     -1.55898306889153
  N   -1.67490175491777      0.50767796465113     -2.65209799774026
  C   -1.54931067088265      0.70576694633718      0.86797743312983
  N   -2.13504381515037      1.03476575868884      1.83536709866893
  C   1.32745694590998     -0.65772684062274     -1.06218474010934
  N   2.03260964014774     -1.00355261600900     -1.93910381964527
  N   0.99760318769032     -0.43938910685326      1.27556955830326
  H   1.98986607362867     -0.57502127341825      1.37716566754394
  H   0.51652525999454     -0.02094216333502      2.05869252713216
