11
Coordinates from ORCA-job run
  C   -0.76748831900034      0.30801510788944     -0.11391587814725
  C   0.54343548871736     -0.08586981521370      0.02663777774162
  C   -1.78393212889528     -0.68516893182624     -0.01836058842971
  N   -2.55323327859727     -1.57169111878984      0.07867591344216
  C   -1.12484028865024      1.66715720603288     -0.33973590035599
  N   -1.43152619226321      2.78815712031687     -0.52531218791833
  C   1.58592031297756      0.89704656205480     -0.05469264503261
  N   2.46100457678697      1.68258106701713     -0.10745439675085
  N   0.94554489522797     -1.37469094033903      0.16894238297004
  H   0.24751471346300     -2.07379506097682      0.37800477333569
  H   1.87660022023348     -1.55174119616549      0.50821074914524
