11
Coordinates from ORCA-job run
  C   -0.73407769030196      0.28476373505866     -0.27659909935724
  C   0.51712488762127     -0.05816516252919      0.18198671869464
  C   -1.77267510752729     -0.68667706696769     -0.19155211414374
  N   -2.56472391705773     -1.55186681458972     -0.08506662136420
  C   -1.00691000682899      1.56516772189730     -0.83539202996555
  N   -1.24448388746982      2.61844637551444     -1.30396040837477
  C   1.58452656659478      0.89704508240336      0.09472627830443
  N   2.48373601197311      1.65347946313811      0.02389608820935
  N   0.81490543366878     -1.23455610143587      0.79089846240671
  H   1.78209462078356     -1.50435406156539      0.86313454586116
  H   0.14048308854429     -1.98428317092402      0.73792817972921
