11
Coordinates from ORCA-job run
  C   -0.73879053419350      0.30464118251692     -0.24175277384280
  C   0.51892505134327     -0.07196325307174      0.17053883740578
  C   -1.76935344559143     -0.67881534120182     -0.24457943508496
  N   -2.55537767867711     -1.55558540150840     -0.21908454791750
  C   -1.02427575943625      1.63098924286911     -0.67149070339693
  N   -1.27066148469818      2.72359933333966     -1.03313316308116
  C   1.57736448721991      0.89717918255675      0.17554390683028
  N   2.46554752041389      1.66966355720462      0.18557605605622
  N   0.83158162437343     -1.30227304304477      0.65185302065464
  H   0.16342591678352     -2.04941531812774      0.52873178657686
  H   1.80161430246245     -1.56702014153259      0.69879701579957
