11
Coordinates from ORCA-job run
  C   -0.73598739482580      0.29808479285293     -0.25596526798804
  C   0.51963315094314     -0.06859473771579      0.17103457304634
  C   -1.77952712766053     -0.66951727668119     -0.19222812033168
  N   -2.57656182434063     -1.53233927237221     -0.10627573921583
  C   -1.00863694416457      1.60032999320758     -0.76194628591044
  N   -1.24562328479613      2.67234341818688     -1.18610412884029
  C   1.59021640334722      0.88493503458556      0.10723119555961
  N   2.48986396380713      1.64238902785809      0.05568799032160
  N   0.81960741570661     -1.26916597288020      0.72975247652673
  H   0.14072367409682     -2.01327133059478      0.65754253920310
  H   1.78629196788674     -1.54519367644687      0.78027076762890
