11
Coordinates from ORCA-job run
  C   -0.75947746925883      0.30679572258872     -0.15882029632035
  C   0.53249605961869     -0.07479198939339      0.12154704217923
  C   -1.09585237703153      1.65419174621544     -0.47087484786565
  N   -1.38509516451740      2.76471923385984     -0.73228571663309
  C   -1.77582786805135     -0.69120706116627     -0.14189788649987
  N   -2.54619928941790     -1.58151153829928     -0.10791799370067
  C   1.57661882675078      0.90954244768169      0.09875260129626
  N   2.45365705421064      1.69434181670688      0.07289500467681
  N   0.89810545786983     -1.32707855389684      0.49751574268212
  H   1.87078336119528     -1.57961014555567      0.43860031895853
  H   0.22979140863178     -2.07539167874113      0.38248603122670
