11
Coordinates from ORCA-job run
  C   -0.76461050998198      0.31044041855349     -0.12465120199418
  C   0.54283923080178     -0.08922880981893      0.03088792210984
  C   -1.78831336348476     -0.67395964366730     -0.01402963003756
  N   -2.56456320010098     -1.55274317528711      0.09718695246516
  C   -1.11144819699998      1.66696624251806     -0.38088067068168
  N   -1.40914905417968      2.78620468365460     -0.59031342042587
  C   1.59194032922482      0.88535457516797     -0.06529688299630
  N   2.47131527500102      1.66548381919805     -0.12807852396249
  N   0.93611555134757     -1.37734741014073      0.20185916556993
  H   0.23251094568092     -2.06774865460178      0.42100172485028
  H   1.86336299269128     -1.55242204557632      0.55231456510288
