11
Coordinates from ORCA-job run
  C   -0.74313286783133      0.28638678395370     -0.24905403313814
  C   0.53575457566061     -0.08063318198731      0.10188371654105
  C   -1.77604142678290     -0.68988276005292     -0.15158534643530
  N   -2.56322701789687     -1.55831258267407     -0.03623454522389
  C   -1.05403609930352      1.60447947102480     -0.68759864228071
  N   -1.32200997417978      2.69226229540806     -1.04824823915009
  C   1.59053258528080      0.88944913267979      0.02705404777107
  N   2.47238345366259      1.66824022336626     -0.01355334124900
  N   0.90246447071901     -1.33854445016969      0.45723847570246
  H   1.78205991735710     -1.46501392845639      0.93018007889412
  H   0.17525238331429     -2.00643100309223      0.66991782856843
