11
Coordinates from ORCA-job run
  C   -0.73899622536902      0.27867997374786     -0.27021026268092
  C   0.53260059027475     -0.07346639563409      0.12031560286819
  C   -1.75936906579718     -0.71389967620025     -0.21865461077475
  N   -2.53625418836331     -1.59559853200826     -0.13975116196119
  C   -1.05451499265807      1.59675701951462     -0.70543003613754
  N   -1.32657741208345      2.68401626886809     -1.06463422944752
  C   1.57550503491854      0.91200411100768      0.09004500070318
  N   2.44721014303047      1.70314140740778      0.08663048368582
  N   0.90599058611926     -1.32971270243977      0.47457155592009
  H   1.77044621855853     -1.44886956515115      0.97637211282970
  H   0.18295931136948     -2.01205190911252      0.65174554499494
