11
Coordinates from ORCA-job run
  C   -0.77427922141661      0.28488254994924     -0.12373158576779
  C   0.54558474313271     -0.06609735398181      0.04280017983286
  C   -1.17957114860144      1.64034704561262     -0.27973973305527
  N   -1.52727630931546      2.75688469680470     -0.41209115057364
  C   -1.75192920999719     -0.75116717254208     -0.12798701913843
  N   -2.48803001025654     -1.67043403202572     -0.11466074971160
  C   1.54905209843544      0.95978283486931      0.06157168257645
  N   2.39267725452067      1.78030841613189      0.09270591989387
  N   0.99543138609332     -1.34480858010742      0.11904385658183
  H   0.31962916274320     -2.08225928421498      0.25763326774378
  H   1.91971125466190     -1.50643912049574      0.48345533161795
