11
Coordinates from ORCA-job run
  C   -0.74708892542687      0.37041506533317     -0.01107136585092
  C   0.53783192628685     -0.12161501200145      0.00654403437570
  C   -1.02862142059369      1.72483240000184     -0.34616731880079
  N   -1.27117309917183      2.84230183875369     -0.62471969210240
  C   -1.81524927382379     -0.51599731674792      0.30856462666813
  N   -2.63503595912861     -1.31738485075148      0.57853389477215
  C   1.62884012405548      0.75114593768939     -0.32233211492400
  N   2.54089098972206      1.44268260591495     -0.59737622097255
  N   0.87272332569758     -1.38035551512683      0.39000945881183
  H   1.78102003543841     -1.73159802065747      0.13511850245818
  H   0.13486227694443     -2.06342713240789      0.48289619556467
