11
Coordinates from ORCA-job run
  C   -0.75332667389994      0.30699561998048     -0.18973164444678
  C   0.53895538506857     -0.09002422713432      0.06739898054003
  C   -1.79046364117643     -0.66301830450115     -0.07841280611027
  N   -2.57712590717664     -1.53098203096047      0.04376706008104
  C   -1.07189070649725      1.64770741031808     -0.54609651941266
  N   -1.34693086287299      2.75440693596989     -0.83733757856560
  C   1.60166061482834      0.86975726101789     -0.02788639350140
  N   2.49234910147064      1.63703413200801     -0.08963878888496
  N   0.90833679053788     -1.36705911224812      0.34204017417209
  H   0.18616060826546     -2.03732306779738      0.56396823380659
  H   1.81327529145237     -1.52749461665293      0.75192928232193
