11
Coordinates from ORCA-job run
  C   -0.74838233525500      0.30190111198400     -0.21255513430368
  C   0.53728425003069     -0.08532850191878      0.08843638563234
  C   -1.77419211384279     -0.68606175017519     -0.18564819284079
  N   -2.55417845599524     -1.56711966338219     -0.13553554771363
  C   -1.07248827206531      1.65022559417040     -0.53386855938171
  N   -1.35208027831650      2.76289934048577     -0.79671665841227
  C   1.58655929759079      0.89376224767048      0.07896625126207
  N   2.46429454885402      1.67815153090535      0.08997168886697
  N   0.91534941578356     -1.36612946011026      0.33217256822088
  H   1.80277458167511     -1.52758010377328      0.77880807024499
  H   0.19505936154069     -2.05472034585629      0.49596912842483
