11
Coordinates from ORCA-job run
  C   -0.73447787472764      0.31088599979657     -0.25032136188568
  C   0.51465422343003     -0.07714594176715      0.17710471144102
  C   -1.76586935005530     -0.67067171141719     -0.29502932636970
  N   -2.55161487845822     -1.54803675709336     -0.30107689860931
  C   -1.01009450256076      1.64855392443370     -0.65113467170266
  N   -1.24345445807800      2.75143848941241     -0.98944642922406
  C   1.57356723346447      0.89047238304197      0.22596660169320
  N   2.46308027729042      1.66027299819649      0.26835780059191
  N   0.81665611749605     -1.31853206396017      0.63614219280678
  H   1.78531716225555     -1.58550258947677      0.69582530678609
  H   0.15023604994341     -2.06173473116650      0.48361207447243
