11
Coordinates from ORCA-job run
  C   -0.77564795553216      0.27432560444398     -0.14089851548300
  C   0.54492500571003     -0.05954069939163      0.05538485864414
  C   -1.19204512387394      1.62414616431112     -0.31666603336103
  N   -1.54737588564171      2.73698760784798     -0.45989387713493
  C   -1.74018138741532     -0.77390353417470     -0.16163262218527
  N   -2.46425411562906     -1.70284722103194     -0.15993606784294
  C   1.53468884623530      0.97910043606044      0.09008880273733
  N   2.36498550248291      1.81239088189468      0.13508438406069
  N   1.00809872889292     -1.33175055071712      0.15152827651422
  H   0.33926344438854     -2.07808381158709      0.27485514186238
  H   1.92754294038250     -1.48082487765571      0.53308565218842
