11
Coordinates from ORCA-job run
  C   -0.79427591311497      0.21641218391244     -0.13731243452644
  C   0.53970284457260     -0.10596097274443     -0.03728117170003
  C   -1.54357749748613      0.36483533929515      1.06502293670593
  N   -2.08229479942586      0.46078098873217      2.10791462937911
  C   -1.43599199711961      0.38575231855007     -1.39632825691139
  N   -1.97875645650192      0.52387011537240     -2.43157601154886
  C   1.31427074112838     -0.27477166792153     -1.23354528467817
  N   1.97082235849642     -0.43029238122378     -2.19807988649817
  N   1.21671940821726     -0.21231748242284      1.13446322915199
  H   0.68659699006014     -0.24794988323757      1.99316843344553
  H   2.10778432117370     -0.68035855831208      1.13355381718050
