11
Coordinates from ORCA-job run
  C   -0.74597482485298      0.33929217310290     -0.15838200649562
  C   0.53684169797527     -0.12097143180787      0.03145724189134
  C   -1.82737653998392     -0.54368294153618      0.12449749752355
  N   -2.65487672909183     -1.33882090967625      0.38914311941829
  C   -1.01251369138661      1.66308841855475     -0.60792580166159
  N   -1.24562989268265      2.75683893391985     -0.97507832833773
  C   1.64407874606455      0.75289928336092     -0.23291476836390
  N   2.57039442980642      1.45163098549112     -0.43108154110335
  N   0.84973613038927     -1.39162552529391      0.39227797028080
  H   1.77555892309066     -1.57783036479454      0.74051955361507
  H   0.10976175067183     -1.99081862132079      0.72848706323315
