11
Coordinates from ORCA-job run
  C   -0.72096579117206      0.28340554561241     -0.30786191813588
  C   0.50934764453687     -0.05987223763306      0.20376538624971
  C   -1.75686168022054     -0.69420104419957     -0.28915145586666
  N   -2.55018776328998     -1.56324085952759     -0.23746883704847
  C   -0.97528640341529      1.57224042977118     -0.85593970801127
  N   -1.19840873102047      2.63417290268819     -1.31158488651429
  C   1.57163045822062      0.90492312565595      0.18513237008140
  N   2.46224661176921      1.67474323505255      0.17295774653610
  N   0.78620545480238     -1.24438087642263      0.80675866482913
  H   1.75066529835355     -1.50812988407423      0.92327098923616
  H   0.12061490143570     -1.99766033692320      0.71012164864407
