11
Coordinates from ORCA-job run
  C   -0.79480641911089      0.18884180043163     -0.17285377673797
  C   0.53859988735909     -0.11256747736793     -0.01695783518035
  C   -1.54429235510222      0.54991748962963      0.98339896337954
  N   -2.08348559524959      0.83219967453106      1.99172645638826
  C   -1.43418457349395      0.13618180778663     -1.44351879454876
  N   -1.97282892917274      0.09316618447465     -2.48906848352643
  C   1.31311960460474     -0.49107458636348     -1.16437085516649
  N   1.97119556342862     -0.81399509568866     -2.08550128383965
  N   1.21701352155080     -0.00856135072964      1.15469686385513
  H   0.68676823737275      0.10639968711568      2.00645431996953
  H   2.10290105781338     -0.47950813381956      1.23699442540720
