11
Coordinates from ORCA-job run
  C   -0.79466451119553      0.20104516842874     -0.15566334457952
  C   0.53495503015871     -0.12979427893239     -0.02892059163139
  C   -1.49368004815979      0.64131203107190      1.00482560102763
  N   -1.98940604872034      0.99103996860847      2.01433516295179
  C   -1.47837689847806      0.10591550542556     -1.40054684395715
  N   -2.05337435086315      0.02864886427621     -2.42454747164183
  C   1.25847199280890     -0.58662611938211     -1.18105625123822
  N   1.87345341377406     -0.97417357671594     -2.10701796565050
  N   1.25570943414897      0.01348389391741      1.11280943173253
  H   2.13064219337829     -0.47818832899877      1.19082386323306
  H   0.75726979314795      0.18633687230093      1.97395840975361
