11
Coordinates from ORCA-job run
  C   -0.73894194231723      0.31308257929542     -0.23040323411229
  C   0.52202435422555     -0.07877575286503      0.15659566292199
  C   -1.79358567037996     -0.64171667032396     -0.15801555986976
  N   -2.59939032955729     -1.49609486729675     -0.06925728821366
  C   -1.00541869085971      1.62812006754860     -0.70553377336964
  N   -1.23496640810961      2.71154061638991     -1.10391370464284
  C   1.60435745537755      0.86077875139160      0.08203431806729
  N   2.51289381347127      1.60678151993835      0.02037945223698
  N   0.81984700633003     -1.29398592768752      0.68342737849180
  H   0.12933339980412     -2.02781185295868      0.61644043401537
  H   1.78384701201528     -1.58291846343196      0.70624631447474
