11
Coordinates from ORCA-job run
  C   -0.72399144987229      0.33977236690932     -0.23588568204787
  C   0.50404303544403     -0.22294793729554      0.02706986801366
  C   -1.46810267020440      0.87431727675711      0.85504139532521
  N   -2.01252657344889      1.29075525099063      1.81292605989874
  C   -1.26057280317048      0.39350089084899     -1.55297007585978
  N   -1.71276070043982      0.43913076674563     -2.63866489333436
  C   1.26941216570211     -0.77593231597128     -1.05356788274631
  N   1.91041014991500     -1.24621469688537     -1.92164079320314
  N   1.09734091810795     -0.23237178578764      1.24833929142107
  H   1.85915559367145     -0.87114144759319      1.40604816826603
  H   0.53759233429534      0.00913163128135      2.05330454426676
