11
Coordinates from ORCA-job run
  C   -0.74204542783624      0.35183423237212     -0.14698817449192
  C   0.53295037686285     -0.10758044067340      0.09105845689852
  C   -1.83432007940187     -0.52638045441161      0.10726801104227
  N   -2.67239161066436     -1.31988263681708      0.34202328461840
  C   -0.98866105391114      1.66246734761024     -0.64456775981983
  N   -1.20349697241969      2.74319653355199     -1.05808968126750
  C   1.65075737618187      0.75381999218594     -0.17063804229490
  N   2.58657517857381      1.43467717527044     -0.38620019250358
  N   0.82364260183339     -1.31746348459486      0.63440583696679
  H   0.08633114656116     -2.00514239007675      0.69223868933914
  H   1.76165846422021     -1.67054587441703      0.54148957151262
