11
Coordinates from ORCA-job run
  C   -0.74924871728107      0.35996300829348     -0.06320481649391
  C   0.53750809048459     -0.12443408185792     -0.01088622481343
  C   -1.82477172489734     -0.56012621831994      0.09744584781701
  N   -2.65007589977778     -1.38789117448562      0.24191852330371
  C   -1.02586110974436      1.74234722469661     -0.26027373450902
  N   -1.26607458022192      2.88343772125367     -0.41930537800987
  C   1.63762050357847      0.78546659041331     -0.15666253866176
  N   2.55894164085286      1.51018305599992     -0.26525424416502
  N   0.85883094452035     -1.43904655753823      0.10013307569271
  H   1.79398943282520     -1.68009784483334      0.38413451185260
  H   0.12914141966099     -2.08980172362193      0.35295497798699
