18

C	-0.344741	-0.104369	-1.493711
C	0.0	0.0	0.0
F	-0.314485	1.261198	-1.973996
H	1.092167	0.0	0.0
N	0.634931	-0.857865	-2.182706
H	1.535605	-0.751343	-1.702814
H	0.721114	-0.487074	-3.121621
N	-1.661046	-0.613375	-1.73601
H	-1.716345	-0.956995	-2.686692
H	-2.340355	0.124702	-1.600539
N	-0.429547	-1.250003	0.66789
O	-1.266691	-1.180478	1.577729
O	0.096333	-2.297095	0.297809
C	-0.547332	1.216777	0.704182
H	-0.107374	2.102882	0.249093
H	-1.637463	1.279926	0.657315
H	-0.255449	1.183632	1.754528
H	2.780162	0.0	0.0
