18

C	-0.277317	-0.110639	-1.50676
C	0.0	0.0	0.0
F	-1.621986	0.228907	-1.75595
H	1.09683	0.0	0.0
N	0.504161	0.866693	-2.237052
H	1.462561	0.786684	-1.880375
H	0.170553	1.797391	-2.014812
N	-0.027251	-1.414171	-2.009163
H	0.619356	-1.914452	-1.413294
H	0.355601	-1.313355	-2.939533
N	-0.474089	-1.168328	0.770715
O	-1.398568	-1.019911	1.580042
O	0.115822	-2.241832	0.606243
C	-0.518198	1.279021	0.615955
H	-0.028991	2.127386	0.133991
H	-1.599591	1.373872	0.522696
H	-0.249406	1.308245	1.672935
H	2.735321	0.0	0.0
