18

C	-0.321879	0.007502	-1.490409
C	0.0	0.0	0.0
F	-0.009048	-1.315575	-1.965036
H	1.096343	0.0	0.0
N	-1.681924	0.292347	-1.821758
H	-2.237184	-0.484742	-1.484419
H	-1.769681	0.344792	-2.830885
N	0.57337	0.940153	-2.080244
H	1.512147	0.753092	-1.705292
H	0.591951	0.794708	-3.083777
N	-0.528249	-1.200411	0.684281
O	-1.591927	-1.696514	0.287585
O	0.088431	-1.605421	1.667488
C	-0.497653	1.227397	0.735909
H	-0.10478	1.218239	1.755599
H	-0.112453	2.107118	0.22024
H	-1.589286	1.274586	0.748868
H	2.824293	0.0	0.0
