18

C	-0.33953	-0.03914	-1.494134
C	0.0	0.0	0.0
F	-0.04714	-1.352159	-1.917295
H	1.095991	0.0	0.0
N	-1.690461	0.194684	-1.939818
H	-2.297245	-0.43446	-1.428834
H	-1.932244	1.150221	-1.714074
N	0.520926	0.913288	-2.098015
H	1.476627	0.754353	-1.760709
H	0.474012	0.79237	-3.102179
N	-0.535252	-1.164351	0.736186
O	-1.582491	-1.693833	0.338877
O	0.055573	-1.505064	1.7601
C	-0.475031	1.253171	0.708189
H	-0.069386	1.268222	1.722456
H	-1.568435	1.309571	0.754802
H	-0.086783	2.11845	0.17002
H	2.805086	0.0	0.0
