18

C	-0.34423	0.060384	-1.48875
C	0.0	0.0	0.0
F	-1.654508	0.616637	-1.63762
H	1.094217	0.0	0.0
N	0.542298	0.980489	-2.166906
H	1.491119	0.736661	-1.860313
H	0.35537	1.914796	-1.825577
N	-0.22392	-1.181365	-2.148897
H	-0.332928	-1.013764	-3.140345
H	-0.899959	-1.841675	-1.792644
N	-0.489737	-1.18089	0.740332
O	-1.304479	-1.962521	0.220912
O	-0.061152	-1.320624	1.888826
C	-0.425629	1.23181	0.780981
H	0.017541	1.185893	1.775295
H	-1.512953	1.314665	0.853181
H	-0.035916	2.125149	0.290855
H	2.731579	0.0	0.0
