18

C	-0.342983	0.002861	-1.503243
C	0.0	0.0	0.0
F	-0.145411	1.349142	-1.899408
H	1.091867	0.0	0.0
N	0.540077	-0.762552	-2.326966
H	0.427442	-1.725308	-2.029325
H	1.485907	-0.503214	-2.034946
N	-1.68763	-0.39366	-1.758867
H	-1.838767	-0.330961	-2.759274
H	-2.322199	0.236315	-1.283102
N	-0.402207	-1.282584	0.597572
O	-0.040438	-2.322694	0.036414
O	-1.022155	-1.276623	1.67151
C	-0.521838	1.170103	0.799313
H	-0.136525	2.085194	0.352295
H	-1.614855	1.211186	0.838
H	-0.152407	1.1014	1.822939
H	2.707177	0.0	0.0
