12
Coordinates from ORCA-job run
  C   0.95231599813812     -0.30309132145005      0.13262481437432
  C   -0.32748457579635      0.37151555039104     -0.35756118553466
  Cl  1.32648046167305      0.15675142707246      1.82368367361860
  H   -0.42045548036231      0.14517516398944     -1.42511562234991
  H   0.83116856967768     -1.38940691331624      0.13499217450953
  H   -0.20214348420008      1.45373363309466     -0.26540764855547
  C   2.09139235402556      0.03416426202552     -0.71783350576765
  N   2.99307059289995      0.28720271679384     -1.42591128132058
  C   -1.57025782334194     -0.09943303829876      0.38696039990322
  H   -2.45994634208004      0.38193310623074     -0.02324242878015
  H   -1.70057498603372     -1.18039460986918      0.28936578607261
  H   -1.51556528459992      0.14385002333652      1.44844482383015
