12
Coordinates from ORCA-job run
  C   1.02130909821438     -0.44966728702019      0.10627101361381
  C   -0.32401781153194     -0.07917722106586      0.72398879082875
  Cl  2.24371875751285     -0.74536794394536      1.38041676884048
  H   -0.19006154101399      0.82092717682901      1.32978385097915
  H   0.93565981433382     -1.38324761163983     -0.45518261748465
  H   -0.60585045192018     -0.88879730374400      1.40266556053443
  C   1.50387646702782      0.59121279006832     -0.79861295814031
  N   1.84814246974694      1.44050288029479     -1.53277463733764
  C   -1.39767390669193      0.13317752432318     -0.33846981145739
  H   -1.52564301412913     -0.75919973246317     -0.95683910240229
  H   -2.35728538503136      0.34884908829615      0.13512715687170
  H   -1.15217449651725      0.97078764006695     -0.99437401484604
