12
Coordinates from ORCA-job run
  C   1.08297397576194     -0.35700586362294      0.21454391472696
  C   -0.39041662936653     -0.72562931532078      0.04784644979325
  Cl  1.40343587015703      0.32523047386483      1.84072649672983
  H   -0.64209645933828     -1.43145122929897      0.84445101743212
  H   1.70491107631724     -1.25156514439755      0.14056146341460
  H   -0.47760757181030     -1.26381100498989     -0.90261739494950
  C   1.52179924134714      0.59329480632720     -0.80558976497080
  N   1.86862962867113      1.32993162074453     -1.65153928331389
  C   -1.33328580652405      0.46987925551228      0.06568205442869
  H   -1.10551036625374      1.16461986353702     -0.74561468289249
  H   -2.36459665449361      0.13485421024104     -0.05948413449423
  H   -1.26823630446796      1.01165232740323      1.01003386409547
