12
Coordinates from ORCA-job run
  C   1.08770051016355     -0.34933378882924      0.21875649471040
  C   -0.37853769484832     -0.73327176399165      0.02474562435312
  Cl  1.38034484063233      0.28850576250248      1.86814443299157
  H   -0.44762535306677     -1.25021645571868     -0.93898216900717
  H   1.72350089234398     -1.23227862823817      0.12524104408386
  H   -0.63018177757440     -1.46071894550949      0.80176065017227
  C   1.52295228156143      0.63785120774379     -0.76709103040442
  N   1.84088490096999      1.41309092752756     -1.58965644396296
  C   -1.33723688933558      0.44933144348267      0.05921245474317
  H   -1.28426688989926      0.97469598174385      1.01370226118036
  H   -1.11417359340460      1.16151378067335     -0.73823689851431
  H   -2.36336122754234      0.10283047861352     -0.07759642034589
