16

C	0.0	0.0	0.0
C	-0.469877	0.243908	-1.431871
Br	2.01647	0.0	0.0
H	-1.547153	0.403234	-1.291118
H	-0.351264	-0.73805	-1.900752
N	-0.258735	1.256378	0.912418
O	-0.370245	2.361205	0.396552
O	-0.319309	1.039618	2.118559
N	-0.598899	-1.123467	0.526312
H	-1.655231	-0.858196	0.35831
H	-0.418946	-1.161026	1.524214
C	0.181131	1.307654	-2.304212
H	-0.290085	1.276129	-3.292082
H	0.040876	2.304066	-1.894304
H	1.249441	1.134156	-2.440571
F	-2.813397	0.0	0.0
