16

C	0.0	0.0	0.0
C	-0.460697	0.092781	-1.457548
Br	1.944206	0.0	0.0
H	0.116744	0.850438	-1.987275
H	-1.509481	0.390393	-1.354135
N	-0.336247	1.360375	0.674208
O	-0.289983	2.353428	-0.045002
O	-0.565685	1.36822	1.871687
N	-0.572928	-0.99953	0.798856
H	-1.617099	-0.767656	0.638283
H	-0.352515	-1.898505	0.384859
C	-0.397311	-1.259076	-2.155275
H	-0.598004	-1.138752	-3.223371
H	-1.171274	-1.911834	-1.748431
H	0.578792	-1.743855	-2.051589
F	-2.782728	0.0	0.0
