16

C	0.0	0.0	0.0
C	-0.578925	0.184184	-1.364277
Br	2.032116	0.0	0.0
H	-1.66465	0.329147	-1.043279
H	-0.136714	1.049833	-1.855877
N	-0.350553	1.188486	0.893393
O	-0.456799	0.985876	2.096693
O	-0.427657	2.280744	0.351231
N	-0.401189	-1.175759	0.646174
H	0.192376	-1.956169	0.41527
H	-0.491013	-1.041626	1.644211
C	-0.505817	-1.090439	-2.185023
H	0.506955	-1.508955	-2.260616
H	-1.174268	-1.824486	-1.727175
H	-0.864745	-0.895529	-3.200802
F	-2.822845	0.0	0.0
