16

C	0.0	0.0	0.0
C	-0.491536	-0.335641	-1.416451
Br	1.936354	0.0	0.0
H	-0.194334	-1.382571	-1.547615
H	-1.583138	-0.299746	-1.262482
N	-0.373749	1.461398	0.360674
O	-0.11944	2.311936	-0.490238
O	-0.84647	1.694318	1.458814
N	-0.565983	-0.813166	1.004586
H	-0.377622	-1.7777	0.748279
H	-1.605828	-0.616199	0.824101
C	-0.042821	0.468643	-2.628821
H	-0.520018	1.445443	-2.651021
H	1.03851	0.616011	-2.659008
H	-0.335821	-0.072642	-3.535534
F	-2.811101	0.0	0.0
