17

C	-0.179659	0.025569	-1.53493
C	0.0	0.0	0.0
Cl	0.092352	-1.786369	-2.102355
H	1.102761	0.0	0.0
C	-1.565711	0.35272	-2.038859
H	-1.802645	1.38481	-1.763848
H	-2.283429	-0.326236	-1.573804
H	-1.626755	0.247646	-3.124433
N	0.842309	0.860208	-2.004243
H	0.952997	0.822576	-3.006815
H	1.719116	0.638961	-1.497314
N	-0.686873	-1.11168	0.668592
H	-0.650189	-0.923076	1.663266
H	-0.105963	-1.92766	0.517315
C	-0.484681	1.263816	0.535991
N	-0.862833	2.274257	1.003399
F	2.654222	0.0	0.0
