17

C	-0.387952	-0.181861	-1.468253
C	0.0	0.0	0.0
Cl	0.125332	1.382643	-2.333352
H	1.094657	0.0	0.0
C	0.468431	-1.28581	-2.055384
H	0.386969	-1.310462	-3.14694
H	0.137556	-2.233555	-1.629255
H	1.499069	-1.086632	-1.741397
N	-1.788569	-0.409793	-1.635239
H	-2.005236	-0.571272	-2.613422
H	-2.304379	0.406271	-1.324259
N	-0.353049	-1.218942	0.734877
H	0.318039	-1.312693	1.490145
H	-1.290483	-1.174896	1.116736
C	-0.594803	1.197889	0.586393
N	-1.097199	2.115386	1.126028
F	2.600885	0.0	0.0
