17

C	-0.081967	-0.006322	-1.531824
C	0.0	0.0	0.0
Cl	-1.808079	-0.243011	-2.084705
H	1.09681	0.0	0.0
C	0.459517	1.296883	-2.082222
H	0.504315	1.236542	-3.17135
H	1.466918	1.399047	-1.664401
H	-0.153099	2.147501	-1.781857
N	0.717858	-1.102036	-2.042699
H	1.636248	-0.9141	-1.612358
H	0.37406	-1.932525	-1.564098
N	-0.459039	-1.258786	0.571658
H	0.083622	-1.449368	1.405619
H	-1.44073	-1.211041	0.819969
C	-0.572962	1.183099	0.625115
N	-1.034395	2.11712	1.173001
F	2.625631	0.0	0.0
