17

C	-0.193673	-0.010977	-1.54356
C	0.0	0.0	0.0
Cl	0.147219	-1.71207	-2.073075
H	1.094897	0.0	0.0
C	-1.586587	0.335473	-2.021533
H	-1.822714	1.368093	-1.747219
H	-1.645411	0.232771	-3.10653
H	-2.311577	-0.32981	-1.551642
N	0.820462	0.82655	-2.147235
H	1.68924	0.648682	-1.61444
H	0.55809	1.795491	-1.990197
N	-0.629371	-1.104673	0.724619
H	0.119817	-1.700212	1.05687
H	-1.134047	-0.759603	1.530886
C	-0.443357	1.292086	0.49979
N	-0.823332	2.328447	0.909003
F	2.630047	0.0	0.0
