17

C	-0.198143	0.020287	-1.538754
C	0.0	0.0	0.0
Cl	0.129174	-1.685235	-2.108518
H	1.102569	0.0	0.0
C	-1.592474	0.374754	-2.005986
H	-1.660618	0.277956	-3.090803
H	-2.313725	-0.290384	-1.528042
H	-1.824812	1.405948	-1.722037
N	0.822929	0.850517	-2.13107
H	1.687284	0.668104	-1.592005
H	0.561883	1.820341	-1.978924
N	-0.685156	-1.099397	0.698389
H	-0.611386	-0.911657	1.693312
H	-0.114591	-1.921707	0.531594
C	-0.462093	1.278436	0.52123
N	-0.833225	2.310898	0.946437
F	2.642271	0.0	0.0
