17

C	-0.188164	-0.006143	-1.533563
C	0.0	0.0	0.0
Cl	0.12539	-1.814868	-2.060503
H	1.095434	0.0	0.0
C	-1.584616	0.280774	-2.0364
H	-1.650524	0.155083	-3.120844
H	-1.850245	1.308849	-1.776337
H	-2.277748	-0.415347	-1.556787
N	0.813067	0.841014	-2.021822
H	0.892925	0.824856	-3.031248
H	1.703734	0.634774	-1.5336
N	-0.666317	-1.111308	0.694117
H	-0.822902	-0.826596	1.6526
H	0.011651	-1.863741	0.724574
C	-0.490264	1.270918	0.517348
N	-0.92137	2.263219	0.979211
F	2.645008	0.0	0.0
