13

C	0.0	0.0	0.0
C	-0.539006	-0.060643	-1.424824
Br	1.961142	0.0	0.0
H	-1.668847	-0.120752	-1.163513
H	-0.268526	0.837317	-1.976809
C	-0.41486	1.283516	0.57647
N	-0.572512	2.361127	1.017926
C	-0.431767	-1.094542	0.875284
N	-0.595016	-1.956322	1.65741
N	-0.066228	-1.213416	-2.192042
O	0.178032	-2.261491	-1.593476
O	-0.001894	-1.074816	-3.416139
F	-2.558426	0.0	0.0
