12
Coordinates from ORCA-job run
  C   0.98204329715982      0.18193714531096     -0.06277875444667
  C   -0.41782480670977     -0.19210278192017      0.39123468006575
  F   0.99318547599406      1.49387356043379     -0.51390038613026
  H   -0.69185587960747      0.47342332949543      1.21477653416985
  H   1.30410438740287     -0.44800037471439     -0.89827235097010
  H   -0.38388182679485     -1.20957088755970      0.79325091936859
  C   1.96041108439309      0.05337486971261      1.02935475831286
  N   2.73726047708631     -0.07481116372952      1.89916506522604
  C   -1.42633267838254     -0.08864228854323     -0.74732621187374
  H   -2.42588400133692     -0.35433913247832     -0.39897274771274
  H   -1.46317278317322      0.92755843608781     -1.14053896674370
  H   -1.16705274603137     -0.76370071209528     -1.56699253926589
