13

C	0.0	0.0	0.0
C	-0.49725	0.020483	-1.428791
Cl	1.782926	0.0	0.0
H	-0.151336	0.910584	-1.948668
H	-0.284217	-0.949308	0.460085
H	-1.593465	-0.036102	-1.398459
N	-0.501138	1.180412	0.65423
H	-1.523296	1.121923	0.591808
H	-0.262589	1.129198	1.638642
N	-0.018058	-1.151326	-2.202295
O	0.363438	-0.953341	-3.35616
O	-0.063303	-2.252205	-1.657551
Br	-3.719803	0.0	0.0
