13

C	0.0	0.0	0.0
C	-0.517525	0.143698	-1.411309
Cl	1.831577	0.0	0.0
H	-0.227672	1.089661	-1.865633
H	-0.305674	-0.962899	0.40064
H	-1.613239	0.052582	-1.333208
N	-0.514111	1.056984	0.778648
H	-0.651099	0.826405	1.748183
H	-0.0161	1.924833	0.658761
N	-0.019153	-0.930338	-2.304342
O	-0.00479	-2.075551	-1.85744
O	0.316629	-0.615766	-3.446648
Br	-3.844303	0.0	0.0
