13

C	0.0	0.0	0.0
C	-0.540005	-0.140005	-1.405057
Cl	1.847684	0.0	0.0
H	-1.637097	-0.053944	-1.316056
H	-0.255818	-0.920109	0.52452
H	-0.246094	-1.084701	-1.855797
N	-0.522521	1.093387	0.691616
H	-0.369451	1.979721	0.240509
H	-0.306545	1.096617	1.674018
N	-0.058988	0.915409	-2.331685
O	-0.086279	2.084416	-1.942917
O	0.314088	0.562369	-3.450396
Br	-3.88864	0.0	0.0
