13

C	0.0	0.0	0.0
C	-0.539424	-0.058376	-1.410565
Cl	1.845582	0.0	0.0
H	-1.635912	0.033748	-1.318561
H	-0.259625	-0.947117	0.471884
H	-0.259859	-0.982542	-1.910147
N	-0.522049	1.056447	0.748857
H	-0.372084	1.960065	0.331557
H	-0.281231	1.025236	1.72544
N	-0.046951	1.036557	-2.285468
O	0.255162	0.743533	-3.440795
O	0.000538	2.175681	-1.821311
Br	-3.904564	0.0	0.0
