13

C	0.0	0.0	0.0
C	-0.194512	0.09485	-1.535659
Cl	1.786106	0.0	0.0
H	0.096144	1.100072	-1.834256
H	-0.311475	-0.982678	0.366268
H	0.454597	-0.645039	-1.999382
N	-0.563503	1.133826	0.658447
H	-1.569007	1.110892	0.44038
H	-0.498473	1.006266	1.662223
N	-1.510527	-0.17711	-2.191043
O	-2.081565	0.775786	-2.710334
O	-1.846996	-1.354037	-2.26512
Br	-3.833176	0.0	0.0
