13

C	0.0	0.0	0.0
C	-0.433131	0.004913	-1.469644
Cl	1.800718	0.0	0.0
H	-1.525361	0.093925	-1.486804
H	-0.316863	-0.962593	0.401858
H	-0.089461	-0.888607	-1.987083
N	-0.495599	1.02956	0.851602
H	-0.429805	1.915598	0.364041
H	-1.489861	0.832967	0.982944
N	0.142739	1.145928	-2.224073
O	0.800321	0.896982	-3.234392
O	-0.071725	2.281545	-1.797275
Br	-3.640372	0.0	0.0
