15

C	0.0	0.0	0.0
C	-0.555541	-0.143416	-1.407309
Cl	1.783418	0.0	0.0
H	-1.656634	-0.111821	-1.232723
H	-0.273575	-0.948986	0.475501
N	-0.529354	1.1701	0.628156
H	-1.558222	1.04731	0.515642
H	-0.339223	1.10251	1.623368
N	-0.14159	-1.361989	-2.018896
H	-0.728378	-1.552346	-2.820399
H	0.816151	-1.276625	-2.335965
N	-0.202815	1.072306	-2.242171
O	0.717789	0.955556	-3.0613
O	-0.859315	2.095596	-2.077811
H	-3.040406	0.0	0.0
