15

C	0.0	0.0	0.0
C	-0.523956	0.156123	-1.44353
Cl	1.794595	0.0	0.0
H	-1.601148	0.357599	-1.273127
H	-0.313419	-1.004292	0.291224
N	-0.511398	0.919017	0.964376
H	-0.382711	1.857696	0.599674
H	-1.532395	0.727166	0.929042
N	-0.383799	-0.979176	-2.298814
H	0.513821	-1.429269	-2.172055
H	-1.127967	-1.622266	-2.056417
N	0.098749	1.356377	-2.077047
O	-0.175784	2.450607	-1.572615
O	0.875796	1.203846	-3.017484
H	-2.988992	0.0	0.0
