15

C	0.0	0.0	0.0
C	-0.685777	0.133024	-1.321182
Cl	1.844001	0.0	0.0
H	-1.92001	0.173091	-0.816282
H	-0.233587	-1.014081	0.334774
N	-0.439358	0.93949	0.970704
H	0.085805	0.903387	1.827322
H	-0.425477	1.87359	0.565736
N	-0.621475	-1.003458	-2.178944
H	0.303028	-1.4144	-2.175797
H	-1.301442	-1.683933	-1.875382
N	-0.320134	1.352342	-2.025609
O	0.076757	1.28491	-3.180953
O	-0.450493	2.420151	-1.398333
H	-2.893014	0.0	0.0
