13
Coordinates from ORCA-job run
  C   -0.93082599272218     -0.06321280923531     -0.41562423494450
  C   0.57022911731647     -0.29531068110920     -0.65502242618082
  Cl  -1.84441330546146     -0.51914162108448     -1.89268121277752
  H   0.69041849328944     -1.34826182967281     -0.92380391643376
  H   0.84849479765941      0.30304882294915     -1.52681717356033
  C   -1.40905294555056     -0.88652845108691      0.69887196508831
  N   -1.74343182266252     -1.56293530156530      1.59960859228068
  C   -1.19250955176632      1.34964022084321     -0.12539076455308
  N   -1.35036654210833      2.49099494831664      0.10489817720540
  C   1.41974851547015      0.06613424900799      0.55715724813850
  H   2.47181037400060     -0.11709686231506      0.33128699107732
  H   1.31383386540935      1.12031624497382      0.82077531027129
  H   1.15506499712596     -0.53864693002174      1.42674144438852
