13
Coordinates from ORCA-job run
  C   -0.85943482918036     -0.09486690409978     -0.31274875042277
  C   0.43941760726496     -0.54836624706366      0.37871231949967
  Cl  -0.76424392517895     -0.40658187477842     -2.08035730665784
  H   0.26688246487439     -0.46092912615889      1.45661026467481
  H   0.56326813048962     -1.61037546898428      0.14937743916524
  C   -1.99979337934098     -0.84680330637363      0.21844819076417
  N   -2.90311187515325     -1.47069083696671      0.63700659992418
  C   -1.08602696783074      1.33884073648759     -0.10771419332158
  N   -1.26756541205355      2.48359081974076      0.08451411071576
  C   1.66378703067074      0.25584370567829     -0.03390172415658
  H   2.54246261700845     -0.12880539738269      0.48709169748141
  H   1.55429866782007      1.31022165394091      0.22775457635431
  H   1.84905987060959      0.18092224596051     -1.10579322402077
