13
Coordinates from ORCA-job run
  C   -0.84402660714146      0.08187939231269     -0.37131602138445
  C   0.59520296290622      0.52243769463658     -0.04607870558550
  Cl  -0.87071661063973     -0.88611648665694     -1.88603443586082
  H   0.52710067825000      1.21437481047044      0.79996117374590
  H   0.95186376960082      1.09101587939487     -0.90940566158942
  C   -1.39381598630119     -0.73889968582971      0.71136263443032
  N   -1.79440047583883     -1.38897586284979      1.60438744919358
  C   -1.69357670222654      1.25930215740844     -0.57014446725088
  N   -2.33456640777824      2.23299365310049     -0.71698796214048
  C   1.52924708947088     -0.63347546934494      0.28196199988619
  H   1.19207821737393     -1.17974054707528      1.16509882834199
  H   2.52747136261499     -0.24387127352708      0.48996544008043
  H   1.60813870970917     -1.33292426203979     -0.55077027186686
