13
Coordinates from ORCA-job run
  C   -0.90624777151924      0.04035287389552     -0.17803347440860
  C   0.59240678525978      0.22840763886421     -0.47810038913783
  Cl  -1.43816860392462     -1.60370251628433     -0.67439066039148
  H   0.72099310582631      0.05665864501981     -1.55046293936098
  H   0.82186015351047      1.28103822855513     -0.28218532069551
  C   -1.17382215853428      0.20005534112448      1.25397961344610
  N   -1.34592049055910      0.34202376662674      2.40751594666830
  C   -1.69415474716407      1.01892212261436     -0.93178169356484
  N   -2.29208955196840      1.82347652234687     -1.54459779928816
  C   1.49868210268486     -0.67853007897133      0.34191958928696
  H   1.28257387845155     -1.73135674099068      0.15865813866527
  H   1.39599639224927     -0.48278488555958      1.41115065145222
  H   2.53889090568750     -0.49556091724116      0.06632833732852
