13
Coordinates from ORCA-job run
  C   -0.90463253504638      0.06638136554193     -0.18589617983228
  C   0.47943820711185     -0.60858638424932     -0.16919896372513
  Cl  -1.08531172693985      1.07810051221761     -1.66094694428464
  H   0.47587861060427     -1.30920267830281      0.67241295247026
  H   0.55224559562287     -1.19705182304560     -1.08805541366757
  C   -1.95681548226731     -0.95344097509394     -0.20354991670631
  N   -2.76316528830396     -1.80794746625312     -0.21608842299665
  C   -1.07772786016812      0.92622540533583      0.98834631100681
  N   -1.17232193048958      1.60050104445269      1.94588461966065
  C   1.63665364802501      0.37196096646228     -0.04473562600933
  H   2.57919418494902     -0.17856215245427     -0.04874400903878
  H   1.65524909609330      1.07639063169465     -0.87677605171877
  H   1.58231548080887      0.93623155369406      0.88834764484171
