13
Coordinates from ORCA-job run
  C   -0.89200984048935     -0.02501056366135     -0.24648347819643
  C   0.51679007334761     -0.60255979476846     -0.01724453713413
  Cl  -1.01954920801527      0.66306050506862     -1.90267423307863
  H   0.48952740662288     -1.12371977132630      0.94545011484503
  H   0.67726117590293     -1.35450765382593     -0.79491126897197
  C   -1.89458286765428     -1.08600708829050     -0.11765175800916
  N   -2.66948902101241     -1.96127444107079      0.00029787191737
  C   -1.18159517968075      1.03868116240398      0.71926690707098
  N   -1.36437749534637      1.88251639783694      1.51618952185636
  C   1.61781692782147      0.44815520043504     -0.02613473557541
  H   1.65862107077957      0.97640996941918     -0.97910397216111
  H   1.47691887340171      1.17970652400667      0.77196717423369
  H   2.58266808432226     -0.03745044622710      0.13103239320342
