13
Coordinates from ORCA-job run
  C   -0.92667762066140     -0.03735540462777     -0.42735226766046
  C   0.57023631075724     -0.31139573251586     -0.64776277363090
  Cl  -1.83409816153552     -0.46461724730532     -1.91637181475866
  H   0.87571440712024      0.27535773725263     -1.51853915362337
  H   0.66398325299498     -1.36866827804523     -0.91108322155398
  C   -1.44131635689062     -0.85065552864597      0.67838714008807
  N   -1.80610329649328     -1.52210158278080      1.57087152550847
  C   -1.15305292535352      1.38107072956122     -0.13568398474397
  N   -1.28218573280135      2.52532371120162      0.09834513040492
  C   1.41436027744359      0.03042322966773      0.57392294967294
  H   2.46427628873519     -0.17877110521702      0.36076438029758
  H   1.33126609821890      1.08724110663800      0.83562318994625
  H   1.12459745846555     -0.56685163518322      1.44087890005314
