14

C	-0.417331	0.073926	-1.45252
C	0.0	0.0	0.0
F	-1.793173	0.307797	-1.60257
H	1.100983	0.0	0.0
H	0.104963	0.909591	-1.935282
C	-0.090214	-1.15681	-2.200662
N	0.157402	-2.118603	-2.826143
N	-0.478769	-1.207226	0.627461
H	-1.324961	-1.0003	1.147083
H	0.238951	-1.549568	1.253192
N	-0.472989	1.211965	0.703731
H	0.255813	1.405597	1.388957
H	-0.43795	2.004838	0.062379
H	2.850995	0.0	0.0
