14

C	-0.404398	0.056728	-1.468121
C	0.0	0.0	0.0
F	-1.719114	0.523693	-1.637246
H	1.1043	0.0	0.0
H	0.256156	0.763568	-1.980385
C	-0.324381	-1.250222	-2.135081
N	-0.278764	-2.287305	-2.681323
N	-0.608135	-1.17162	0.641083
H	-0.567078	-0.968764	1.635408
H	0.023592	-1.954761	0.489353
N	-0.409669	1.19929	0.704246
H	-1.26396	1.57657	0.315939
H	0.336561	1.882302	0.632416
H	2.88932	0.0	0.0
