14

C	-0.526293	-0.09806	-1.422469
C	0.0	0.0	0.0
F	-0.156884	-1.29883	-2.015338
H	1.094446	0.0	0.0
H	-1.62421	-0.086114	-1.390883
C	-0.080839	1.019487	-2.275166
N	0.139935	1.950049	-2.95591
N	-0.580454	-1.133171	0.729776
H	-0.415822	-0.92082	1.708501
H	-0.008736	-1.944315	0.511304
N	-0.417826	1.236845	0.628554
H	0.300395	1.934106	0.475629
H	-1.306765	1.579188	0.282844
H	2.921918	0.0	0.0
