14

C	-0.535549	-0.004874	-1.422192
C	0.0	0.0	0.0
F	-0.161093	-1.158893	-2.100039
H	1.101227	0.0	0.0
H	-1.632777	-0.006986	-1.380761
C	-0.102505	1.169313	-2.200151
N	0.162742	2.120858	-2.834171
N	-0.57342	-1.182318	0.655879
H	-0.347056	-1.059501	1.637857
H	-0.024932	-1.979228	0.341221
N	-0.415912	1.18823	0.714704
H	0.293463	1.90068	0.600745
H	-1.316684	1.542006	0.413835
H	2.920424	0.0	0.0
