14

C	-0.463695	-0.144405	-1.427856
C	0.0	0.0	0.0
F	-1.869851	-0.160278	-1.49885
H	1.103248	0.0	0.0
H	-0.118735	0.711873	-2.009496
C	-0.006248	-1.397531	-2.054935
N	0.298833	-2.405516	-2.572927
N	-0.437238	-1.112374	0.84285
H	0.373895	-1.691581	1.032445
H	-1.133694	-1.683915	0.3824
N	-0.438885	1.30927	0.474779
H	-1.256861	1.169656	1.056168
H	0.303799	1.65534	1.075023
H	2.845673	0.0	0.0
