14

C	-0.474099	0.038411	-1.435787
C	0.0	0.0	0.0
F	-1.841147	0.313463	-1.524109
H	1.101874	0.0	0.0
H	0.060783	0.84522	-1.942101
C	-0.245428	-1.229081	-2.149279
N	-0.096612	-2.243574	-2.720019
N	-0.545544	-1.18508	0.693693
H	-0.11692	-1.16012	1.617296
H	-0.140243	-2.00826	0.251924
N	-0.426427	1.232166	0.627135
H	0.233505	1.456835	1.36436
H	-1.351693	1.099229	1.023387
H	2.910227	0.0	0.0
