14

C	-0.594916	-0.013777	-1.398836
C	0.0	0.0	0.0
F	-0.092102	-1.057147	-2.149051
H	1.099186	0.0	0.0
H	-1.678298	-0.157862	-1.311655
C	-0.364964	1.244413	-2.136272
N	-0.236993	2.250292	-2.727716
N	-0.445026	-1.201147	0.680587
H	-1.211116	-0.969823	1.30307
H	0.334326	-1.559949	1.219925
N	-0.515998	1.20395	0.686894
H	-0.098279	2.016005	0.235406
H	-0.072097	1.180735	1.602271
H	2.907086	0.0	0.0
