14

C	-0.458745	0.041853	-1.436645
C	0.0	0.0	0.0
F	-1.865495	0.065469	-1.510211
H	1.095398	0.0	0.0
H	-0.091996	0.954213	-1.909923
C	-0.02536	-1.135131	-2.209905
N	0.285948	-2.064402	-2.85535
N	-0.436415	-1.210833	0.693116
H	0.361021	-1.834177	0.764555
H	-1.177125	-1.686684	0.193701
N	-0.43628	1.239643	0.633769
H	-1.298278	1.048677	1.131528
H	0.270285	1.461479	1.328523
H	2.851504	0.0	0.0
