14

C	-0.419421	0.087337	-1.45056
C	0.0	0.0	0.0
F	-1.769404	0.480536	-1.580144
H	1.095383	0.0	0.0
H	0.179864	0.856534	-1.948888
C	-0.273061	-1.181288	-2.176205
N	-0.177505	-2.164667	-2.80843
N	-0.499252	-1.220549	0.618141
H	0.261586	-1.59188	1.179168
H	-1.244281	-0.962432	1.254392
N	-0.38907	1.217791	0.713464
H	0.441031	1.792802	0.819808
H	-1.091721	1.737984	0.204131
H	2.838523	0.0	0.0
