15
Coordinates from ORCA-job run
  C   -0.63150081174221     -0.23123219528495      0.32681630421954
  C   0.90483799440952     -0.08508397454598      0.33784647783590
  Br  -1.07417176123276     -0.80002797745477      2.21126769718711
  H   1.37089336908441     -1.00995076676006      0.68090365331667
  N   -1.26119533615761      1.03572943203411      0.15133406631281
  H   -2.25210811411177      0.99278938145970      0.34878501175127
  H   -1.09532159527604      1.37808605921292     -0.78863737006928
  N   -0.97148714807570     -1.20933648274066     -0.64203102144505
  H   -0.56409844739664     -2.11884734092802     -0.45636635984259
  H   -1.97497542972353     -1.30092895823305     -0.73640073442191
  C   1.35795331012707      1.04676722238109      1.13198411996317
  N   1.78433147088255      1.93674175878770      1.76774578771278
  N   1.36701548381511      0.08674252519827     -1.09615581262692
  O   1.97707880138526     -0.85695137375227     -1.58283819529985
  O   1.06374821401232      1.13450269062599     -1.65425362459365
