15
Coordinates from ORCA-job run
  C   -0.65067640754312     -0.22805938793564      0.12763276427244
  C   0.86238236841803     -0.09113737927752      0.36250988090000
  Br  -1.27410042563155     -0.83239114443291      2.10179297890552
  H   1.25714421001701     -1.01232786302257      0.79063633442907
  N   -1.24239349551707      0.97874122663977     -0.22441453446182
  H   -1.08667881692101      1.71512737288017      0.45073234326378
  H   -2.22790226548556      0.89730042370480     -0.43535025139695
  N   -0.91525192217914     -1.24706181577790     -0.78978033663251
  H   -0.53056814396676     -2.13768433633480     -0.50549642585072
  H   -1.90195230569786     -1.34911461522930     -0.98866890175928
  C   1.18545404783721      1.05531084554664      1.19748032315977
  N   1.43075025153362      1.99602696907439      1.85638013609555
  N   1.54174883461441      0.05959240077674     -0.98994538075762
  O   1.99358298297799     -0.97827180081778     -1.46102049985292
  O   1.55846108754380      1.17394910420592     -1.49248843031433
