15
Coordinates from ORCA-job run
  C   -0.68210080519934     -0.29549144352459      0.27605537021689
  C   0.86345042433931     -0.08348302915296      0.32349710402143
  Br  -1.09651132761106     -0.82736498017255      2.20296512545016
  H   1.34334922703081     -1.02194115073767      0.60346692250911
  N   -1.29190342282836      0.87989674020543     -0.16944181891349
  H   -2.29504887881325      0.76872675714408     -0.23374785075371
  H   -1.04173583396728      1.71028329296603      0.35114395606876
  N   -1.15876798420830     -1.37978771802338     -0.51275488799635
  H   -0.81674820950709     -2.27269618507539     -0.18479142463529
  H   -0.90719565680819     -1.24407175250256     -1.48530339489695
  C   1.26024054769111      1.00182782833768      1.20783196500612
  N   1.55655598689375      1.88832435446275      1.91960910272131
  N   1.32537585775162      0.22788735887609     -1.08582850793540
  O   1.41723311976105     -0.74823450605475     -1.82648261798273
  O   1.52280695547522      1.39712443325181     -1.38721904287985
