15
Coordinates from ORCA-job run
  C   -0.66712629454069      0.05530086347189     -0.17199037301326
  C   0.80976598083759      0.22303350817790      0.25529469872373
  Br  -0.99082130956702      0.94543413072870     -1.88130668251270
  H   0.89554234659604     -0.14937606711128      1.28115125953276
  N   -0.91218446470604     -1.34378608920427     -0.37307522200267
  H   -0.66792546528212     -1.88965205088977      0.44649047079857
  H   -1.87584258265312     -1.51198028918545     -0.63248144356301
  N   -1.42466025014654      0.79290254498313      0.82218660859396
  H   -2.33407827136365      1.06098465688024      0.46805574717287
  H   -1.55033626856456      0.21448470593864      1.64717055791645
  C   1.26809674573747      1.60140551324286      0.19610183610631
  N   1.68051363746237      2.70031879165215      0.18090621494179
  N   1.71247094716581     -0.67401677516960     -0.55382861869896
  O   2.09286460952457     -0.26260602168363     -1.64087680312792
  O   1.96372063949988     -1.76144742183150     -0.04279825086792
