15
Coordinates from ORCA-job run
  C   -0.66628133461085      0.04923243496557     -0.17198977794967
  C   0.80889583811539      0.22984196899955      0.25553621859174
  Br  -0.99835831420843      0.93594306539919     -1.88116265733286
  H   0.89757076970842     -0.14305351384149      1.28092200983429
  N   -0.89926024922683     -1.35211664617119     -0.37224095888624
  H   -0.65396131868808     -1.89425191956941      0.44964917532882
  H   -1.86100758577799     -1.52852981371637     -0.63345038560329
  N   -1.43090000310882      0.78022743794351      0.82251595113193
  H   -2.34250182259983      1.03958984968344      0.46698502899838
  H   -1.55353883518548      0.19896199087250      1.64595711907565
  C   1.25393047811074      1.61256891709289      0.19818795123264
  N   1.65327834682824      2.71635945635089      0.18604012615154
  N   1.71901114960983     -0.65786870872659     -0.55592268248021
  O   2.09183281896783     -0.24205159140032     -1.64385182625570
  O   1.98229006206586     -1.74285292788219     -0.04617529183701
