15
Coordinates from ORCA-job run
  C   -0.68915945422688      0.04266778689942     -0.10163156548588
  C   0.79266545820293      0.20286861148400      0.29962085132373
  Br  -1.02365016585193      0.98878378935286     -1.83636959107276
  H   0.85207036020552     -0.08815026966017      1.35107344792951
  N   -1.01176072214990     -1.33881561229907     -0.12832488402566
  H   -0.50943830328452     -1.83032045483683     -0.85844442051866
  H   -2.00657409432376     -1.46103324799732     -0.27621318584581
  N   -1.43122990093643      0.76037977700979      0.90497235384090
  H   -2.20167202263068      1.28543678187436      0.51988930772346
  H   -1.75380764124486      0.11496583065258      1.61635180436621
  C   1.29058394782917      1.56338223301317      0.15450563722743
  N   1.73298438527573      2.64754738321466      0.06741117369451
  N   1.74746819547916     -0.73887858921912     -0.40455551125131
  O   1.50571762640116     -1.04001308073151     -1.56879881491819
  O   2.70580233125529     -1.10982093875682      0.26251339701252
