15
Coordinates from ORCA-job run
  C   -0.61387975250089     -0.28238905487544      0.40117580556005
  C   0.91109470804158     -0.06968530719663      0.34865659044965
  Br  -0.96499450978297     -0.87367416178790      2.24227937389108
  H   1.40290077330013     -0.97129432027623      0.71346765397485
  N   -1.30416601649745      0.96043562156718      0.22331206841656
  H   -1.10972355161780      1.32786039353179     -0.70132246142859
  H   -2.30195450868970      0.83883877339430      0.34442519493332
  N   -0.90693323427564     -1.41580813015531     -0.46054302235242
  H   -1.74315006872330     -1.89375451758658     -0.14989090009548
  H   -1.05962769369586     -1.07591051497528     -1.40450081344010
  C   1.36867159317484      1.10654255088686      1.07921916485999
  N   1.78022542418930      2.03849803312123      1.66305028871214
  N   1.39176749908556      0.06557223624423     -1.08675186898394
  O   0.63202270563234      0.59469941385030     -1.89577190134301
  O   2.51774663235985     -0.34993101574251     -1.31680517315407
