16

C	-0.258511	0.020329	-1.481008
C	0.0	0.0	0.0
Cl	-2.018903	0.288411	-1.964002
H	1.098626	0.0	0.0
H	0.280746	0.861362	-1.921752
C	0.16877	-1.205279	-2.154453
N	0.479495	-2.189879	-2.713898
C	-0.555393	-1.224623	0.699645
H	-0.248147	-1.20711	1.749269
H	-0.151555	-2.141546	0.262404
H	-1.651932	-1.272696	0.663543
C	-0.430678	1.301348	0.654965
H	-1.519602	1.43042	0.689992
H	-0.042452	1.324727	1.677201
H	0.006318	2.155795	0.128602
F	2.614063	0.0	0.0
