16

C	-0.531773	-0.001306	-1.424873
C	0.0	0.0	0.0
Cl	0.136292	-1.35533	-2.412394
H	1.096173	0.0	0.0
H	-1.619348	-0.15551	-1.439738
C	-0.266731	1.248196	-2.143357
N	-0.087579	2.254005	-2.722528
C	-0.486614	-1.235033	0.742273
H	-0.032258	-1.246925	1.736036
H	-1.580969	-1.257387	0.860869
H	-0.17144	-2.149202	0.236222
C	-0.45454	1.272118	0.707179
H	-1.548592	1.397102	0.72157
H	-0.104188	1.234984	1.742469
H	-0.004477	2.155607	0.249354
F	2.644148	0.0	0.0
