16

C	-0.380314	-0.035262	-1.472038
C	0.0	0.0	0.0
Cl	0.130784	1.444154	-2.363947
H	1.096371	0.0	0.0
H	0.170511	-0.853225	-1.942656
C	-1.816042	-0.221137	-1.705608
N	-2.970698	-0.397426	-1.839487
C	-0.418454	-1.321858	0.636581
H	0.013777	-2.165952	0.089222
H	-0.006846	-1.361827	1.648853
H	-1.506835	-1.459173	0.696042
C	-0.577507	1.18881	0.74334
H	-0.228102	2.128987	0.312301
H	-0.228701	1.159562	1.779544
H	-1.676879	1.192887	0.752325
F	2.647536	0.0	0.0
