16

C	-0.27214	0.018294	-1.477573
C	0.0	0.0	0.0
Cl	-2.050604	0.200944	-1.937781
H	1.098683	0.0	0.0
H	0.216009	0.889059	-1.918699
C	0.212672	-1.179003	-2.161252
N	0.580998	-2.141863	-2.723606
C	-0.524103	-1.238166	0.701098
H	-0.18129	-1.229565	1.739681
H	-0.125339	-2.145672	0.24014
H	-1.620251	-1.296368	0.700178
C	-0.449403	1.289234	0.665666
H	-0.047514	1.317789	1.68222
H	-0.042143	2.156086	0.136178
H	-1.540249	1.391674	0.717125
F	2.613784	0.0	0.0
