14
Coordinates from ORCA-job run
  C   -0.71620058925751      0.29834910346082     -0.20980483924385
  C   0.58054597645911     -0.52986990018460     -0.25434551295008
  Br  -1.37851121912884      0.60816202864990     -1.99612690012353
  H   0.38366686448763     -1.45713145899948     -0.79385541216370
  C   -0.58171100908702      1.55557732989179      0.49949751345491
  N   -0.48587125034496      2.58811654824970      1.05574524347231
  N   -1.75181513880526     -0.59992233696988      0.52817195315601
  O   -2.37254642145387     -0.08619226540256      1.44277007552419
  O   -1.83217356599419     -1.74281268101238      0.10665966678416
  C   1.05647191286651     -0.78876221651839      1.09730813633030
  N   1.41658313490196     -1.02365513192016      2.19133380554211
  N   1.64522452171507      0.21628172093326     -1.03500222131678
  O   1.93957301061320     -0.26306596844346     -2.12256222974828
  O   2.09776377302817      1.22492522826545     -0.50878927871776
