14
Coordinates from ORCA-job run
  C   -0.70473204156128      0.18308881973470     -0.28496951161339
  C   0.79020102681119      0.00334397643892      0.03630781070274
  Br  -1.32551749143649     -1.14895692610696     -1.51299256700513
  H   1.03283309265859      0.66662147138543      0.87408386775624
  C   -0.92005644111179      1.51423269600387     -0.83044695364631
  N   -1.07930753979964      2.59759530010540     -1.26157980597994
  N   -1.50545973107319      0.15152880295232      1.06595109083104
  O   -1.04328853517582      0.91178372936873      1.90255110823253
  O   -2.48955801572950     -0.55084995533158      1.13951027726434
  C   1.61891269844516      0.29651848355611     -1.12076256549435
  N   2.27637631036020      0.57254178921037     -2.05485292798076
  N   1.05460087376658     -1.40680660732991      0.54602245662530
  O   0.24898729347424     -1.80999066519305      1.37452979842175
  O   2.04600850037175     -1.98265091479435      0.12664792188593
