17

C	0.0	0.0	0.0
C	-0.26957	0.039227	-1.573645
Br	1.971814	0.0	0.0
H	0.592816	-0.492575	-1.986523
C	-0.521907	1.144647	0.724473
N	-0.560517	2.173992	1.311934
C	-0.443057	-1.258991	0.585905
N	-0.545598	-2.344341	1.04194
C	-0.214261	1.482682	-2.059705
H	-0.255021	1.503452	-3.154457
H	0.702686	1.981577	-1.738292
H	-1.067849	2.04034	-1.66752
C	-1.491224	-0.676916	-2.149872
H	-1.663003	-1.639518	-1.663796
H	-2.401954	-0.087822	-2.056869
H	-1.293097	-0.858441	-3.219179
H	-1.948314	0.0	0.0
