17

C	0.0	0.0	0.0
C	-0.288552	-0.031846	-1.570797
Br	1.971415	0.0	0.0
H	0.616589	0.404217	-2.00344
C	-0.450744	1.246588	0.605828
N	-0.531366	2.3251	1.08403
C	-0.506762	-1.150186	0.729184
N	-0.559942	-2.165321	1.337866
C	-1.437362	0.805565	-2.135807
H	-1.229079	0.971025	-3.204406
H	-1.501102	1.78004	-1.648107
H	-2.401595	0.312329	-2.030211
C	-0.383313	-1.478237	-2.037648
H	0.471896	-2.066148	-1.695636
H	-0.412944	-1.514143	-3.131332
H	-1.296999	-1.932607	-1.645041
H	-1.945651	0.0	0.0
