18

C	-0.24677	-0.105427	-1.515665
C	0.0	0.0	0.0
Cl	-1.95844	-0.615435	-1.901624
H	1.092881	0.0	0.0
C	-0.10823	1.235621	-2.093422
N	0.022643	2.302399	-2.570741
C	0.760332	-1.01838	-2.212007
H	0.743061	-0.850007	-3.290643
H	0.532986	-2.056556	-1.990042
H	1.729476	-0.761344	-1.764004
N	-0.458335	-1.238713	0.671556
O	-1.170782	-1.137196	1.674867
O	-0.08486	-2.318639	0.214985
C	-0.578452	1.227194	0.660826
H	-0.07271	2.106985	0.260941
H	-1.657655	1.32272	0.508577
H	-0.384339	1.188495	1.731847
F	2.578943	0.0	0.0
