18

C	-0.441029	-0.19172	-1.461287
C	0.0	0.0	0.0
Cl	-0.019452	1.322505	-2.369402
H	1.090469	0.0	0.0
C	0.316203	-1.250183	-2.141485
N	0.818733	-2.05116	-2.838572
C	-1.937659	-0.418329	-1.658968
H	-2.491065	0.412482	-1.21736
H	-2.173528	-0.470694	-2.723514
H	-2.230949	-1.354352	-1.1833
N	-0.406797	-1.181135	0.779215
O	-0.586549	-1.053852	1.993763
O	-0.48562	-2.271142	0.19667
C	-0.468528	1.264951	0.686785
H	-1.557958	1.337845	0.78643
H	-0.030552	1.28222	1.683162
H	-0.091737	2.129034	0.143846
F	2.494022	0.0	0.0
