18

C	-0.264516	-0.088394	-1.513304
C	0.0	0.0	0.0
Cl	-1.970497	-0.630798	-1.88456
H	1.092913	0.0	0.0
C	-0.170139	1.26245	-2.075098
N	-0.090639	2.322975	-2.575913
C	0.754451	-0.967678	-2.237803
H	0.720278	-0.781566	-3.312315
H	1.724466	-0.700761	-1.797514
H	0.549625	-2.014196	-2.029691
N	-0.436857	-1.249899	0.66665
O	-0.127016	-2.324025	0.151704
O	-1.063582	-1.16261	1.727102
C	-0.579005	1.212992	0.686397
H	-1.666102	1.278098	0.582633
H	-0.335715	1.179879	1.747046
H	-0.118046	2.106699	0.265493
F	2.576003	0.0	0.0
