18

C	-0.299438	0.098142	-1.498481
C	0.0	0.0	0.0
Cl	0.139267	-1.454664	-2.305983
H	1.091494	0.0	0.0
C	-1.693072	0.398808	-1.829873
N	-2.786053	0.749374	-2.084167
C	0.652149	1.159786	-2.064142
H	0.328993	2.156961	-1.755988
H	1.639306	0.934245	-1.636886
H	0.659852	1.115979	-3.154493
N	-0.600386	-1.19783	0.631492
O	-0.088151	-1.586966	1.679727
O	-1.606826	-1.697907	0.121007
C	-0.480567	1.2076	0.790775
H	0.067248	2.093369	0.470012
H	-0.234295	1.040943	1.840969
H	-1.55787	1.381099	0.692045
F	2.60415	0.0	0.0
