18

C	-0.305184	-0.057479	-1.497497
C	0.0	0.0	0.0
Cl	0.201214	-1.654825	-2.165627
H	1.093366	0.0	0.0
C	-1.713022	0.149111	-1.844142
N	-2.822556	0.415816	-2.127603
C	0.595941	0.987998	-2.166534
H	1.593475	0.838821	-1.733217
H	0.599295	0.844229	-3.248055
H	0.233475	1.994992	-1.948334
N	-0.594889	-1.123075	0.758679
O	-1.521213	-1.76578	0.255269
O	-0.155157	-1.316204	1.892053
C	-0.465003	1.291196	0.659288
H	0.127539	2.122976	0.278978
H	-0.259826	1.213766	1.728158
H	-1.532003	1.491969	0.506661
F	2.591013	0.0	0.0
