18

C	-0.304546	0.021573	-1.498498
C	0.0	0.0	0.0
Cl	0.209674	-1.532061	-2.256355
H	1.093013	0.0	0.0
C	-1.713492	0.242336	-1.830765
N	-2.822938	0.528922	-2.094868
C	0.589498	1.108238	-2.108267
H	0.591961	1.02533	-3.195912
H	0.222327	2.099697	-1.833159
H	1.588751	0.941498	-1.686518
N	-0.591621	-1.162768	0.699734
O	-0.163137	-1.400297	1.828736
O	-1.497359	-1.801429	0.153812
C	-0.459907	1.258173	0.723659
H	-1.515299	1.495446	0.550317
H	0.164595	2.095107	0.413828
H	-0.291601	1.113033	1.79151
F	2.588534	0.0	0.0
