18

C	-0.242584	-0.17241	-1.507471
C	0.0	0.0	0.0
Cl	-1.969093	-0.652798	-1.875218
H	1.107628	0.0	0.0
C	-0.063709	1.133693	-2.148352
N	0.086715	2.155281	-2.708694
C	0.732121	-1.149135	-2.15831
H	0.466378	-2.168293	-1.893456
H	1.708043	-0.906331	-1.722387
H	0.72377	-1.028218	-3.24335
N	-0.468185	-1.202455	0.723799
O	-0.084452	-2.304345	0.332178
O	-1.208385	-1.052087	1.70129
C	-0.579495	1.256713	0.5993
H	-0.364987	1.280201	1.665136
H	-1.661334	1.329248	0.464834
H	-0.094348	2.119598	0.141495
F	2.571059	0.0	0.0
