18

C	-0.271331	-0.227123	-1.494753
C	0.0	0.0	0.0
Cl	-1.984573	-0.791038	-1.808486
H	1.110052	0.0	0.0
C	-0.17315	1.065401	-2.181946
N	-0.08562	2.073906	-2.779112
C	0.7357	-1.176455	-2.143951
H	0.692934	-1.090775	-3.231848
H	1.711308	-0.874749	-1.741119
H	0.529507	-2.198161	-1.838895
N	-0.425688	-1.179363	0.786444
O	-1.006232	-0.99093	1.859793
O	-0.142175	-2.29992	0.360598
C	-0.57409	1.271967	0.576256
H	-0.314557	1.339194	1.631413
H	-1.663557	1.323978	0.483837
H	-0.123645	2.123712	0.066214
F	2.566808	0.0	0.0
