14

C	-0.501341	-0.050604	-1.440265
C	0.0	0.0	0.0
Br	0.122057	1.496121	-2.484935
H	1.095466	0.0	0.0
H	-1.591967	0.017458	-1.489637
C	-0.097949	-1.268981	-2.135715
N	0.14341	-2.259573	-2.720373
C	-0.394631	-1.266013	0.767416
H	-0.029919	-1.173762	1.79207
H	0.106797	-2.127409	0.318531
H	-1.476647	-1.439429	0.786668
C	-0.531285	1.182143	0.654832
N	-0.947256	2.122551	1.227201
H	2.662142	0.0	0.0
