14

C	-0.49914	-0.030727	-1.441209
C	0.0	0.0	0.0
Br	0.110093	1.534078	-2.461277
H	1.095469	0.0	0.0
H	-1.59029	0.026705	-1.490568
C	-0.086633	-1.237693	-2.153245
N	0.15379	-2.223484	-2.746322
C	-0.395201	-1.275672	0.747902
H	-0.03754	-1.196774	1.776947
H	0.113409	-2.127871	0.291333
H	-1.476116	-1.45373	0.75891
C	-0.521409	1.175265	0.674264
N	-0.932572	2.107063	1.263821
H	2.662764	0.0	0.0
