14

C	-0.424655	0.02145	-1.467978
C	0.0	0.0	0.0
Br	0.233651	-1.553305	-2.440655
H	1.095589	0.0	0.0
H	0.055369	0.870777	-1.960473
C	-1.870362	0.075653	-1.657189
N	-3.039214	0.12186	-1.777567
C	-0.500509	-1.197768	0.7956
H	-0.143823	-1.104824	1.823552
H	-0.06936	-2.109553	0.378844
H	-1.591698	-1.279608	0.803308
C	-0.443974	1.253121	0.591691
N	-0.78768	2.269891	1.074907
H	2.671455	0.0	0.0
