14

C	-0.302713	-0.07698	-1.477735
C	0.0	0.0	0.0
Br	-2.178092	-0.578157	-1.927147
H	1.098123	0.0	0.0
H	0.306765	-0.882246	-1.899522
C	-0.014227	1.160187	-2.191483
N	0.184828	2.16096	-2.773392
C	-0.364727	-1.270273	0.759441
H	0.109527	-2.123289	0.265093
H	-1.442448	-1.436935	0.821658
H	0.053223	-1.204532	1.766504
C	-0.545457	1.186566	0.624301
N	-0.986307	2.134248	1.165505
H	2.610256	0.0	0.0
