14

C	-0.303791	-0.072622	-1.47813
C	0.0	0.0	0.0
Br	-2.178248	-0.573543	-1.92838
H	1.098173	0.0	0.0
H	0.30637	-0.876311	-1.901776
C	-0.016099	1.166274	-2.188168
N	0.191504	2.167232	-2.767591
C	-0.364436	-1.272361	0.755518
H	0.107581	-2.124007	0.257027
H	0.056738	-1.210763	1.761691
H	-1.442226	-1.437986	0.820066
C	-0.544137	1.185048	0.628292
N	-0.983377	2.131667	1.172557
H	2.610328	0.0	0.0
