16
Coordinates from ORCA-job run
  C   -0.65569639453053     -0.02106544357441      0.14229653237062
  C   0.64796815412121      0.00069990049862     -0.17523206852878
  N   -1.14052682041754     -1.20504115319534      0.87428174614441
  O   -1.80402292239395     -0.98666664071912      1.88636382335511
  O   -0.87285747591780     -2.31487301528981      0.41550047044023
  C   -1.71492262317987      1.00216121929701     -0.08979141969178
  H   -2.47968282964686      0.59318834534551     -0.75633145347191
  H   -1.31470070280639      1.90328003331482     -0.54662033263431
  H   -2.18925288905870      1.24760075706989      0.86102736382207
  N   1.12741032446143      1.18439165980514     -0.91251371426165
  O   0.55434727567371      1.47907311711105     -1.96030745448521
  O   2.08820118930305      1.77700800223501     -0.42534756976676
  C   1.72794149288275     -0.98265695680246      0.12495711041641
  H   2.03528167503973     -1.48300606064001     -0.79801702464328
  H   1.40103142945269     -1.74439559464217      0.82775292510322
  H   2.58848111701706     -0.45069816981375      0.53198106583160
