16
Coordinates from ORCA-job run
  C   0.65081319776589      0.03608580648466     -0.16279876538813
  C   -0.65090672119623     -0.03602986871853      0.16169488578098
  N   1.11947669929115      1.29845587190825     -0.75547330476868
  O   0.48434496259246      1.78015472072575     -1.69247773376141
  O   2.14525742793180      1.76576178938339     -0.26340868114284
  C   1.74255282144483     -0.96299847869573      0.03197102236265
  H   2.42057091295995     -0.93152699488791     -0.82314989982447
  H   1.34778203412369     -1.97037135805065      0.14159626874696
  H   2.31730846106291     -0.71940816145220      0.92738018415395
  N   -1.11935452012298     -1.29825271591586      0.75481237927256
  O   -2.14738800804419     -1.76386279149678      0.26576119691022
  O   -0.48175021296223     -1.78160562490241      1.68927612229232
  C   -1.74252814089858      0.96326868472021     -0.03184043803020
  H   -2.41359825536443      0.93924602369339      0.82907666742164
  H   -1.34745872349530      1.96910022389356     -0.15308208906275
  H   -2.32512193508873      0.71298287331086     -0.92033781496283
