16
Coordinates from ORCA-job run
  C   0.65545947880274      0.03785282639061     -0.13923960889882
  C   -0.64699621213198     -0.02556705245215      0.17723530007087
  N   1.14713517479878      1.32325190021842     -0.66810851310621
  O   1.76746037755901      1.27369365038199     -1.72863806966071
  O   0.92759927114041      2.33841306519290     -0.00892034127809
  C   1.71030175830948     -1.01422032457061     -0.07975069380691
  H   1.30144054278650     -1.98376121425546      0.19164710385952
  H   2.45993158429585     -0.73968923946149      0.66808835995850
  H   2.20410899103364     -1.07892623999308     -1.04999403579392
  N   -1.13808189006067     -1.31009251427948      0.70875049560919
  O   -2.12597439983408     -1.78707119898961      0.15335560316765
  O   -0.54925265496613     -1.79616595604587      1.67331277396797
  C   -1.71896099627248      1.00175212269358      0.04160650086683
  H   -2.55556284014255      0.57270155940119     -0.51109293511809
  H   -1.36275830884051      1.89569718115530     -0.46319934701435
  H   -2.07684987647801      1.29113143461374      1.03394740717657
