16
Coordinates from ORCA-job run
  C   0.58063994277017     -0.01533591818566     -0.34610510498588
  C   -0.65055778451561     -0.02332801211164      0.18209121557681
  N   0.74099198970934     -0.27330935045878     -1.78885880203496
  O   1.55517510597105     -1.14283334492643     -2.08872078263760
  O   0.09585505789750      0.42210098926402     -2.56847308739664
  C   1.88128644136166      0.21935564791944      0.34348336757317
  H   2.48857886131205     -0.68661667753851      0.29681037712988
  H   2.43217715163681      1.01446443240452     -0.16611962367018
  H   1.74321160020456      0.50526265964775      1.38400894787498
  N   -1.80040274033587     -0.32439156846698     -0.69031146704137
  O   -2.72584755814022      0.48247284551216     -0.65121261292347
  O   -1.76683744983056     -1.36504680733476     -1.34099166711004
  C   -1.05406018466113      0.24676818425647      1.59145927294936
  H   -1.66884061023910      1.14808196803373      1.62936171725656
  H   -0.19225328440229      0.37291059071144      2.24328958187966
  H   -1.65811653873836     -0.58255563872679      1.96928866755971
