16
Coordinates from ORCA-job run
  C   0.64783825060644      0.02652957984807     -0.17689951227849
  C   -0.64780519209662     -0.02637758421252      0.17451331165611
  N   1.12096054967640      1.27942835891968     -0.78559112252285
  O   2.16151140166888      1.73650475114920     -0.31540520964543
  O   0.47448739849505      1.76339711774096     -1.71361937453884
  C   1.72984004086948     -0.98603711183118      0.00261147283441
  H   1.32369111917757     -1.98805547140889      0.11986099573622
  H   2.39492657215779     -0.96461738574023     -0.86285587667595
  H   2.32098939148056     -0.74862234459721      0.88896604489688
  N   -1.12019481212972     -1.27861372798859      0.78519140178678
  O   -0.46859460768341     -1.76547527892388      1.70818326495205
  O   -2.16498767159461     -1.73297830397794      0.32172155658667
  C   -1.73021332958741      0.98580007440778     -0.00288404765768
  H   -2.38182110700077      0.97768246877890      0.87317211569688
  H   -1.32449681345440      1.98517399680858     -0.14113553486748
  H   -2.33613119058521      0.73626086102727     -0.87582948595928
