15

C	0.0	0.0	0.0
C	-0.162526	0.189675	-1.585467
F	1.387056	0.0	0.0
H	0.460081	1.086903	-1.729819
C	-0.546031	1.122815	0.757792
N	-0.561316	2.135637	1.37411
C	-0.478171	-1.279491	0.521785
N	-0.523454	-2.368657	0.979642
N	-1.428833	0.418716	-2.226717
H	-1.799011	-0.511533	-2.402837
H	-2.054593	0.749227	-1.483954
N	0.408964	-1.005941	-2.198358
H	1.331331	-1.181937	-1.827073
H	0.494091	-0.827482	-3.191467
H	-2.190406	0.0	0.0
