15

C	0.0	0.0	0.0
C	-0.381611	-0.154049	-1.512739
F	1.375864	0.0	0.0
H	-1.32384	-0.695325	-1.545436
C	-0.539996	1.209957	0.628271
N	-0.537179	2.253267	1.18908
C	-0.465593	-1.184388	0.751757
N	-0.491911	-2.196824	1.356679
N	0.635529	-0.958758	-2.160542
H	0.296269	-1.233908	-3.073539
H	1.469993	-0.396523	-2.28232
N	-0.47736	1.190463	-2.084959
H	-1.278615	1.635021	-1.63974
H	-0.714901	1.082168	-3.067076
H	-2.310225	0.0	0.0
