15

C	0.0	0.0	0.0
C	-0.242231	0.039531	-1.541792
F	1.391699	0.0	0.0
H	-1.321494	0.036035	-1.686267
C	-0.607317	1.171877	0.646014
N	-0.582732	2.217053	1.211265
C	-0.541397	-1.239498	0.583588
N	-0.587872	-2.315452	1.074438
N	0.316434	-1.180615	-2.115127
H	1.331043	-1.149635	-2.046861
H	0.069861	-1.220179	-3.102476
N	0.29375	1.307532	-2.02707
H	1.307271	1.297158	-1.954744
H	0.050444	1.410648	-3.009072
H	-2.238143	0.0	0.0
