15

C	0.0	0.0	0.0
C	-0.181265	-0.23373	-1.577812
F	1.387137	0.0	0.0
H	0.574898	-1.018835	-1.744501
C	-0.495883	1.273884	0.510772
N	-0.521368	2.364981	0.966848
C	-0.545484	-1.137052	0.743794
N	-0.569962	-2.177522	1.310643
N	0.149211	1.03279	-2.212163
H	1.074022	1.328521	-1.926382
H	0.149768	0.873058	-3.211818
N	-1.402155	-0.705805	-2.16196
H	-2.137031	-0.143049	-1.724194
H	-1.56962	-1.638633	-1.797904
H	-2.175723	0.0	0.0
