15

C	0.0	0.0	0.0
C	-0.185665	-0.001832	-1.584519
F	1.386793	0.0	0.0
H	0.645281	-0.659863	-1.874932
C	-0.493506	1.189905	0.687291
N	-0.515995	2.215298	1.275479
C	-0.486168	-1.234381	0.621834
N	-0.509221	-2.304008	1.122225
N	0.058749	1.381684	-2.023076
H	0.919211	1.711468	-1.591972
H	0.238893	1.351855	-3.022
N	-1.399856	-0.555305	-2.116249
H	-2.107997	-0.34487	-1.379436
H	-1.646112	-0.045363	-2.95793
H	-2.26381	0.0	0.0
