15

C	0.0	0.0	0.0
C	-0.508701	-0.060452	-1.457015
Br	1.958105	0.0	0.0
H	-1.597931	-0.092287	-1.268887
H	-0.348873	0.919216	0.471304
C	-0.406728	-1.146898	0.812153
N	-0.550841	-2.093183	1.496514
C	-0.061198	-1.29985	-2.206005
H	-0.315283	-2.205895	-1.649452
H	-0.582555	-1.322094	-3.165406
H	1.015354	-1.301724	-2.403951
N	-0.212592	1.145679	-2.215592
H	-0.777088	1.900447	-1.837349
H	0.764286	1.399994	-2.107021
H	-2.882528	0.0	0.0
