15

C	0.0	0.0	0.0
C	-0.418538	-0.048169	-1.502341
Br	1.957727	0.0	0.0
H	-1.509481	-0.066505	-1.403699
H	-0.355728	0.923535	0.454091
C	-0.45509	-1.149332	0.778306
N	-0.533412	-2.145647	1.404723
C	0.05825	-1.295102	-2.224077
H	1.141603	-1.305388	-2.374306
H	-0.419205	-1.320434	-3.206185
H	-0.223976	-2.195819	-1.672634
N	-0.04949	1.149832	-2.243127
H	-0.584956	1.928294	-1.871842
H	0.934628	1.3569	-2.104116
H	-2.65203	0.0	0.0
