18

C	-0.313291	-0.064458	-1.510616
C	0.0	0.0	0.0
Cl	-0.026467	1.549798	-2.288107
H	1.099886	0.0	0.0
C	0.651924	-1.060347	-2.149426
H	0.605204	-1.017839	-3.239817
H	1.645541	-0.797311	-1.76285
H	0.38945	-2.060576	-1.80203
C	-1.722949	-0.38723	-1.753453
N	-2.859385	-0.651444	-1.899134
N	-0.400153	-1.306425	0.539642
H	0.349155	-1.626004	1.141554
H	-1.250639	-1.232663	1.08499
C	-0.6225	1.164194	0.743129
H	-1.720583	1.145237	0.684937
H	-0.333819	1.092969	1.796061
H	-0.270981	2.124694	0.366033
F	2.69482	0.0	0.0
