18

C	-0.532214	0.062062	-1.438779
C	0.0	0.0	0.0
Cl	0.193912	-1.303084	-2.381409
H	1.101306	0.0	0.0
C	-2.046922	-0.071326	-1.542734
H	-2.330427	-0.977675	-1.008006
H	-2.363865	-0.131906	-2.585783
H	-2.527513	0.793895	-1.077959
C	-0.106258	1.298481	-2.099672
N	0.137408	2.315928	-2.635114
N	-0.465412	-1.269395	0.600107
H	0.352761	-1.871289	0.613639
H	-0.699467	-1.094974	1.571398
C	-0.482603	1.185831	0.819234
H	-1.553956	1.134671	1.057658
H	0.083277	1.192456	1.755165
H	-0.278392	2.134704	0.317761
F	2.646295	0.0	0.0
