14

C	-0.537393	-0.068055	-1.428778
C	0.0	0.0	0.0
Cl	-0.250151	-1.695032	-2.05453
H	1.091962	0.0	0.0
H	-0.303719	-0.911558	0.522575
N	-1.920047	0.272747	-1.67119
H	-2.086283	1.190727	-1.268585
H	-2.498614	-0.398079	-1.178763
N	0.251286	0.950307	-2.271619
O	0.001626	2.11217	-1.960511
O	1.020531	0.581016	-3.139025
C	-0.527859	1.13996	0.726236
N	-0.95318	2.05995	1.32322
H	2.686306	0.0	0.0
