14

C	-0.228424	-0.082974	-1.495123
C	0.0	0.0	0.0
Cl	-0.243654	1.615146	-2.226664
H	1.092404	0.0	0.0
H	-0.312225	-0.948582	0.443259
N	0.728761	-0.93939	-2.022469
H	0.75087	-0.936018	-3.031708
H	1.649283	-0.739022	-1.589398
N	-1.621788	-0.600809	-1.891501
O	-1.749539	-1.000866	-3.044206
O	-2.500315	-0.586278	-1.035988
C	-0.60557	1.106947	0.702887
N	-1.054279	1.998981	1.321566
H	2.715394	0.0	0.0
