18

C	-0.349581	0.035094	-1.463137
C	0.0	0.0	0.0
Cl	-2.121971	0.762691	-1.736124
H	1.089687	0.0	0.0
N	0.483137	1.127228	-2.171936
O	0.78832	2.126268	-1.547506
O	0.732328	0.92821	-3.35543
N	-0.146285	-1.125486	-2.172659
H	-0.241516	-0.989196	-3.167439
H	-0.689132	-1.884604	-1.792543
N	-0.445772	-1.242825	0.671767
O	-1.151506	-2.079597	0.091367
O	-0.099709	-1.375276	1.841438
C	-0.472879	1.156325	0.869468
H	0.137276	1.164044	1.771782
H	-1.528566	1.055498	1.138481
H	-0.326725	2.09714	0.349859
F	2.485048	0.0	0.0
