18

C	-0.622589	0.00185	-1.390726
C	0.0	0.0	0.0
Cl	0.203387	1.278603	-2.33982
H	1.087823	0.0	0.0
N	-0.281607	-1.309921	-2.129277
O	0.858545	-1.720052	-1.988099
O	-1.159438	-1.81791	-2.816812
N	-2.033007	0.210797	-1.523809
H	-2.272401	1.066222	-1.031653
H	-2.504964	-0.576063	-1.089891
N	-0.493858	-1.149926	0.767915
O	-1.165756	-2.021623	0.190267
O	-0.213504	-1.201475	1.965754
C	-0.312785	1.262338	0.792787
H	0.016653	2.13136	0.225407
H	0.275552	1.224379	1.707146
H	-1.373139	1.367108	1.053051
F	2.49339	0.0	0.0
