15
Coordinates from ORCA-job run
  C   -0.82833748457139     -0.29712185653607     -0.02254505082306
  C   0.55857490672281     -0.84902749215473     -0.36988983391101
  Cl  -2.05656128906605     -1.40962351496105     -0.73396141950048
  H   0.62407972857970     -0.88675368858101     -1.46185890661904
  H   0.60969183782438     -1.88061961672824     -0.01094908759408
  C   -1.02081589430914     -0.30295895334355      1.42970559215989
  N   -1.13068523186309     -0.27785716316814      2.59921769396436
  C   -1.07704121903968      1.10067858085693     -0.57700717690739
  H   -2.10355947496180      1.41076929659398     -0.37947802832814
  H   -0.91132499991575      1.09607766450361     -1.65627039950204
  H   -0.40062617573693      1.81907619309878     -0.11045347088769
  C   1.70650101459467     -0.03078061448640      0.21338404414022
  H   1.75169454662531      0.97328992757411     -0.21163429052185
  H   2.65578617080778     -0.52271460411133     -0.00856686918497
  H   1.62462356430918      0.05556584144310      1.29930720351529
