14
Coordinates from ORCA-job run
  C   -0.59412634109350     -0.12217398231365      0.43944522932419
  C   0.09711569949799      0.96591415215214     -0.37856849348085
  Br  -2.35518376247725      0.48951140464316      0.98141725679425
  H   -0.53157713628278      1.26604071938089     -1.21958356148355
  H   0.20948540424382      1.81972224404876      0.29409510867125
  N   0.13790390138141     -0.59988175808996      1.54810355102372
  H   1.12665424274224     -0.48676389588647      1.34999711550347
  H   -0.13123393900962     -0.16743848382656      2.41753345335464
  N   -0.86907468959928     -1.33144698534944     -0.50915198400362
  O   -0.84041992922525     -1.09627188943896     -1.71708263105669
  O   -1.10642625256849     -2.40922149484774      0.00685196647934
  N   1.41649400612792      0.46603479782195     -0.74528419481960
  H   2.07554707967744      1.22645820333378     -0.83796703735662
  H   1.36384171658535     -0.02048303162791     -1.63080577894994
