14
Coordinates from ORCA-job run
  C   -0.53211754959422     -0.07657468060239      0.41352146426064
  C   0.74106334322674      0.58396434740656     -0.11110154425854
  Br  -2.01833976738784      1.14986586821091      0.22361072109243
  H   1.55042631232269     -0.12458228022672      0.08514527821018
  H   0.91435800531564      1.47984070861115      0.50264545174539
  N   -0.50558572590659     -0.55055382769591      1.76515271175300
  H   -0.48576446785957      0.22466005946956      2.41426254936164
  H   0.30695702261160     -1.14194270610757      1.89900042138954
  N   -0.75148112837590     -1.31943344864662     -0.45640716476822
  O   0.12743992900389     -2.16184623181975     -0.28632605618732
  O   -1.69846159503118     -1.40107066143039     -1.21565524416552
  N   0.65513988850345      0.80154605537983     -1.54120820077226
  H   1.57651453616033      0.90380693899896     -1.94322913312236
  H   0.11885119701098      1.63331985845239     -1.74941125453861
