14
Coordinates from ORCA-job run
  C   -0.46340061987952     -0.09561825576782      0.30896946348181
  C   0.35528483148873      0.46169218551955     -0.84431461114528
  Br  -1.93502036314848      1.06707397318491      0.79247537270260
  H   1.07148448673935     -0.33748239501678     -1.11422842879687
  H   -0.30167682900503      0.61224988906932     -1.69976904325644
  N   0.34529581208484     -0.32553623634173      1.44298515325470
  H   1.04560657759538     -1.02855923844556      1.23163144534275
  H   -0.20042101659822     -0.64184479094639      2.23419040866903
  N   -1.14634090884866     -1.40129336903778     -0.20875022809977
  O   -1.67376066027103     -1.35972208724884     -1.31246860305839
  O   -1.09007414202752     -2.37788689202728      0.53179021628129
  N   0.95066960923632      1.72109802851068     -0.45396009042287
  H   1.58257635452299      1.58377918113126      0.32333877886482
  H   1.45977686811086      2.12205000741648     -1.22988983381740
