17
Coordinates from ORCA-job run
  C   0.76496573275168     -0.45137819679770     -0.11557353636112
  C   -0.67471389032082     -0.08110697301376      0.29274925973023
  Cl  0.79553071488131     -0.92975706285614     -1.85737478813120
  H   -0.61224711437669      0.10665570731489      1.37265421046326
  C   1.18815623443967     -1.61706977409608      0.66403827312662
  N   1.58745257338247     -2.49438793107223      1.33511360832539
  C   1.76368361423015      0.68304256823234      0.08058555961610
  H   1.53490196432797      1.51083625945954     -0.58994281447812
  H   2.77449578818677      0.33414980956343     -0.13248303067269
  H   1.72285337128277      1.03189292504100      1.11618993267080
  N   -1.51547279008155     -1.25626392349223      0.12259231405464
  H   -1.75788773464080     -1.37381845884176     -0.85442980616200
  H   -2.37477222279580     -1.14682639425312      0.64627428713989
  C   -1.18809871418222      1.18419420742870     -0.39218597249640
  H   -2.21920767281820      1.36042083160519     -0.07669260432363
  H   -1.18249009315422      1.06783657156970     -1.47837652971728
  H   -0.60714976111248      2.07157983420825     -0.13213836278448
