12

C	0.0	0.0	0.0
C	-0.30275	0.024403	-1.520246
Br	1.944025	0.0	0.0
H	0.470964	0.669388	-1.960873
H	-0.347837	0.886746	0.518505
H	-0.383089	-0.905655	0.454148
C	-1.532021	0.654038	-2.041066
N	-2.135554	1.221328	-2.88202
N	-0.207803	-1.346525	-2.043195
H	0.773795	-1.596907	-2.087824
H	-0.578375	-1.363453	-2.98552
Cl	-3.10811	0.0	0.0
