12

C	0.0	0.0	0.0
C	-0.482757	-0.114233	-1.468102
Br	1.934258	0.0	0.0
H	0.384644	-0.349825	-2.090606
H	-0.329821	-0.882665	0.541815
H	-0.345094	0.902259	0.497199
C	-0.947022	1.201352	-1.978461
N	-1.259703	2.191221	-2.529654
N	-1.416076	-1.215899	-1.606493
H	-2.276628	-0.972991	-1.097761
H	-1.66874	-1.304518	-2.584224
Cl	-3.813941	0.0	0.0
