12

C	0.0	0.0	0.0
C	-0.547732	0.158186	-1.404228
Br	1.942082	0.0	0.0
H	-1.640744	0.136251	-1.248686
H	-0.333651	0.847285	0.593402
H	-0.335066	-0.931846	0.449625
C	-0.170373	-0.980203	-2.263466
N	0.144132	-1.841343	-2.999204
N	-0.171793	1.447461	-1.97184
H	0.781713	1.414282	-2.313651
H	-0.782833	1.655648	-2.751544
Cl	-3.514887	0.0	0.0
