15
Coordinates from ORCA-job run
  C   1.16572516750139      0.26131985102811     -0.55429555079691
  C   -0.31962074575362     -0.11919348127398     -0.49468100172735
  Br  2.24437452813065     -1.10251539609319     -1.45604339581316
  H   -0.61669785262550     -0.33331433790988     -1.52796747124484
  H   1.29793588953393      1.15987559376318     -1.16159675037643
  C   1.71901484339104      0.50409484069205      0.77265836778560
  N   2.11822806193035      0.71115939261597      1.85822232031755
  C   -1.11442044559946      1.08582402358469      0.01079650131226
  H   -0.84660161552682      1.32788273897304      1.04287276252827
  H   -0.94299833339759      1.97225411195584     -0.60619738425758
  H   -2.18375107504620      0.86324318884002     -0.01365253174520
  C   -0.57462005186320     -1.35017243933686      0.36654712292028
  H   -0.02027653128675     -2.21832204892751      0.00704650708518
  H   -1.63848195338620     -1.59875127536328      0.35078696331883
  H   -0.28880988600200     -1.16338476254819      1.40550354069349
