15
Coordinates from ORCA-job run
  C   1.23764135341996     -0.03051188178464     -0.11318625160663
  C   -0.21856477577659     -0.12667330719985      0.36189515895889
  Br  2.37818815890276     -1.40558607627536      0.69420191976757
  H   -0.20920158168988     -0.04903684203942      1.45521118207796
  H   1.29225023294547     -0.20971370820383     -1.19096684313611
  C   1.83196988965226      1.26724356054217      0.18368666209777
  N   2.27702005388522      2.32734765321460      0.42543152838983
  C   -0.84482518827511     -1.45653457638649     -0.04569544971391
  H   -0.32140523127867     -2.30817711981467      0.38906457369033
  H   -1.88480619207625     -1.49417633007950      0.28637032833869
  H   -0.83815716687168     -1.56647482914804     -1.13491146384517
  C   -1.01544190519993      1.04469780697734     -0.21622027768996
  H   -0.99675030579857      1.02520939208748     -1.31059295537563
  H   -0.63010031523395      2.01008256259774      0.11655463864653
  H   -2.05881702660503      0.97130369551248      0.09915724939982
