15
Coordinates from ORCA-job run
  C   1.21786889836080     -0.02854325325775     -0.24765339734217
  C   -0.17417138083127     -0.08307441662112      0.39634832059971
  Br  2.47444967246001     -1.28377683199725      0.58226135989229
  H   -0.04659174978579      0.13115116522469      1.46374817965659
  H   1.15757706542099     -0.33485166703678     -1.29618366851168
  C   1.80872777022586      1.30236392359182     -0.17460388511050
  N   2.25117815401884      2.38899600594171     -0.11054745254637
  C   -0.80667263695938     -1.46100749824414      0.22871945978465
  H   -1.80551944723136     -1.46678280405638      0.67084193321395
  H   -0.22059298766942     -2.24406214091904      0.71003624839229
  H   -0.90992493043661     -1.71024310140495     -0.83232505551709
  C   -1.05964856116872      0.99697060757649     -0.22881629541610
  H   -2.05941406830894      0.95307960642658      0.20922873457534
  H   -0.66404257999569      2.00082644524206     -0.06488538661751
  H   -1.16222321809931      0.83895395953408     -1.30716909505340
