15
Coordinates from ORCA-job run
  C   1.20906229735958      0.17535634208681     -0.48305862846246
  C   -0.29301841708086     -0.13579945017694     -0.50816024347371
  Br  2.28131110955940     -1.28572900422284     -1.22539178748281
  H   -0.52983395396906     -0.39752949102941     -1.54603589621494
  H   1.42497031018507      1.02954602527720     -1.12910721354390
  C   1.68247727201833      0.47476525004512      0.86324994401852
  N   2.05140401122673      0.74499491923889      1.94560575773340
  C   -1.06181812580163      1.13063577065686     -0.12781933531186
  H   -2.13637603226801      0.95524595160955     -0.21840719641278
  H   -0.85589191704639      1.41918118045627      0.90656675247889
  H   -0.80423669735353      1.97184869519043     -0.77734504514598
  C   -0.66429892887505     -1.30111510410625      0.40088467629326
  H   -0.43582740578536     -1.06735004248111      1.44452052232290
  H   -1.73609848321664     -1.50019037838657      0.32865077250326
  H   -0.13282503895259     -2.21386066415801      0.12784692069820
