15
Coordinates from ORCA-job run
  C   1.23864137444507     -0.02942906646586     -0.09883667546549
  C   -0.22306253621315     -0.12983066751192      0.35807058079995
  Br  2.36972750221337     -1.41345763473351      0.70562293251748
  H   -0.22685586807581     -0.06034943028162      1.45196449330977
  H   1.30547920973516     -0.19597806199001     -1.17805940039134
  C   1.82923603560621      1.26526907598484      0.21889287627798
  N   2.27206601167218      2.32256123915348      0.47691935500418
  C   -0.84443004114601     -1.45639368802326     -0.06712793281631
  H   -0.82198265111842     -1.55961978337324     -1.15681318850539
  H   -1.88919419685428     -1.49501691862945      0.24953470944244
  H   -0.32810448407244     -2.31124120792703      0.36980205677622
  C   -1.01225400880832      1.04648143514893     -0.22075421557342
  H   -0.97431057179437      1.03928692979637     -1.31484753755174
  H   -2.06091583765061      0.96821252603426      0.07519965153324
  H   -0.63403993793857      2.00850525281802      0.12943229464241
