12
Coordinates from ORCA-job run
  C   1.07377338506905     -0.39592657533599     -0.67329268722189
  C   0.15824329200018      0.20754297690950      0.37444736472045
  H   1.44333854412622     -1.36888918106563     -0.34926208419660
  H   0.64861240067673      0.26071394549397      1.34750694703798
  H   0.53069771521555     -0.51979789612927     -1.61414031165861
  H   1.91449529618694      0.27719170948215     -0.83987629900977
  N   -0.96080114933293     -0.82605239500355      0.60240178183417
  O   -0.69503478226037     -1.76964934649986      1.34103928142940
  O   -2.01703954519350     -0.65875900371161     -0.00227163710808
  N   -0.32505513526173      1.48374682916335     -0.00890909707188
  H   -0.84409982365744      1.42563796187330     -0.87537913992048
  H   -0.92713019756868      1.88324097482365      0.69873588116531
