12
Coordinates from ORCA-job run
  C   1.20972634654922     -0.33844850257155     -0.42306939402568
  C   -0.00755375403732      0.15497463291351      0.31781929162923
  H   1.64224918419205     -1.20910726054095      0.06735507653155
  H   0.23363754861769      0.40483785265280      1.35999383717696
  H   0.93814881474996     -0.60752481652475     -1.44333145880108
  H   1.96070416097167      0.45535881571488     -0.44576760682083
  N   -1.04114545126107     -0.94527529990405      0.46953654804618
  O   -0.83769022810309     -2.04105866739382     -0.04186210050719
  O   -2.04014842944592     -0.62552793819983      1.10945139808112
  N   -0.68355725769032      1.20294439876625     -0.40757864073998
  H   -1.35874354271633      1.66874644900595      0.18421427972391
  H   -0.01462739182654      1.88008033608155     -0.74776123029418
