12
Coordinates from ORCA-job run
  C   1.02550774029817     -0.33577079806423     -0.63756239823056
  C   0.04669666707944      0.15378970717353      0.41926725112296
  H   1.81899906551031      0.40266716734867     -0.76775943311393
  H   0.52443257967616      0.24479252073897      1.39450103547357
  H   0.50372913314599     -0.46551425454109     -1.58821353494284
  H   1.47688275372891     -1.28804337298357     -0.34882251111383
  N   -0.97855122783594     -0.93937609752547      0.59972708017669
  O   -0.88366510168239     -1.65572414914333      1.59252788676709
  O   -1.80988552179677     -1.05088374590060     -0.29624205508064
  N   -0.67102436623396      1.36400915325342      0.12777002761383
  H   -0.94588830425504      1.39810526852834     -0.84497956245888
  H   -0.10823341763488      2.17294860111537      0.34978621378657
