12
Coordinates from ORCA-job run
  C   1.08487782868229     -0.40503657629394     -0.64930728124089
  C   0.15185570879924      0.21548777416006      0.37289021005373
  H   1.92625529835896      0.26735409666923     -0.81558634784908
  H   0.62767766886619      0.28956663055736      1.35178475134814
  H   0.55638389328027     -0.54796458909686     -1.59572945771239
  H   1.45208218110693     -1.37064082451637     -0.30144110564694
  N   -0.96689735132592     -0.81780893119537      0.60434781585292
  O   -0.70938620875701     -1.74526277618358      1.36600023803632
  O   -2.01398334513149     -0.66702872673114     -0.02033411012888
  N   -0.32991732697972      1.48205530070117     -0.04276522097919
  H   -0.94405973104889      1.89325885588587      0.64763429796354
  H   -0.83588861585086      1.40501976604359     -0.91549378969729
