16

C	0.0	0.0	0.0
C	-0.256289	0.04174	-1.542441
F	1.347432	0.0	0.0
H	0.195275	-0.918782	-1.827593
N	-0.387207	1.227245	0.810102
O	-0.541163	2.277412	0.204226
O	-0.362713	1.077104	2.026343
C	-0.470377	-1.213954	0.667121
N	-0.531579	-2.264271	1.193439
C	0.565222	1.137804	-2.25504
H	1.577531	1.208669	-1.862031
H	0.616346	0.872569	-3.31183
H	0.071221	2.102826	-2.163019
C	-1.571247	0.038733	-2.197939
N	-2.227064	0.056272	-3.180099
Br	-3.252075	0.0	0.0
