16

C	0.0	0.0	0.0
C	-0.517035	0.10515	-1.434843
F	1.355226	0.0	0.0
H	-1.525554	0.533512	-1.362918
N	-0.359815	1.24777	0.81486
O	-0.521972	2.282389	0.184211
O	-0.320345	1.12142	2.032156
C	-0.444785	-1.196141	0.722858
N	-0.548526	-2.230786	1.270873
C	-0.633611	-1.274907	-2.088835
H	-1.447	-1.814788	-1.603325
H	-0.88079	-1.152355	-3.144556
H	0.29899	-1.839576	-2.010541
C	0.364436	0.974267	-2.212044
N	1.065163	1.618821	-2.899671
Br	-3.43548	0.0	0.0
