14

C	-0.05041	0.020205	0.015853
C	-0.612077	-0.227502	-1.390676
Cl	1.740981	-0.170765	0.021208
H	-1.719789	-0.216039	-1.228399
H	-0.453508	-0.768507	0.651668
C	-0.439915	1.382983	0.544743
H	-0.016874	2.177052	-0.074449
H	-1.530672	1.439817	0.545671
H	-0.074422	1.504219	1.566076
C	-0.245976	-1.54185	-1.915736
N	0.038532	-2.600997	-2.335299
C	-0.222781	0.818856	-2.334162
N	0.079942	1.675033	-3.079097
Cl	-3.499727	-0.377542	-0.019711
