14

C	-0.048541	0.013607	0.027019
C	-0.616326	0.372256	-1.352766
Cl	1.742977	-0.158106	-0.053605
H	-1.723254	0.314052	-1.194808
H	-0.448079	-0.969227	0.278533
C	-0.437231	1.031568	1.076494
H	-0.069908	0.716132	2.054726
H	-1.52808	1.081313	1.102476
H	-0.016119	2.012046	0.843675
C	-0.253108	-0.604762	-2.377841
N	0.033764	-1.391328	-3.201123
C	-0.230621	1.716462	-1.777744
N	0.070608	2.80532	-2.099074
Cl	-3.501995	-0.331719	-0.160731
