13

C	-0.431744	-0.01421	-1.436313
C	0.0	0.0	0.0
Br	0.077812	1.634299	-2.338064
H	1.093713	0.0	0.0
H	-0.299609	-0.940784	0.471587
C	0.144882	-1.145269	-2.157899
N	0.598496	-2.05523	-2.748406
N	-1.974028	-0.159837	-1.635979
O	-2.656603	-0.230825	-0.622773
O	-2.375939	-0.220101	-2.789929
C	-0.519577	1.125419	0.74827
N	-0.878574	2.040906	1.392337
H	2.597522	0.0	0.0
