12
Coordinates from ORCA-job run
  C   -0.05791153007252     -0.04674485005164     -0.41608558831269
  C   1.11530798384450     -0.17903979673177      0.54380507628291
  Br  0.59386461937287     -0.04574144110062     -2.24148937555206
  H   1.83131727382953      0.63255911321028      0.40438492216079
  H   1.61858302123390     -1.13127542166858      0.37212830986701
  H   0.73128124447287     -0.15478237770811      1.56766368912290
  N   -0.69337287505203      1.31609926871238     -0.09293974821348
  O   -1.51664214920443      1.27710802849955      0.81736745508640
  O   -0.28574614997047      2.31854404946259     -0.65792190006899
  N   -1.10726576085740     -1.01285328764627     -0.31979271858815
  H   -1.45917567596119     -1.05024490317567      0.62901076396951
  H   -0.77224000163563     -1.92262838180215     -0.60713088575416
