12
Coordinates from ORCA-job run
  C   -0.07621190687639     -0.06800627250813     -0.24054239437357
  C   1.25889399482919     -0.17546606720187      0.44894599689549
  Br  0.25896093728549     -0.03329765056534     -2.23574018768347
  H   1.70629710843399     -1.14167542549192      0.20938545022362
  H   1.92998238670665      0.61468135752313      0.12449755539022
  H   1.10197061571439     -0.10413963687262      1.52687557984887
  N   -0.72855509131764      1.29129813260631      0.01096319283397
  O   -0.00338315573454      2.20368177177252      0.38473524139246
  O   -1.93362027302504      1.35808309672724     -0.19666670805057
  N   -0.99150166824254     -1.03689869593517      0.17651259906711
  H   -1.89301050661893     -0.93526147730321     -0.27085794344513
  H   -0.62882244115462     -1.97299913275094      0.06289161790099
