12
Coordinates from ORCA-job run
  C   -0.07384688723320     -0.06581876172145     -0.24141101746140
  C   1.25237035870626     -0.18726691345079      0.46288556093040
  Br  0.28652753483676     -0.01842183247842     -2.23287934565255
  H   1.93305388422022      0.59986132392556      0.15146107133377
  H   1.08295423644578     -0.12183260770018      1.53932796264662
  H   1.69530638660826     -1.15534257102262      0.22256876406789
  N   -0.71991161626529      1.29563551301671      0.01189230136494
  O   0.00792144632731      2.20161268060295      0.39556086142943
  O   -1.92261954503259      1.37117945457097     -0.20584571576197
  N   -0.99998882032903     -1.03202776483814      0.15655474644062
  H   -1.89639393643270     -0.91878339266620     -0.29818987324469
  H   -0.64337304185179     -1.96979512823838      0.03807468390695
