12
Coordinates from ORCA-job run
  C   0.01446686528889     -0.14093414131455     -0.35234927011901
  C   1.21653090607023     -0.15350391764341      0.56042771344428
  Br  0.56210177215828     -0.09815293246364     -2.22707809674362
  H   1.75653464081679     -1.08775626245941      0.41088593210166
  H   0.87994624756417     -0.09235922845038      1.60050234426068
  H   1.86835019633021      0.69148943708100      0.35661294741738
  N   -0.72760468222654      1.22451804035679     -0.16034859823192
  O   -0.03987271145174      2.22715757318690     -0.02265648162529
  O   -1.95348214624087      1.18111841364341     -0.16518115189872
  N   -0.83136968288375     -1.24386767417717     -0.14748159984232
  H   -1.06123529059486     -1.33942295512727      0.83459523782513
  H   -1.68336611483081     -1.16728635263226     -0.68792897658827
