16

C	0.0	0.0	0.0
C	-0.534989	0.171592	-1.400264
Br	2.093295	0.0	0.0
H	-0.225106	1.150459	-1.79219
H	-1.630801	0.154647	-1.173161
C	-0.487903	1.094024	0.910743
H	-0.141751	0.941111	1.937162
H	-1.587505	0.962241	0.825675
H	-0.157216	2.077118	0.56656
N	-0.356056	-1.264542	0.472154
H	-0.208492	-1.964401	-0.243414
H	0.068526	-1.502544	1.355156
N	-0.162518	-0.956923	-2.253904
H	-0.865284	-1.070361	-2.973144
H	0.731609	-0.779283	-2.697126
F	-3.008333	0.0	0.0
