16

C	0.0	0.0	0.0
C	-0.533662	0.168651	-1.401066
Br	2.093417	0.0	0.0
H	-1.629929	0.153493	-1.174981
H	-0.223805	1.146953	-1.793716
C	-0.486654	1.09601	0.908762
H	-0.151031	2.077715	0.566079
H	-0.144156	0.940735	1.936024
H	-1.586564	0.967859	0.82252
N	-0.356153	-1.26396	0.473644
H	0.065799	-1.502509	1.356221
H	-0.214322	-1.964042	-0.240943
N	-0.162429	-0.960445	-2.253826
H	0.73235	-0.784805	-2.693639
H	-0.862529	-1.073212	-2.97424
F	-3.010132	0.0	0.0
