16

C	0.0	0.0	0.0
C	-0.42051	-0.076674	-1.468504
Br	1.997043	0.0	0.0
H	-0.039965	0.799083	-2.015925
H	-1.514782	-0.026559	-1.376032
C	-0.445589	1.318381	0.601794
H	-0.04138	2.168512	0.04621
H	-0.119984	1.376329	1.642382
H	-1.540726	1.277877	0.539329
N	-0.531244	-1.078052	0.773811
H	-0.397412	-1.915944	0.211163
H	-1.553005	-0.850828	0.70697
N	-0.03468	-1.35471	-2.069188
H	-0.640192	-1.545498	-2.858352
H	0.920711	-1.300377	-2.404221
F	-2.922025	0.0	0.0
