16

C	0.0	0.0	0.0
C	-0.258418	0.114852	-1.54781
Br	1.984346	0.0	0.0
H	0.472276	-0.538004	-2.033878
H	0.006767	1.145439	-1.824077
C	-0.486141	1.218795	0.76296
H	-0.085142	2.148871	0.350467
H	-1.579842	1.174835	0.663415
H	-0.210958	1.150893	1.820323
N	-0.556557	-1.236916	0.47721
H	-1.577585	-1.065583	0.358894
H	-0.394747	-1.294885	1.479116
N	-1.566403	-0.222171	-2.0688
H	-2.295445	0.049273	-1.380383
H	-1.621128	-1.234611	-2.084994
F	-3.098336	0.0	0.0
