16

C	0.0	0.0	0.0
C	-0.267985	0.249715	-1.532238
Br	1.984175	0.0	0.0
H	0.490306	-0.318279	-2.077569
H	-0.05759	1.313062	-1.710218
C	-0.483914	1.1445	0.871557
H	-0.213746	0.974782	1.918741
H	-0.075942	2.107049	0.551246
H	-1.576384	1.114039	0.762986
N	-0.56045	-1.27293	0.365199
H	-1.579881	-1.079263	0.270919
H	-0.392841	-1.422587	1.356849
N	-1.557678	-0.103227	-2.083362
H	-1.578401	-1.114985	-2.15188
H	-2.298034	0.115318	-1.389664
F	-3.090852	0.0	0.0
