16

C	0.0	0.0	0.0
C	-0.517712	-0.041292	-1.420123
Br	2.050726	0.0	0.0
H	-0.241495	-1.010048	-1.869618
H	-1.612825	-0.02745	-1.20862
C	-0.528683	1.196552	0.74298
H	-1.625964	1.01912	0.687288
H	-0.244227	2.114998	0.231458
H	-0.162202	1.215152	1.774788
N	-0.375456	-1.197994	0.649629
H	-0.27885	-1.136813	1.652224
H	0.116073	-2.00362	0.290268
N	-0.097833	1.115847	-2.203781
H	0.822502	0.952585	-2.594292
H	-0.749807	1.243348	-2.967118
F	-3.02695	0.0	0.0
