16

C	0.0	0.0	0.0
C	-0.250537	-0.023525	-1.560728
Br	1.968034	0.0	0.0
H	0.059269	0.961787	-1.936691
H	0.451637	-0.7499	-1.987392
C	-0.51689	1.275478	0.633039
H	-0.110784	2.155775	0.130638
H	-1.607933	1.222017	0.523453
H	-0.252039	1.302354	1.692606
N	-0.556645	-1.117535	0.707251
H	-1.575602	-0.931734	0.654097
H	-0.372852	-1.96732	0.179852
N	-1.581098	-0.346501	-2.037607
H	-2.294495	-0.047532	-1.339089
H	-1.665673	-1.357561	-2.052166
F	-3.134453	0.0	0.0
