16

C	0.0	0.0	0.0
C	-0.454846	-0.119181	-1.452022
Br	1.973704	0.0	0.0
H	-0.175252	-1.125383	-1.797172
H	-1.547743	-0.05884	-1.349782
C	-0.418276	1.342631	0.589713
H	-0.062599	1.427632	1.622073
H	-1.513571	1.302623	0.560502
H	-0.035002	2.174577	-0.00147
N	-0.553448	-1.127281	0.698523
H	-0.381924	-0.9917	1.692036
H	-1.578557	-0.940963	0.545596
N	0.03921	0.963535	-2.304068
H	0.973067	0.738118	-2.625731
H	-0.561531	1.028399	-3.11589
F	-2.929182	0.0	0.0
