14
Coordinates from ORCA-job run
  C   -0.31627728732069      0.02107956366778     -0.49146551183707
  C   1.19390799129895     -0.15503097207881     -0.49071594578827
  F   -0.73094319887405     -0.03959218425218     -1.80071111954571
  H   1.64264450852232      0.60620360370285     -1.12930705226054
  H   1.41091338220312     -1.13856851796159     -0.91601093201833
  N   -0.65370360654007      1.45178718719457     -0.05621616414340
  O   -1.76346145340788      1.63554144901524      0.43226061078789
  O   0.18478083295653      2.31592893707838     -0.29588502170760
  C   -1.07813933253541     -0.97250090206640      0.33634022479024
  H   -2.14652262941058     -0.80664774735371      0.21629982395744
  H   -0.82667029338547     -1.97780609053584     -0.00641983955720
  H   -0.81962257105246     -0.87687928089771      1.39132147797961
  C   1.74270663047373     -0.06440587827184      0.85751453689879
  N   2.16038702707194     -0.00110916724074      1.95199491244416
