14
Coordinates from ORCA-job run
  C   -0.22985017022508      0.13737663313945     -0.35667128811613
  C   1.17907214074571      0.33541779662890      0.18659827110364
  F   -0.15370786494345     -0.04522864012930     -1.71461767660961
  H   1.66453081451295      1.13471621387402     -0.37440765852256
  H   1.13379975996401      0.64544740606223      1.23402279722016
  N   -0.98436237495719      1.46427347107877     -0.19578440919574
  O   -2.20710016133821      1.40397672535938     -0.12780805917122
  O   -0.31241308208004      2.49234457840601     -0.21393615270672
  C   -1.00904294684994     -0.98449404654500      0.26614237889505
  H   -0.46859005797844     -1.91810154644038      0.10674848273148
  H   -1.13394966678019     -0.81882764775534      1.33745535482755
  H   -1.99048446561449     -1.05049142169239     -0.19791706254052
  C   1.95078025349085     -0.89805286815994      0.06941762969495
  N   2.56031782205350     -1.89635665382641     -0.02024260761032
