14
Coordinates from ORCA-job run
  C   -0.20350520070877      0.12426066395623     -0.39617171822418
  C   1.16579764114816      0.34154278128709      0.24094638266163
  F   -0.03880795468855     -0.09862610944633     -1.72637921432973
  H   1.67336316011656      1.15178325724258     -0.29137802413834
  H   1.04261622263814      0.63950668861191      1.28341915549181
  N   -0.95810095470302      1.44389425275746     -0.25160087607877
  O   -1.10008577614186      1.83522697440452      0.90350067243855
  O   -1.36577009568776      1.98681141695751     -1.26743144916014
  C   -1.04223453854066     -0.96994218581084      0.21088442417924
  H   -0.52761646152822     -1.92387911594153      0.08955562740757
  H   -1.99862763677298     -1.01732822394300     -0.31247273000255
  H   -1.21657623010340     -0.77809869834781      1.26885377120746
  C   1.96982706812428     -0.87342274002463      0.15559501375873
  N   2.59872075684807     -1.86172896170318      0.09267896478870
