14
Coordinates from ORCA-job run
  C   -0.25740160324946     -0.08013216772014     -0.32505577511115
  C   1.13648868814144     -0.37006789569859      0.21529899577230
  F   -0.23395743414489     -0.14809062802001     -1.68162190699280
  H   1.39437597341938     -1.39985405502602     -0.04676630387070
  H   1.13131742969602     -0.27732983810905      1.30229366936288
  N   -0.61031346980250      1.35628599704868      0.04995446450529
  O   -0.56878101382743      1.59468506856566      1.25362827757735
  O   -0.91756782124340      2.12699052169399     -0.84601828225799
  C   -1.33450136037728     -0.98518589186770      0.21784743210562
  H   -1.11390774655791     -2.01502938239811     -0.06750268728729
  H   -2.29363640270556     -0.70065163161004     -0.21850830225899
  H   -1.39314956560965     -0.90678090241532      1.30259892728278
  C   2.13230824668358      0.53668905603862     -0.35133120564822
  N   2.92872607957766      1.26947174951804     -0.80381730317909
