14
Coordinates from ORCA-job run
  C   -0.22720801371454     -0.02698337674630     -0.35560797275092
  C   1.10061267776250     -0.43821289291163      0.26629957471673
  F   -0.07514843702659      0.08378925316233     -1.70101700468792
  H   1.35766627311731     -1.43220770873775     -0.10999815446455
  H   0.99252345701578     -0.49266289079297      1.35059492860095
  N   -0.57741815799910      1.36025755740756      0.17543229263031
  O   -0.77703860798994      2.25346789799445     -0.63285122742165
  O   -0.64523170478653      1.43676006721165      1.39882273556160
  C   -1.37381345262750     -0.95423404060073     -0.04079959629699
  H   -1.14953836396017     -1.94702500815113     -0.43417947570549
  H   -1.53870249707141     -1.01137520996005      1.03423108898672
  H   -2.27780199667794     -0.58287468666619     -0.52692643344582
  C   2.16824894113076      0.49866063773763     -0.07603732042832
  N   3.02284988282736      1.25464040105314     -0.34796343529464
