14
Coordinates from ORCA-job run
  C   -0.31130230154594      0.01307799439972     -0.49597170124536
  C   1.19403238871517     -0.20122094823841     -0.47361461693697
  F   -0.71454531833735     -0.07465717461794     -1.80700140970811
  H   1.39104865943941     -1.20431881513894     -0.86103650651317
  H   1.66761832714595      0.52554147511170     -1.13409385534425
  N   -0.61371444550244      1.46439528506098     -0.10466039298126
  O   -1.71434604627565      1.68968488300087      0.38661035521363
  O   0.24304658298193      2.29986594917691     -0.37775439422031
  C   -1.10625200218669     -0.93631986564793      0.35227764527374
  H   -0.87731656155067     -1.95729533320485      0.04117048009760
  H   -2.16901233667150     -0.74720849519273      0.21695890142086
  H   -0.85546635904271     -0.81630069442496      1.40668748336562
  C   1.73060202659187     -0.07483909946859      0.87661598124728
  N   2.13760738623863      0.02059483918415      1.97281203033070
