14
Coordinates from ORCA-job run
  C   -0.23137456165060     -0.00510228207856     -0.35409111467484
  C   1.11318942850226     -0.43430734063833      0.21782240002742
  F   -0.10026747875806      0.21091725348769     -1.68895119899676
  H   1.38548207930656     -1.38981236110476     -0.23878782298507
  H   1.02180972306222     -0.57572192593982      1.29569214322817
  N   -0.60237348922395      1.32954098461029      0.28560740140514
  O   -0.83243076007833      2.27689011036913     -0.44969359642848
  O   -0.65271063845230      1.31116609337430      1.51214916519433
  C   -1.35450370894437     -0.97782063075360     -0.09698603063972
  H   -2.27347984656485     -0.58731034709835     -0.53773517867367
  H   -1.50021677198300     -1.12407513750535      0.97246028843818
  H   -1.11808287851103     -1.93138789073369     -0.57190160789096
  C   2.15585905710098      0.55003897938844     -0.06239156573820
  N   2.98909984619447      1.34598449462263     -0.28219328226553
