16

C	0.0	0.0	0.0
C	-0.336747	0.193302	-1.50285
Br	2.037948	0.0	0.0
H	0.338491	-0.486703	-2.034726
N	-0.517365	0.917031	0.865861
H	-0.334745	0.612016	1.816608
H	-1.578173	0.776542	0.625355
N	-0.28366	-1.488139	0.38087
O	-0.304897	-2.319775	-0.517304
O	-0.431812	-1.716643	1.574027
N	-0.12332	1.599606	-1.855311
H	0.858297	1.817075	-1.718222
H	-0.335607	1.698764	-2.841834
C	-1.67766	-0.180014	-1.996157
N	-2.446829	-0.453839	-2.846846
F	-2.624141	0.0	0.0
