16

C	0.0	0.0	0.0
C	-0.251734	-0.287299	-1.543595
Br	1.984101	0.0	0.0
H	0.387234	0.47467	-1.998921
N	-0.631664	1.173994	0.380354
H	-0.443275	1.349676	1.36072
H	-1.66757	0.901835	0.273653
N	-0.372111	-1.184424	0.922946
O	-0.322052	-0.942593	2.125511
O	-0.70295	-2.24819	0.417873
N	-1.566765	-0.147861	-2.108692
H	-1.719412	0.841562	-2.252535
H	-2.264205	-0.388269	-1.373563
C	0.328772	-1.575652	-1.972116
N	0.767137	-2.561259	-2.435246
F	-2.911769	0.0	0.0
