16

C	0.0	0.0	0.0
C	-0.511626	-0.06585	-1.458618
Br	1.926007	0.0	0.0
H	-1.596391	-0.238891	-1.261022
N	-0.561261	1.02381	0.783884
H	-1.600948	0.838318	0.637397
H	-0.29056	1.923917	0.40232
N	-0.401246	-1.335516	0.685472
O	-0.175282	-1.407121	1.886123
O	-0.898641	-2.217163	-0.00274
N	0.122909	-1.080856	-2.284723
H	-0.587778	-1.619541	-2.760109
H	0.751853	-0.670204	-2.962931
C	-0.379972	1.272568	-2.039639
N	-0.248433	2.316871	-2.564699
F	-2.774767	0.0	0.0
