16

C	0.0	0.0	0.0
C	-0.515529	-0.038753	-1.456612
Br	1.927557	0.0	0.0
H	-1.60101	-0.213735	-1.253388
N	-0.552943	1.016592	0.802538
H	-1.591252	0.838949	0.657016
H	-0.277804	1.919958	0.434702
N	-0.405424	-1.342145	0.667494
O	-0.201329	-1.425418	1.871298
O	-0.872664	-2.224236	-0.040563
N	0.115387	-1.035513	-2.304869
H	0.748217	-0.610251	-2.968563
H	-0.593927	-1.55976	-2.798888
C	-0.386874	1.310269	-2.012898
N	-0.26942	2.364585	-2.519991
F	-2.769573	0.0	0.0
