19

C	-0.269305	-0.075356	-1.502803
C	0.0	0.0	0.0
Br	-2.125322	-0.605115	-1.955771
H	1.099274	0.0	0.0
N	-0.133917	1.374931	-2.09256
O	0.972879	1.637573	-2.556648
O	-1.073384	2.155261	-2.003583
N	0.620832	-0.97267	-2.098899
H	1.568308	-0.813137	-1.751154
H	0.596977	-0.931321	-3.107986
C	-0.444876	-1.28014	0.700643
H	0.061117	-1.337385	1.668235
H	-0.168143	-2.160071	0.11924
H	-1.5261	-1.288292	0.867971
C	-0.530818	1.237597	0.702333
H	-1.610426	1.347615	0.566456
H	-0.321366	1.143285	1.770799
H	-0.040591	2.14769	0.354145
Br	3.557808	0.0	0.0
