19

C	-0.279055	0.112105	-1.511394
C	0.0	0.0	0.0
Br	-0.213606	-1.642677	-2.400293
H	1.097199	0.0	0.0
N	-1.706893	0.636223	-1.692769
O	-1.829743	1.816463	-2.01882
O	-2.632757	-0.107617	-1.385942
N	0.609787	0.969168	-2.224534
H	0.414451	1.932879	-1.984085
H	1.559616	0.739814	-1.924795
C	-0.543529	-1.217264	0.72883
H	-0.093373	-2.13662	0.356871
H	-0.287576	-1.12927	1.78864
H	-1.630468	-1.291919	0.636444
C	-0.437456	1.289763	0.700154
H	-0.082855	2.184534	0.185277
H	0.000272	1.301386	1.700554
H	-1.52709	1.350334	0.798609
Br	3.550481	0.0	0.0
