17
Coordinates from ORCA-job run
  C   -0.54775780250164      0.23222270442349     -0.06949507122643
  C   0.93384598920085      0.24650216913441     -0.44622542613272
  Cl  -1.50561370839591     -0.17604483367829     -1.55514464003303
  H   1.47558923325124      0.64803393373780      0.41986699962974
  H   1.06458519406188      0.96756449978005     -1.25956819359317
  C   -0.87607715489758     -0.81203798788514      0.98524494365105
  H   -0.26938349470007     -0.63257238981291      1.87890965386971
  H   -1.93021822481869     -0.75290913520050      1.26339473446623
  H   -0.67756396104132     -1.82177629537206      0.62578966802661
  C   -0.99249233535638      1.61690482646189      0.37641345622458
  H   -0.46197906530904      1.89512253902425      1.29233785434718
  H   -2.06547754349507      1.63370942315614      0.57731120158832
  H   -0.77457393692195      2.36048549306865     -0.39292970565362
  C   1.53476508649874     -1.09647075736895     -0.84448868255350
  H   1.55736363344938     -1.79596954709497     -0.00672856563646
  H   2.56400406095056     -0.95946159967215     -1.18410343327195
  H   0.97098403002501     -1.55330304270172     -1.65958479370253
