16
Coordinates from ORCA-job run
  C   -0.52634555806757     -0.05438280001805     -0.28500356073582
  C   0.91569724459832      0.07715038360010      0.21916865136551
  Cl  -0.55645110460953      0.00809423053415     -2.03797604646004
  H   0.93288141516613     -0.20795335431782      1.27577233424442
  N   -1.07856103411395     -1.40268197538428      0.22249813463612
  O   -1.68809665840660     -2.11788153276598     -0.55012203111479
  O   -0.90576208536962     -1.58392004115915      1.42239722537657
  C   -1.43300558224016      1.01065687298200      0.30648244815009
  H   -1.13959448577803      1.99570075596107     -0.05516357917570
  H   -2.45946826255554      0.81346548467696     -0.00790892093931
  H   -1.37873621560717      0.98539236631664      1.39632085019444
  C   1.41657785975413      1.43084030024848      0.04289265139012
  N   1.77030215544303      2.54591888895242     -0.06298282340936
  N   1.82871176485925     -0.92006995380368     -0.47596901204232
  O   1.40314241842298     -2.06693842295833     -0.50924469635344
  O   2.89870812850434     -0.51239120286455     -0.90316162512648
