16
Coordinates from ORCA-job run
  C   -0.64808149464602      0.29380041301465     -0.24591569211868
  C   0.87761722436054      0.48806262895222     -0.26921532981375
  Cl  -1.33260567857293      1.46796809696651     -1.37872462331982
  H   1.08508322523693      1.50285780315368      0.07714351369929
  N   -0.98537325373849     -1.10902371077922     -0.77646878103383
  O   -0.67326187364678     -1.34030277648414     -1.93471302388248
  O   -1.52380406296364     -1.87763564657044      0.01110067720421
  C   -1.22334076324860      0.48979410690677      1.13672934180753
  H   -0.85164956482556     -0.26579445754827      1.82762107916259
  H   -2.30873757236589      0.40948867442468      1.09512418258213
  H   -0.95281088256849      1.48247211868947      1.50015693519341
  C   1.53023041371300      0.26407281817897     -1.55213425588369
  N   2.13623385719824      0.15101279805028     -2.55185770276476
  N   1.48970372308593     -0.43042179274037      0.76786714152300
  O   1.49148321013331     -1.62571315038387      0.49694187628613
  O   1.88831349284845      0.10236207616908      1.79734466135873
