16
Coordinates from ORCA-job run
  C   -0.51614171469956     -0.04079702086606     -0.30430550441615
  C   0.90883728369018      0.05389390172494      0.25462161733574
  Cl  -0.47738332043260      0.01945572288506     -2.05718055256624
  H   0.87800782025974     -0.23002075647333      1.31117892642147
  N   -1.12149005926329     -1.37428183598336      0.18228845035970
  O   -1.71924389345784     -2.07446424290065     -0.61301752626163
  O   -0.99879984411944     -1.55859242475858      1.38781592987241
  C   -1.41706493530693      1.04772653835950      0.25158096608679
  H   -1.40540915199789      1.02224675906884      1.34271741576379
  H   -1.08462599864396      2.02454593018249     -0.09847135729526
  H   -2.43540851448767      0.87683989777481     -0.10212239084353
  C   1.45073734686502      1.39397840364822      0.09684936104242
  N   1.83691937913316      2.49930262075704      0.00276237954627
  N   1.82037430200586     -0.96764221083830     -0.40556188730269
  O   1.36959215052750     -2.10460800918775     -0.44666839666991
  O   2.91209914992772     -0.58658327339283     -0.80148743107319
