16
Coordinates from ORCA-job run
  C   -0.61463940478183      0.35487089290307     -0.25263196145593
  C   0.92884958401923      0.42244731679590     -0.24345752148001
  Cl  -1.15105863080564      1.60925572137585     -1.37083433439875
  H   1.20343379144524      1.44934985731217      0.00967461241359
  N   -1.00128962334135     -1.02746394686923     -0.79648678829990
  O   -0.57865680046366     -1.94264234858663     -0.09536462503391
  O   -1.66770574308922     -1.12161304127411     -1.81235611181069
  C   -1.28977527557695      0.52633410423421      1.09202775425170
  H   -2.37004815282164      0.52865703355106      0.93509009742904
  H   -0.99424965253262      1.47543557279971      1.53837502365526
  H   -1.02088643597560     -0.28499556561536      1.76469737249741
  C   1.48457578862066      0.05467413235665     -1.53888008841352
  N   1.91633812499048     -0.21948517591771     -2.59628854157849
  N   1.56473265098793     -0.42137158376100      0.85246020374293
  O   1.41137522112962      0.02349906828247      1.98457645758101
  O   2.18100455819536     -1.42495203758705      0.52839845090026
