16
Coordinates from ORCA-job run
  C   -0.56491815280623     -0.05383265349739     -0.19935224947582
  C   0.93972101047180      0.05481252766782      0.07500278449781
  Cl  -0.85534019050022     -0.12963558268098     -1.92774640959819
  H   1.10562907318034     -0.14498234207329      1.13824480949540
  N   -1.07613756099049     -1.33266555633106      0.49655099596638
  O   -0.73109238523851     -1.42532142376005      1.66905908214849
  O   -1.81633677056248     -2.08001652111615     -0.11463036784537
  C   -1.33954660299432      1.09271364884333      0.42622144635245
  H   -1.12453528041406      1.15041019415698      1.49472677702165
  H   -1.07240198483402      2.03286660742252     -0.05534543489605
  H   -2.40703445274309      0.91650365560573      0.28232550232292
  C   1.45072670745746      1.36683142486198     -0.28789401999224
  N   1.81976200305776      2.45311979852564     -0.54003861109277
  N   1.70759780273841     -1.03381812490717     -0.65738378323954
  O   1.24447331495947     -2.15973712769656     -0.53333830199193
  O   2.71743346921824     -0.70924852502134     -1.26440221967321
