16
Coordinates from ORCA-job run
  C   -0.66739266666408      0.19868508686973     -0.08163859572008
  C   0.79782473784472      0.41522538613683     -0.50473591384356
  Cl  -1.47869773678816      1.77102851037109     -0.01773434875361
  H   0.82656245809697      0.96901450410435     -1.44191204758075
  N   -1.32114090034954     -0.56824783815209     -1.25045592413546
  O   -2.25124175572178     -1.30940837452385     -0.97002059951869
  O   -0.87921365640627     -0.34089826597859     -2.37119502365770
  C   -0.86451777033480     -0.56590407754648      1.20122969591711
  H   -1.92950836889218     -0.69239752342745      1.38347215575002
  H   -0.41718933650219     -0.01942147580423      2.02932210926953
  H   -0.39687749281119     -1.54970682868233      1.12935446947940
  C   1.48991631888058     -0.86017078232430     -0.63099325391870
  N   2.02627276866919     -1.89938087295338     -0.74163094221811
  N   1.51686396604136      1.27393375462865      0.51349083085368
  O   1.70759980567503      2.43910805326308      0.18605691256566
  O   1.84073962926234      0.73754074401896      1.56739047551125
