16
Coordinates from ORCA-job run
  C   -0.62229091238331      0.34264567333594     -0.25321397818289
  C   0.91891512851985      0.45227798035168     -0.22084026668726
  Cl  -1.17819705401083      1.59721546608830     -1.36080676228208
  H   1.16234648732515      1.47614465216541      0.07244356491245
  N   -0.96007434761223     -1.04281427360220     -0.82300382768425
  O   -0.60393574158592     -1.95694803884897     -0.08454396163977
  O   -1.51940592757492     -1.14012068118621     -1.90192386814892
  C   -1.31282055919316      0.48221927942067      1.08706862067665
  H   -1.02644074063802     -0.32513711389414      1.75678134607204
  H   -2.39164988962296      0.45484217128234      0.92316130096362
  H   -1.04843611803635      1.43728711295465      1.54089995023901
  C   1.50578079584725      0.14232548382394     -1.51763263185462
  N   1.96864912366853     -0.07920926980371     -2.57429666539531
  N   1.55204252352527     -0.41832606523801      0.85492460195920
  O   2.14690325977773     -1.42700654082787      0.50599084359214
  O   1.40861397199391      0.00360416397820      1.99699173345999
