16
Coordinates from ORCA-job run
  C   -0.57289180678704      0.24271054839553     -0.31582439653061
  C   0.92450870518675     -0.09026292644868     -0.45185978479576
  Cl  -0.90756448792659      1.72714083895664     -1.22171016579628
  H   1.18865166202799     -0.16108878672815     -1.50570805724125
  N   -1.32379773024177     -0.88233312427232     -1.05777028943734
  O   -2.49232320617953     -1.05342386002363     -0.74474726678138
  O   -0.70360729733495     -1.48467858894874     -1.92753551890605
  C   -1.08983519721869      0.33978774114894      1.09655605831486
  H   -0.57619974210425      1.14053241376611      1.62520068422141
  H   -0.91957307761948     -0.60134964895229      1.62365050432567
  H   -2.15775008888285      0.54570359480035      1.07252401325449
  C   1.24653739811247     -1.32363011223076      0.25251052981887
  N   1.48433961216367     -2.32416349394886      0.81994595534223
  N   1.76427604636715      1.03667172048949      0.11354182089169
  O   2.31370333155468      1.75582376563057     -0.71223273768458
  O   1.82152587888244      1.13255991836581      1.33445865100403
