16
Coordinates from ORCA-job run
  C   -0.64996104412335      0.27485150718343     -0.26178197758168
  C   0.87200254899861      0.49805076525176     -0.26927274738337
  Cl  -1.34067575759845      1.40730979984292     -1.43264056100267
  H   1.05541685186266      1.52520548926575      0.05344582493947
  N   -0.95211483917522     -1.14724254633495     -0.76205243427090
  O   -0.62349689477655     -1.39928641393483     -1.91134875431123
  O   -1.48094542670396     -1.90854915540187      0.03904593540851
  C   -1.24871113901464      0.49312560721000      1.10744515757353
  H   -0.87303413199820     -0.23834793411567      1.82170889896746
  H   -2.33170915265333      0.39113407688317      1.05212282257238
  H   -1.00225920889790      1.49915611639909      1.45070491698077
  C   1.54577532583344      0.25407849158508     -1.53749010517332
  N   2.16621334476687      0.12869663744863     -2.52692458812681
  N   1.48691361952060     -0.38119628574881      0.79935073350929
  O   1.85745609895359      0.18548486617781      1.82126478152733
  O   1.51912980500580     -1.58247102171150      0.55842209637123
