16
Coordinates from ORCA-job run
  C   -0.62773015478712      0.29571909956010     -0.07386585433843
  C   0.87200451859137      0.36428751001141     -0.41675039255871
  Cl  -1.22100059667405      1.94101919296384      0.20425380075381
  H   1.02189033501591      1.02484738011938     -1.26915085711448
  N   -1.33116693179879     -0.19498261519052     -1.35633451602124
  O   -2.43150560576984     -0.70557507973710     -1.21035264451754
  O   -0.75140987938026      0.00281389369088     -2.41871964135497
  C   -0.98993774454671     -0.61377958012368      1.07200522795748
  H   -0.66420390163490     -1.63379535679873      0.85804661703881
  H   -2.06934978840401     -0.60637750654008      1.20659608176039
  H   -0.50657153850197     -0.27104201785319      1.98474464311268
  C   1.40240130648208     -0.96521048049990     -0.68559901355030
  N   1.80854370992364     -2.04491333838728     -0.90688758734461
  N   1.64345870886055      0.98316323814761      0.73064166581981
  O   1.82811655394522      0.28472094870262      1.72114844889624
  O   2.01446100867886      2.13810471193465      0.55922402146105
