16
Coordinates from ORCA-job run
  C   -0.65262478114211      0.05101468366656     -0.24050471307315
  C   0.84707331818175      0.03923758624232     -0.59031725114777
  Cl  -1.46436015641009      1.24367936602979     -1.26753342527287
  H   0.97263337327398     -0.15442127983410     -1.65426805405411
  N   -1.19874307426211     -1.32388020616773     -0.67870842566677
  O   -0.57351077748135     -1.91827120918781     -1.55033606386953
  O   -2.23681939753019     -1.68963580705570     -0.14831371520656
  C   -0.97779528031540      0.27557724538203      1.21390286251154
  H   -2.05627557845751      0.23144945202870      1.34925142627163
  H   -0.50929757207591     -0.49725286455849      1.82695611126723
  H   -0.61050250751727      1.25010782597211      1.52978747156250
  C   1.55711730328207     -0.94961144378643      0.20914366795325
  N   2.11008306605840     -1.75702985091581      0.85870616727404
  N   1.45267394907095      1.40516151314035     -0.34119441795673
  O   1.69048047562903      2.07131504647176     -1.34150143975993
  O   1.64986763969576      1.72455994257246      0.82592979916723
