16
Coordinates from ORCA-job run
  C   -0.65272964169057      0.21465497643143     -0.11982574755809
  C   0.83696192706880      0.37338121713220     -0.47665433377927
  Cl  -1.40873691497094      1.81592255654280     -0.11991898348324
  H   0.93072358673643      0.89173276919348     -1.42945083438311
  N   -1.28925199881540     -0.55249050632797     -1.29771344088151
  O   -0.71369322637248     -0.48931567925136     -2.37879260630054
  O   -2.34086115782059     -1.12905463496175     -1.06447602024189
  C   -0.93761452797828     -0.52080857706201      1.16447653018259
  H   -0.50680613695140     -1.52359978480298      1.12620693128685
  H   -2.01433973130204     -0.60070870727184      1.29783743320815
  H   -0.50558781909110      0.01901739698092      2.00494799019432
  C   1.50078894919402     -0.92212868131366     -0.51710565998886
  N   2.01694047097429     -1.97669871032369     -0.55181798069260
  N   1.52862066121887      1.25235204270301      0.54546910236677
  O   1.78976239202865      2.39105857126701      0.17675222276654
  O   1.76482316777175      0.75568575106440      1.64106539730389
