16
Coordinates from ORCA-job run
  C   -0.63111787954911      0.29699159320469     -0.26940251775637
  C   0.90104640578924      0.48728971610086     -0.23532190485129
  Cl  -1.24311257626162      1.49555596123205     -1.41274226243105
  H   1.08397001145957      1.54065373956946     -0.00791882020135
  N   -0.91547546786799     -1.11242807743675     -0.79898079080936
  O   -1.77425677338754     -1.27611534130285     -1.64802845776816
  O   -0.25075140177963     -1.97631771829152     -0.23440394362082
  C   -1.35391543747726      0.42092005787313      1.05616562086982
  H   -1.14244862468092      1.38823625752715      1.51069251965832
  H   -1.04254485694515     -0.36862176098118      1.73779701958683
  H   -2.42585134513611      0.34178313775510      0.86549842568473
  C   1.50704415138032      0.13908183816059     -1.51347420128630
  N   1.97482483093335     -0.11484910720350     -2.56044281518949
  N   1.59996627882495     -0.26155121013402      0.89282764776499
  O   2.38785104621463     -1.14737849696056      0.60236322535075
  O   1.32377163848327      0.14674941088736      2.01537125499874
