16
Coordinates from ORCA-job run
  C   -0.56419185199344     -0.09601607469547     -0.17770792906714
  C   0.93938261620834      0.10618136245374      0.04645689052760
  Cl  -0.89004020410390     -0.30928075243178     -1.88895039813535
  H   1.14089869609990     -0.01189279718175      1.11576902635190
  N   -0.99321077687853     -1.34551621786485      0.61895904035848
  O   -0.61343352733893     -1.33937127144063      1.78447272259349
  O   -1.71228261795785     -2.16737454933698      0.08289244572952
  C   -1.38246643086338      1.05220679517366      0.38586433239804
  H   -2.44221903903009      0.81085532159163      0.28615391024396
  H   -1.17842580035655      1.96630531462168     -0.17060805595324
  H   -1.14417201941800      1.19973865531682      1.44066275236660
  C   1.37220517835028      1.41407062761057     -0.41833956904479
  N   1.67641404672999      2.49815158945766     -0.75270806397315
  N   1.74068513151689     -0.99075357406028     -0.63489034173419
  O   1.34955621449102     -2.12734743464111     -0.40520297623917
  O   2.70130038454424     -0.65895699457289     -1.31382378642256
