16
Coordinates from ORCA-job run
  C   -0.61317399199911      0.34781886338000     -0.24886714384390
  C   0.92758798945888      0.44592366039816     -0.21318885504578
  Cl  -1.15683097206953      1.64137024660514     -1.32103842632392
  H   1.17295538083340      1.47281695229599      0.06990330312308
  N   -0.98019920503417     -1.01127190433898     -0.85370199636997
  O   -1.84432284896850     -1.07752780676328     -1.71042978323956
  O   -0.36990834296520     -1.94254205752670     -0.33651061137899
  C   -1.32395723754038      0.44052425352396      1.08566770072154
  H   -1.05762096055145     -0.40202792839010      1.72128661098828
  H   -2.39929606595581      0.43476182991812      0.89766150123753
  H   -1.05487995004180      1.36759039065310      1.59077357861045
  C   1.50797346660434      0.13315404580619     -1.51227049960073
  N   1.95311694265672     -0.09044610029583     -2.57589768027708
  N   1.58468040321587     -0.40293754888603      0.86836463763362
  O   1.33686284355149     -0.04082904787856      2.01313127945595
  O   2.31801254880524     -1.31637784850118      0.52511638430949
