16
Coordinates from ORCA-job run
  C   -0.57154462950409     -0.03515597810368     -0.39954344590913
  C   0.95259657993580     -0.24071013218567     -0.31900156002374
  Cl  -0.96939146535483      0.63502456376328     -1.98961804918559
  H   1.28047839848514     -0.86821945576717     -1.14611349567732
  N   -1.18896347204683     -1.44853827998973     -0.37077401219413
  O   -0.47586111547322     -2.37408871176387     -0.74331765140849
  O   -2.35591281749562     -1.52443238654406     -0.01679805862524
  C   -1.17324755390392      0.79426633500511      0.70572376293223
  H   -0.75541025409218      1.79892853086020      0.68490514353916
  H   -0.95933290406804      0.33938960902047      1.67518113834840
  H   -2.25103015774285      0.84510033511942      0.56721052039579
  C   1.32916471830322     -0.82298463315258      0.96174512747805
  N   1.61121196404746     -1.29831121045080      1.99819789511889
  N   1.66905796081929      1.08318790916260     -0.49070316647907
  O   2.20669863416008      1.25899845914862     -1.57740134487768
  O   1.64948611393059      1.85654504587786      0.46030719656789
