16
Coordinates from ORCA-job run
  C   -0.65728422964040      0.25795089527775     -0.26290860922250
  C   0.85766448649835      0.52274320171701     -0.26918879078223
  Cl  -1.37788064452378      1.37400099585030     -1.43178398554553
  H   1.01251922881120      1.55450480498371      0.05374279683203
  N   -0.92267005153189     -1.17033530206123     -0.76667169216800
  O   -0.58040624583450     -1.41275368539135     -1.91400856218557
  O   -1.44119687924675     -1.94435026274619      0.02878193601441
  C   -1.26180706131192      0.45726413446577      1.10663306812360
  H   -1.04178647998253      1.46857612988143      1.45239200380304
  H   -2.34171145638582      0.32709666871693      1.05095597927706
  H   -0.86727328812426     -0.26607482231688      1.81911717652464
  C   1.54088523404701      0.29627787620158     -1.53563132545954
  N   2.17538111693628      0.17370391912675     -2.51639363638151
  N   1.49529022727860     -0.33865276048538      0.80083431954420
  O   1.86050059070475      0.24051084822533      1.81758145918800
  O   1.54777545230566     -1.54046264144554      0.56654786243790
