16
Coordinates from ORCA-job run
  C   -0.61512171460570      0.27336112459355     -0.18285334515623
  C   0.89945994802536      0.22244261290138     -0.45663643252539
  Cl  -1.17248025020790      1.94135465596243     -0.39112800974489
  H   1.10479506920602      0.61871399397693     -1.44970430163419
  N   -1.27619730938110     -0.53770886161618     -1.31692782793433
  O   -2.39977591615803     -0.96353890363019     -1.09533427402539
  O   -0.64077980550208     -0.65761160458982     -2.35908459715083
  C   -1.05335680929423     -0.28400734424030      1.14719389633674
  H   -0.74405562741273     -1.32750472627264      1.23683333963428
  H   -2.13743467540384     -0.22672923267122      1.21788400067317
  H   -0.60471169790949      0.28969803706231      1.95593093573812
  C   1.40487031518742     -1.13647183292026     -0.32026945303918
  N   1.79087365837941     -2.24039779074734     -0.21009730642629
  N   1.63706203341947      1.12406344361092      0.51219617721053
  O   2.05351467208724      2.17728029484997      0.04542398619972
  O   1.75233810957020      0.72805613373046      1.66657321184416
