15

C	-0.124269	-0.264919	-1.492443
C	0.0	0.0	0.0
F	-1.337175	-0.789016	-1.921229
H	1.093017	0.0	0.0
H	-0.444526	0.956481	0.27194
N	-0.179406	1.127399	-2.262693
O	0.386619	1.184832	-3.35601
O	-0.832534	2.046072	-1.773956
N	0.950665	-1.027287	-1.916001
H	1.099813	-0.955417	-2.914096
H	1.793665	-0.75943	-1.3608
N	-0.489538	-1.141703	0.771571
H	0.270039	-1.458169	1.35706
H	-1.253433	-0.867206	1.370224
F	2.738947	0.0	0.0
