15

C	-0.5504	-0.077449	-1.403474
C	0.0	0.0	0.0
F	-0.439933	1.146088	-2.01573
H	1.095911	0.0	0.0
H	-0.378049	0.957046	0.379884
N	0.320681	-1.023264	-2.250386
O	0.70316	-0.659442	-3.354363
O	0.499646	-2.130085	-1.756872
N	-1.881046	-0.563446	-1.505605
H	-2.453388	0.083807	-2.027574
H	-2.220764	-0.740596	-0.56739
N	-0.586863	-1.081081	0.824928
H	-0.348662	-0.861623	1.786113
H	-0.050983	-1.91344	0.597829
F	2.668816	0.0	0.0
