14

C	0.0	0.0	0.0
C	-0.177237	0.002927	-1.580977
F	1.381178	0.0	0.0
H	0.465792	-0.838085	-1.875649
H	-0.315755	0.95139	0.417349
C	-0.821938	-1.067954	0.599099
N	-0.847518	-2.1344	1.141579
C	0.403363	1.289619	-2.169956
H	0.410131	1.241781	-3.26181
H	-0.200539	2.142885	-1.865432
H	1.423024	1.431975	-1.817341
C	-1.485567	-0.262126	-2.185677
N	-2.404285	-0.483002	-2.903877
H	-2.092348	0.0	0.0
