14

C	0.0	0.0	0.0
C	-0.562945	0.122634	-1.405904
F	1.378928	0.0	0.0
H	-1.675143	0.206815	-1.134893
H	-0.355235	0.855009	0.581827
C	-0.440131	-1.21832	0.700583
N	-0.541896	-2.186788	1.359888
C	-0.312071	-1.093262	-2.287228
H	0.749154	-1.349963	-2.339352
H	-0.86704	-1.942638	-1.883465
H	-0.666968	-0.90497	-3.303887
C	-0.059931	1.343003	-2.012689
N	0.329215	2.335436	-2.511978
H	-2.835062	0.0	0.0
