14

C	0.0	0.0	0.0
C	-0.195659	0.010931	-1.568706
F	1.377862	0.0	0.0
H	0.464996	0.831779	-1.876659
H	-0.344193	0.937335	0.433968
C	-0.674278	-1.114958	0.663432
N	-0.648593	-2.136068	1.278621
C	-1.524126	0.206834	-2.297408
H	-2.203787	-0.616077	-2.099882
H	-1.307523	0.279493	-3.373006
H	-2.015337	1.112574	-1.947349
C	0.439143	-1.211216	-2.087945
N	0.913296	-2.195329	-2.520656
H	-2.216353	0.0	0.0
