14

C	0.0	0.0	0.0
C	-0.603645	0.048391	-1.385973
F	1.378963	0.0	0.0
H	-1.723726	0.110284	-1.052188
H	-0.356384	0.860126	0.572778
C	-0.394557	-1.230749	0.725945
N	-0.482623	-2.231015	1.335694
C	-0.342536	-1.206663	-2.210183
H	-0.717663	-1.079152	-3.227855
H	0.724063	-1.448596	-2.263094
H	-0.874595	-2.047063	-1.75516
C	-0.181569	1.25398	-2.06885
N	0.121003	2.231839	-2.653318
H	-2.838825	0.0	0.0
