14

C	0.0	0.0	0.0
C	-0.204876	-0.064035	-1.56279
F	1.377989	0.0	0.0
H	0.490779	0.711637	-1.909513
H	-0.360849	0.947204	0.394997
C	-0.607532	-1.105286	0.737975
N	-0.591616	-2.090556	1.40224
C	-1.526477	0.168801	-2.293169
H	-1.308505	0.205456	-3.372603
H	-2.244114	-0.613596	-2.070032
H	-1.9741	1.104406	-1.966726
C	0.372	-1.334844	-2.026877
N	0.79563	-2.357391	-2.420447
H	-2.299953	0.0	0.0
