14

C	0.0	0.0	0.0
C	-0.20012	0.080526	-1.562939
F	1.378002	0.0	0.0
H	0.46032	0.915907	-1.830513
H	-0.364732	0.904036	0.48246
C	-0.60355	-1.171145	0.632583
N	-0.593912	-2.195919	1.233512
C	-1.530344	0.312926	-2.276773
H	-2.019958	1.19854	-1.880813
H	-1.315195	0.440097	-3.350232
H	-2.212333	-0.516025	-2.115972
C	0.435694	-1.114062	-2.142074
N	0.905655	-2.073856	-2.629255
H	-2.305414	0.0	0.0
