11
Coordinates from ORCA-job run
  C   0.41823522337356      0.57834852277838     -0.11680490824009
  C   -0.87114454979464      0.17880946244848     -0.03611894476960
  H   0.59680277598126      1.63172243752636     -0.32551323876069
  C   1.60173621824487     -0.30808566523890      0.06110993868198
  H   1.31725530332007     -1.34093856785122      0.26419363588167
  H   2.21953911995976      0.05494458393848      0.88772329083684
  H   2.22696509783180     -0.28441743649872     -0.83640234682127
  C   -1.22758188955665     -1.18581947566749      0.23426567352673
  N   -1.50279577380541     -2.30754387389171      0.45490849250444
  C   -1.95030761996072      1.10757933166413     -0.21890053783129
  N   -2.82870390559389      1.87440068079220     -0.36746105500872
