11
Coordinates from ORCA-job run
  C   0.55754961555095     -0.29862581791240     -0.34998428201273
  C   -0.79269087782054     -0.22501318419653     -0.33591553334567
  H   1.00978069869531     -0.92061275638767     -1.12019671972063
  C   1.46374712247102      0.40204978917381      0.60185860837146
  H   0.91585390576542      0.99755511959100      1.33253290725832
  H   2.08223356507990     -0.32699406639098      1.13398494176662
  H   2.14746962357377      1.05732883422269      0.05402577844983
  C   -1.58648008766319     -0.93818887674802     -1.29605219935911
  N   -2.22988672900371     -1.52552403176205     -2.08534426847473
  C   -1.50062064012559      0.56390349088351      0.63288343818214
  N   -2.06695619652333      1.21412149952665      1.43220732888448
