11
Coordinates from ORCA-job run
  C   0.38416792055910      0.57194857497192     -0.22001140120058
  C   -0.87940157127889      0.13226662693663     -0.02280906224940
  H   0.50048321425181      1.58859257028524     -0.59077966232386
  C   1.61725737443571     -0.22423161614285      0.03301671118534
  H   2.24861940611509      0.28777131168216      0.76523077796495
  H   1.39437345726077     -1.22578620818013      0.40181249333035
  H   2.20345961076458     -0.30947137225972     -0.88676335584028
  C   -1.15671012030170     -1.18978440638757      0.46427377341228
  N   -1.36917559048879     -2.27497360765911      0.86394926237682
  C   -2.01012412428551      0.97444325996272     -0.29290340189481
  N   -2.93194957703218      1.66922486679071     -0.51501613476081
