11
Coordinates from ORCA-job run
  C   0.48879489728200      0.01403382505158     -0.53282682400072
  C   -0.80098107762715     -0.28694600978711     -0.25966085142237
  H   0.82361906034210     -0.13474015307427     -1.55770225916670
  C   1.47684191232604      0.52632511865769      0.45706251029518
  H   1.04458414214727      0.64057511613534      1.45155254602957
  H   2.32917252928444     -0.15646559865659      0.52083680026570
  H   1.86895727243103      1.49363861988483      0.12923987775186
  C   -1.68166287344667     -0.77964852880595     -1.28062506558012
  N   -2.39766141859373     -1.18322868679478     -2.12100386845283
  C   -1.35500872860514     -0.13230783884998      1.05602070674218
  N   -1.79565571554018     -0.00023586376077      2.13810642753825
