11
Coordinates from ORCA-job run
  C   0.43104411965382      0.57255237556633     -0.09495266578881
  C   -0.86625776611565      0.19205487545911     -0.06699813565653
  H   0.63298760123671      1.62380240222287     -0.29200972846019
  C   1.59437354623134     -0.33219478528866      0.12018447537711
  H   2.19021120527122      0.02006498676427      0.96767003089269
  H   1.28895948018709     -1.36160231842276      0.30892428057637
  H   2.24873995942881     -0.31363970832083     -0.75641303406451
  C   -1.25367827206882     -1.16793335011894      0.18268645718900
  N   -1.55630471878949     -2.28541860417663      0.38811547045266
  C   -1.92387561607190      1.13718901586364     -0.28756559089329
  N   -2.78519953896313      1.91612511045160     -0.46964155962450
