11
Coordinates from ORCA-job run
  C   0.42031400780209      0.58427962078742     -0.06241323049176
  C   -0.86920280019725      0.17716206468856     -0.06912607647245
  H   0.60259462933600      1.64770795402297     -0.20635670488115
  C   1.59970893897218     -0.30577758403629      0.12443295816480
  H   2.17842510654946      0.01882623513238      0.99432244250306
  H   1.31360812272531     -1.34862353770298      0.26273508369390
  H   2.26302669912704     -0.23331402938906     -0.74255063949057
  C   -1.23225816777484     -1.20040741357509      0.11122661707704
  N   -1.51611002177639     -2.33171177265972      0.26016348259887
  C   -1.94296400254419      1.11088516426928     -0.25816725557591
  N   -2.81814251221939      1.87997329846254     -0.41426667712584
