11
Coordinates from ORCA-job run
  C   0.49745267604232     -0.04395627511448     -0.52377290646630
  C   -0.80795385239457     -0.27027345255098     -0.25439999388596
  H   0.84027416965175     -0.27236649873625     -1.53136249862959
  C   1.49153374174478      0.49195742032765      0.44712556097955
  H   1.92548940098488      1.42012303759174      0.06392442930882
  H   1.05015736802725      0.68810584275262      1.42472512730973
  H   2.31645876441004     -0.21641398277929      0.56850388740165
  C   -1.69581363336102     -0.78905135667631     -1.25579705612863
  N   -2.41758519378818     -1.21457655664434     -2.08036471381893
  C   -1.37381641860744     -0.00664281121596      1.03866772947938
  N   -1.82519702270981      0.21409463304561      2.10175043445028
