11
Coordinates from ORCA-job run
  C   0.38783496994960      0.59053272191000      0.15452226346101
  C   -0.85524486979143      0.17198077737526     -0.17425295982508
  H   0.52429530451872      1.65929447584897      0.30904202007467
  C   1.57393676928946     -0.29508654149987      0.32029093530592
  H   2.36644697647625      0.00731882717584     -0.37061564509545
  H   1.33516558348791     -1.34425080880426      0.14416764183152
  H   1.97855467604166     -0.19090501979976      1.33157228140500
  C   -1.15479455577724     -1.21369723098802     -0.40316344876840
  N   -1.38639810988247     -2.35160835955744     -0.58745456518937
  C   -1.94193346040544      1.10016822578476     -0.30867971925421
  N   -2.82786328390702      1.86525293255451     -0.41642880394562
