11
Coordinates from ORCA-job run
  C   0.53210258037947     -0.27811177099118     -0.40341765081517
  C   -0.81380261448167     -0.20305989363310     -0.29574001099616
  H   0.92941980847735     -0.85262722536363     -1.23821506979893
  C   1.50291311186732      0.36192818399121      0.52725375901740
  H   2.15124132109670     -0.39873755153596      0.97222965264362
  H   1.00757588951587      0.91329975654573      1.32670189451800
  H   2.15210428142525      1.04853155136631     -0.02419783878690
  C   -1.45202423851359      0.52718648217975      0.76331316561533
  N   -1.96238259741101      1.12891215808550      1.63505811072632
  C   -1.67384070733810     -0.85474087147344     -1.24250629128676
  N   -2.37330683501757     -1.39058081917118     -2.02047972083674
