11
Coordinates from ORCA-job run
  C   0.36949694009536      0.61455042784435      0.09167451603238
  C   -0.87334754364219      0.12401285806884     -0.11688294353085
  H   0.46598475936750      1.69565308666441      0.17290790119685
  C   1.60515877545571     -0.20736966347747      0.21710920439367
  H   2.08004579595905     -0.02360198864907      1.18544942348895
  H   2.32765617228011      0.08465451868143     -0.55082067074153
  H   1.40344463948946     -1.27453690411022      0.12183252703582
  C   -2.00847473502464      0.99601165909334     -0.22524300242686
  N   -2.93374879334213      1.71570842264664     -0.31308312807489
  C   -1.12331335651332     -1.28456722045232     -0.24103381902957
  N   -1.31390265412490     -2.44051519630992     -0.34091000834396
