11
Coordinates from ORCA-job run
  C   0.53483296741546     -0.26468249318283     -0.40840705054856
  C   -0.81156176335750     -0.22124973358631     -0.29005084190989
  H   0.93863750597531     -0.82882600775796     -1.24706949762629
  C   1.49793462971190      0.39550237026120      0.51620728706139
  H   2.12844571320647      1.09652891357035     -0.03887276316909
  H   2.16560368360534     -0.35122948165309      0.95634963354911
  H   0.99610375082429      0.93511270649149      1.31966372501609
  C   -1.45806581115926      0.49211607791116      0.77542088474440
  N   -1.97439505408211      1.07979500184540      1.65321401934621
  C   -1.66304689852516     -0.89083428808577     -1.23203699608594
  N   -2.35448872361474     -1.44223306581366     -2.00641840037741
