11
Coordinates from ORCA-job run
  C   0.41564287765492      0.55904309416723     -0.19338810485007
  C   -0.86984844822985      0.14679000687324     -0.11520217321576
  H   0.58948208103654      1.56189464097074     -0.57885197610947
  C   1.60073489121298     -0.25032437613651      0.20495116245991
  H   2.27406914630089     -0.37245004299514     -0.64863896640264
  H   2.16606179622628      0.27190572529606      0.98280840026358
  H   1.32194257536802     -1.23666324086023      0.57646130828313
  C   -1.22154314123252     -1.15550407858773      0.37717000833835
  N   -1.49565750077012     -2.22477616448690      0.78205235114592
  C   -1.95012191772497      0.99909412659808     -0.52396486459722
  N   -2.82976235984215      1.70199030916115     -0.86139714531570
