11
Coordinates from ORCA-job run
  C   0.38913806513354      0.59826279649308      0.11914042300479
  C   -0.86655030253494      0.15830027119954     -0.12233887765865
  H   0.52042447076470      1.67153307093749      0.24352531570175
  C   1.59480174023474     -0.26958623144997      0.22557631973851
  H   2.06445980818593     -0.13969640036595      1.20508299082294
  H   2.33579168251204      0.02599296355864     -0.52323213992626
  H   1.35785413217371     -1.32478742434897      0.08761953716729
  C   -1.97125779276314      1.07085472050375     -0.20814386971214
  N   -2.87228451665632      1.82284036151306     -0.27566689022576
  C   -1.16211682325453     -1.23532540938184     -0.30312841518955
  N   -1.39126046379571     -2.37938871865884     -0.44843439372294
