11
Coordinates from ORCA-job run
  C   0.53610063412647     -0.23422824980114     -0.42477773302825
  C   -0.81016916573904     -0.21364658570911     -0.29934152769148
  H   0.94262008411681     -0.74377320863292     -1.29642769681572
  C   1.49537981859821      0.38350136981701      0.53241128756008
  H   2.17559183258271     -0.37833843082092      0.92475329645124
  H   0.99101026545661      0.86799615456982      1.36889571181054
  H   2.11316278064820      1.12449939309818      0.01630792251667
  C   -1.46035587149196      0.42762305765980      0.80887034094416
  N   -1.97972251946608      0.95567817453803      1.72210801959203
  C   -1.65751125927295     -0.83808129127966     -1.27546614387825
  N   -2.34510659955898     -1.35223038343909     -2.07833347746102
