18

C	-0.33414	-0.12172	-1.495865
C	0.0	0.0	0.0
F	-1.606259	-0.614957	-1.660168
H	1.094665	0.0	0.0
N	-0.344908	1.26574	-2.119721
O	0.755316	1.744702	-2.367774
O	-1.428188	1.819875	-2.273432
N	0.558195	-0.917131	-2.27487
H	0.555075	-1.84631	-1.867829
H	1.499423	-0.549378	-2.128498
N	-0.386747	-1.225859	0.702901
H	0.372286	-1.894183	0.670183
H	-1.221186	-1.633791	0.304886
C	-0.5961	1.219871	0.676785
H	-1.687278	1.226025	0.5904
H	-0.328336	1.179002	1.732892
H	-0.202455	2.14822	0.257307
Br	3.554841	0.0	0.0
