18

C	-0.468612	-0.094654	-1.450209
C	0.0	0.0	0.0
F	-1.824991	-0.434699	-1.462736
H	1.09112	0.0	0.0
N	-0.461643	1.248432	-2.207861
O	-1.255819	1.357981	-3.139982
O	0.400686	2.061357	-1.899317
N	0.280625	-0.975107	-2.234171
H	0.942795	-1.531777	-1.714935
H	-0.264285	-1.470985	-2.920227
N	-0.367667	-1.241596	0.696537
H	0.391415	-1.906948	0.638426
H	-1.205767	-1.653416	0.305991
C	-0.581305	1.18549	0.752285
H	-0.213479	2.135627	0.369204
H	-0.279318	1.085123	1.794799
H	-1.675781	1.169219	0.711399
Br	3.558013	0.0	0.0
