18

C	-0.307544	-0.131514	-1.502917
C	0.0	0.0	0.0
F	-1.576665	-0.635114	-1.727509
H	1.09563	0.0	0.0
N	-0.399866	1.283029	-2.145245
O	0.648853	1.749914	-2.577937
O	-1.485745	1.855486	-2.134968
N	0.645099	-0.945111	-2.121637
H	1.583686	-0.740845	-1.776734
H	0.61763	-0.885017	-3.130279
N	-0.425012	-1.204415	0.70889
H	0.213658	-1.954353	0.468386
H	-1.346509	-1.475783	0.382452
C	-0.569993	1.239953	0.658698
H	-1.658297	1.285926	0.555082
H	-0.317065	1.191248	1.718428
H	-0.139416	2.152925	0.242329
Br	3.563567	0.0	0.0
