18

C	-0.529588	0.015696	-1.430397
C	0.0	0.0	0.0
F	-0.006667	1.100163	-2.085573
H	1.093003	0.0	0.0
N	0.020544	-1.215225	-2.164606
O	-0.748701	-2.143155	-2.413194
O	1.209493	-1.176269	-2.438561
N	-1.937656	-0.006681	-1.608048
H	-2.245846	-0.967824	-1.666932
H	-2.394425	0.460152	-0.838199
N	-0.448798	-1.245812	0.622702
H	0.323798	-1.646427	1.141427
H	-1.211214	-1.078412	1.268733
C	-0.436831	1.256804	0.744569
H	-0.144146	2.157609	0.203098
H	-1.520922	1.281958	0.918402
H	0.058626	1.270412	1.717145
Br	3.621675	0.0	0.0
