18

C	-0.275312	-0.014398	-1.494726
C	0.0	0.0	0.0
F	-0.014457	-1.272737	-2.012509
H	1.098061	0.0	0.0
N	-1.751576	0.159357	-1.869731
O	-2.599908	0.056392	-0.986627
O	-1.992458	0.348137	-3.061469
N	0.443378	0.999562	-2.146879
H	0.385257	0.879177	-3.149811
H	1.413619	0.956362	-1.838435
N	-0.48653	-1.209047	0.643889
H	-1.29302	-1.000357	1.215059
H	0.246908	-1.580092	1.231288
C	-0.428266	1.299327	0.676224
H	-1.513211	1.345142	0.797237
H	0.041321	1.340648	1.662218
H	-0.098024	2.169636	0.107564
Br	3.543832	0.0	0.0
