18

C	-0.462223	-0.00957	-1.448385
C	0.0	0.0	0.0
F	0.151528	1.024174	-2.145423
H	1.0916	0.0	0.0
N	0.001068	-1.252799	-2.215118
O	0.847399	-1.979263	-1.713632
O	-0.501536	-1.399767	-3.331056
N	-1.868791	0.020227	-1.59479
H	-2.104019	-0.040565	-2.57845
H	-2.221144	0.886917	-1.209947
N	-0.47634	-1.152154	0.753748
H	-1.400856	-1.415131	0.431769
H	0.155793	-1.924636	0.591047
C	-0.46852	1.28697	0.673548
H	-1.547955	1.269804	0.8644
H	-0.208251	2.16939	0.08512
H	0.035423	1.353473	1.637644
Br	3.630021	0.0	0.0
