18

C	-0.456398	0.008042	-1.464854
C	0.0	0.0	0.0
F	0.194032	1.009295	-2.131798
H	1.09382	0.0	0.0
N	0.042112	-1.287658	-2.132991
O	1.207707	-1.311043	-2.490253
O	-0.757619	-2.227276	-2.21683
N	-1.851358	0.098482	-1.69035
H	-2.215799	-0.761529	-2.072354
H	-2.350074	0.358722	-0.854027
N	-0.454737	-1.171672	0.733824
H	-1.402478	-1.423835	0.476716
H	0.150039	-1.958519	0.533119
C	-0.467041	1.276149	0.688313
H	-0.189951	2.158966	0.11008
H	-1.550639	1.28323	0.862228
H	0.022033	1.323911	1.661307
Br	3.561349	0.0	0.0
