15

C	-0.591871	0.007683	-1.395045
C	0.0	0.0	0.0
F	0.183785	0.67357	-2.288932
H	1.092664	0.0	0.0
H	-1.60747	0.399103	-1.459635
N	-0.697352	-1.418574	-1.865186
O	0.310812	-1.942303	-2.315019
O	-1.803412	-1.94216	-1.755784
N	-0.331426	-1.172639	0.746459
H	-1.165168	-1.072784	1.308753
H	0.458465	-1.38086	1.339495
N	-0.419119	1.260594	0.672561
O	-0.637447	2.250516	-0.032743
O	-0.483979	1.265404	1.903291
F	2.491873	0.0	0.0
