15

C	-0.502043	-0.028935	-1.413806
C	0.0	0.0	0.0
F	0.132452	-0.978159	-2.139026
H	1.092635	0.0	0.0
H	-0.418997	0.934421	-1.914638
N	-1.98383	-0.380947	-1.437101
O	-2.387732	-1.208653	-2.243159
O	-2.680694	0.239665	-0.636282
N	-0.435866	-1.13913	0.740542
H	-1.258277	-0.927118	1.291732
H	0.315966	-1.403098	1.363743
N	-0.377271	1.304872	0.625262
O	-0.253511	2.324569	-0.05535
O	-0.72773	1.303141	1.80635
F	2.510657	0.0	0.0
