15

C	-0.524653	0.041992	-1.405674
C	0.0	0.0	0.0
F	0.110048	-0.853661	-2.195407
H	1.10001	0.0	0.0
H	-0.46825	1.033887	-1.851117
N	-2.000256	-0.332035	-1.415565
O	-2.698399	0.306846	-0.629655
O	-2.396959	-1.196928	-2.184274
N	-0.42441	-1.176551	0.688525
H	0.341709	-1.474862	1.27788
H	-1.230324	-0.992047	1.272301
N	-0.371318	1.269957	0.696508
O	-0.721423	1.205295	1.875848
O	-0.241602	2.324803	0.073805
F	2.507144	0.0	0.0
