15

C	-0.613009	-0.140574	-1.363332
C	0.0	0.0	0.0
F	-1.985553	-0.160891	-1.301222
H	1.092619	0.0	0.0
H	-0.264533	-1.076572	-1.795705
N	-0.222621	0.924769	-2.362084
O	0.949168	0.8923	-2.711639
O	-1.089337	1.684102	-2.777353
N	-0.386929	-1.142265	0.776194
H	-1.259001	-0.976625	1.263537
H	0.34111	-1.293306	1.462285
N	-0.430703	1.295745	0.61605
O	-0.844412	1.290011	1.778051
O	-0.295791	2.311164	-0.065586
F	2.506572	0.0	0.0
