15

C	-0.641256	-0.102246	-1.353282
C	0.0	0.0	0.0
F	-2.013298	-0.031827	-1.27161
H	1.095936	0.0	0.0
H	-0.363428	-1.060004	-1.79084
N	-0.195002	0.934218	-2.360302
O	0.963384	0.80798	-2.73881
O	-1.008849	1.760804	-2.756174
N	-0.382043	-1.15318	0.764277
H	0.372094	-1.335152	1.414131
H	-1.225761	-0.976327	1.296171
N	-0.411682	1.287378	0.645222
O	-0.274484	2.31205	-0.022106
O	-0.812103	1.265572	1.812631
F	2.505794	0.0	0.0
