15

C	-0.621573	-0.09192	-1.363342
C	0.0	0.0	0.0
F	-1.993846	-0.130887	-1.289502
H	1.09028	0.0	0.0
H	-0.264446	-1.006079	-1.835417
N	-0.249434	1.017086	-2.319516
O	0.912287	0.993486	-2.70165
O	-1.119059	1.803376	-2.672012
N	-0.381936	-1.170498	0.735924
H	0.367825	-1.369167	1.387164
H	-1.234451	-1.014251	1.256803
N	-0.437374	1.273205	0.660581
O	-0.897279	1.222473	1.804037
O	-0.265725	2.315401	0.029973
F	2.508144	0.0	0.0
