14

C	0.0	0.0	0.0
C	-0.620802	0.111549	-1.375309
F	1.387226	0.0	0.0
H	-0.444383	1.112574	-1.780102
H	-1.737149	0.014674	-1.132786
C	-0.491631	1.136406	0.869949
H	-0.159769	2.083984	0.434115
H	-1.590291	1.07151	0.877319
H	-0.084164	1.039685	1.879176
C	-0.363685	-1.304121	0.608575
N	-0.506881	-2.351989	1.119436
C	-0.154163	-0.888238	-2.319348
N	0.208325	-1.681665	-3.107166
H	-3.077724	0.0	0.0
