14

C	0.0	0.0	0.0
C	-0.624759	-0.046866	-1.377635
F	1.387544	0.0	0.0
H	-1.740549	-0.117485	-1.120604
H	-0.452111	0.902703	-1.893225
C	-0.491577	1.227576	0.736644
H	-1.590486	1.163219	0.75209
H	-0.083415	1.244773	1.749675
H	-0.162044	2.120109	0.19679
C	-0.36313	-1.229539	0.747896
N	-0.529438	-2.239157	1.323746
C	-0.159521	-1.147025	-2.202215
N	0.197668	-2.028052	-2.893526
H	-3.078503	0.0	0.0
