14

C	0.0	0.0	0.0
C	-0.611974	-0.023203	-1.38603
F	1.387379	0.0	0.0
H	-0.434021	0.935907	-1.881779
H	-1.725829	-0.103803	-1.149528
C	-0.498391	1.212166	0.75504
H	-1.597592	1.143469	0.761068
H	-0.167986	2.115076	0.233301
H	-0.097692	1.212714	1.771143
C	-0.364952	-1.246448	0.717634
N	-0.538614	-2.267718	1.270098
C	-0.126113	-1.106612	-2.223291
N	0.254162	-1.972697	-2.920897
H	-3.092469	0.0	0.0
