16
Coordinates from ORCA-job run
  C   1.01988012764103     -0.23260735619906     -0.38592003403626
  C   -0.46385849313858      0.04152062664731     -0.16701721654906
  Cl  1.43953420291080      0.12040151936875     -2.15481496274668
  H   -1.01845026910800     -0.62294844696121     -0.84368610434609
  H   1.62380405030971      0.49098603892236      0.16608110899099
  N   1.38903523835184     -1.54680969226819     -0.00038388795748
  H   2.38182572434004     -1.70130518696256     -0.11895674161419
  H   0.88857698853068     -2.23538920227621     -0.54987749374308
  C   -0.83402542608727      1.48647547820837     -0.48983252453598
  H   -0.25389867442752      2.17572835548342      0.13241511571234
  H   -0.65254331674286      1.73660746230927     -1.53446366646439
  H   -1.89175647953807      1.65827543064168     -0.27674518571847
  C   -0.83692290201641     -0.28919263349728      1.27909658488187
  H   -0.64379100851705     -1.33298581199063      1.52098128890773
  H   -0.25449260112029      0.32621137417993      1.97223416785232
  H   -1.89491716138806     -0.07496795560594      1.45088955136641
