16
Coordinates from ORCA-job run
  C   0.85484838274005     -0.39252275020564     -0.64670057013081
  C   -0.10984084004082      0.41359896999444      0.21813597710981
  Cl  -0.02804024233750     -1.51448584216977     -1.74101644406792
  H   0.54340887522208      1.03803670176006      0.84733181182471
  H   1.36937736775556      0.29133353927698     -1.33442565075492
  N   1.74090611369165     -1.18748267390862      0.17356023988061
  H   2.41522921403725     -1.67209073950647     -0.40657476324214
  H   2.24569221614099     -0.57321316252804      0.80328551535080
  C   -0.95539675807351     -0.46594317184673      1.13267848303044
  H   -1.67385538420099     -1.04595815513225      0.55003100645909
  H   -0.33388119720089     -1.16319953077704      1.69443123404795
  H   -1.51446659459810      0.15545764155764      1.83710997556090
  C   -0.97058219025970      1.34955438487144     -0.62373785211611
  H   -0.36018876075980      1.98246024619840     -1.27452241171650
  H   -1.65952286387066      0.78148058247110     -1.25211250381587
  H   -1.56268733824560      2.00297395994449      0.02152595257996
