16
Coordinates from ORCA-job run
  C   0.71137768139718     -0.59087649081900     -0.78404962237918
  C   -0.59330271780991      0.04437789170155     -0.31137697123581
  Cl  0.43674713702161     -2.29427037052927     -1.28452532818507
  H   -1.30139117602836     -0.07028151140281     -1.14047439140079
  H   1.02622040776831     -0.09497332560138     -1.71220829169894
  N   1.71550903621412     -0.59180151364526      0.25806798134464
  H   1.96397248253289      0.36608664381440      0.47831395935564
  H   2.55158553603715     -1.05998296616011     -0.07056649513103
  C   -0.38067850905825      1.54093404962837     -0.07167641389110
  H   0.21795058040709      1.71982078045085      0.82616231366775
  H   0.11124719548485      2.02454617240512     -0.92137299444066
  H   -1.34173869549054      2.03753567322152      0.08054578178665
  C   -1.16888039362673     -0.63175940285259      0.92780831911149
  H   -1.38724284762653     -1.68409408771914      0.74299793180975
  H   -2.09883048932433     -0.13894680780036      1.22359158000340
  H   -0.46354522789854     -0.57431473469188      1.75776264128326
