16
Coordinates from ORCA-job run
  C   0.77473096429741     -0.42135292681762     -0.81266346782183
  C   -0.57904667219011      0.08231144909566     -0.32276352514321
  Cl  0.54531678972706     -2.11641064971890     -1.52942229187452
  H   -1.29160755579858     -0.10601845100398     -1.13254224367632
  H   1.09763124174773      0.16334246671561     -1.67501614562520
  N   1.77706369487020     -0.36911362492341      0.18706134666130
  H   1.57675532808477     -1.00854395338131      0.94507033456311
  H   2.68804824561504     -0.59357546589875     -0.19055227455422
  C   -0.49955077439169      1.58888270940012     -0.08041099471816
  H   0.22727096435004      1.81346036218948      0.70196211723944
  H   -1.47474410505846      1.97550796596550      0.22693377295762
  H   -0.19923528076865      2.12250449404280     -0.98662657770783
  C   -1.06099666437061     -0.64997812301501      0.92583548683878
  H   -1.05808281374150     -1.73295036603179      0.78715121794864
  H   -0.44144702117223     -0.40025276770928      1.79184026417258
  H   -2.08310634120041     -0.34681311890912      1.16414298073981
