16
Coordinates from ORCA-job run
  C   1.01396983763997     -0.27024662738221     -0.56865163093285
  C   -0.44104234688934      0.04345510871413     -0.20320588725653
  Cl  1.22526065278709     -0.07076396827559     -2.35111347181669
  H   -1.07235208324158     -0.63520072311723     -0.79245140110981
  H   1.66999223041833      0.47682489806777     -0.11126828091827
  N   1.50974863459407     -1.57241698606145     -0.21206182396301
  H   1.68868539914293     -1.62399504392277      0.78188737573673
  H   0.84904602143414     -2.29454549923211     -0.47292533483065
  C   -0.81934921367586      1.48493825523354     -0.53390249571776
  H   -1.85150743607613      1.68575198468872     -0.23631877962362
  H   -0.17465541366837      2.18260268134389      0.01107398287307
  H   -0.72590887003796      1.69761591038722     -1.59828319646484
  C   -0.66941405767781     -0.23069747572289      1.28360066954857
  H   -1.68885889323130      0.04127710595902      1.56673901399284
  H   0.01290491443713      0.36743112946717      1.89765162640797
  H   -0.52651937595531     -1.28203075014720      1.53822963407484
