16
Coordinates from ORCA-job run
  C   0.88907743252283     -0.34586926499902     -0.74913616184889
  C   -0.06642001518692      0.41738936375055      0.17706728641854
  Cl  -0.04442044515617     -1.41783446233790     -1.85124677168019
  H   0.60210518406392      1.05180889427401      0.77855447404052
  H   1.38717600658038      0.37559363070193     -1.40272875394101
  N   1.91562368223618     -1.14444397420069     -0.12353258986520
  H   1.50618413312471     -1.83424447793593      0.49383301894349
  H   2.52889833720178     -0.54434955806562      0.41607777189957
  C   -0.84287201882858     -0.48481608067885      1.12989649290853
  H   -1.45121545284026      0.12159889982543      1.80517891757517
  H   -1.51152763652501     -1.15013391109980      0.58007047154600
  H   -0.18294627817979     -1.09572350279359      1.75046043555054
  C   -1.00204354521077      1.33603717272858     -0.60349885466490
  H   -0.44972488742687      1.95341870000586     -1.31796115835591
  H   -1.74181805555350      0.75759691756256     -1.15984896040151
  H   -1.53507644082194      2.00497165326247      0.07681438187525
