16

C	0.0	0.0	0.0
C	-0.429791	0.187139	-1.466271
Br	1.959041	0.0	0.0
H	0.181472	0.997275	-1.877187
H	-0.27522	0.905634	0.54437
C	-0.569251	-1.226639	0.678328
H	-0.266986	-2.137936	0.15733
H	-1.662229	-1.15632	0.680387
H	-0.226617	-1.285072	1.712711
C	-1.90191	0.577435	-1.617171
H	-2.144207	0.684663	-2.677213
H	-2.606908	-0.124242	-1.175321
H	-2.083095	1.534893	-1.124443
C	-0.107863	-1.006961	-2.251922
N	0.149775	-1.931062	-2.929224
Cl	-4.814692	0.0	0.0
