16

C	0.0	0.0	0.0
C	-0.581873	0.210518	-1.400979
Br	1.955958	0.0	0.0
H	-1.66389	0.326695	-1.207683
H	-0.267763	0.866585	0.606332
C	-0.507104	-1.265388	0.664068
H	-0.184667	-1.294013	1.70716
H	-1.600453	-1.245326	0.626084
H	-0.125397	-2.158288	0.165059
C	-0.377302	-0.96191	-2.36045
H	-0.78076	-0.710707	-3.343192
H	-0.918112	-1.83417	-1.992535
H	0.682261	-1.206316	-2.468694
C	-0.089184	1.452671	-1.995637
N	0.302526	2.438075	-2.501489
Cl	-3.745299	0.0	0.0
