16

C	0.0	0.0	0.0
C	-0.419616	0.163637	-1.476955
Br	1.957051	0.0	0.0
H	0.268169	0.884796	-1.930381
H	-0.267288	0.92287	0.519555
C	-0.59701	-1.197827	0.701435
H	-0.273078	-1.234926	1.743006
H	-1.688639	-1.103852	0.678501
H	-0.305121	-2.127435	0.209556
C	-1.84385	0.698256	-1.637423
H	-2.611681	0.100004	-1.146831
H	-2.089558	0.776785	-2.698655
H	-1.899171	1.698159	-1.200443
C	-0.222125	-1.094356	-2.204147
N	-0.084178	-2.082708	-2.823747
Cl	-4.733473	0.0	0.0
