16

C	-0.626504	0.057954	-1.561021
C	0.183735	0.117285	-0.252715
Cl	-0.025481	-1.241142	-2.616759
H	1.248784	0.118585	-0.503956
H	-0.057259	1.100222	0.186486
C	-2.101792	-0.140713	-1.327669
H	-2.199589	-1.09543	-0.813221
H	-2.490148	0.654944	-0.690359
H	-2.656543	-0.15	-2.266918
N	-0.370293	1.372702	-2.282065
O	-1.282398	2.202717	-2.28635
O	0.75469	1.569264	-2.72868
N	-0.113422	-1.009673	0.589023
H	-0.625754	-0.694955	1.405099
H	0.836013	-1.360641	0.948666
H	2.273302	-1.546597	1.389261
