16

C	-0.4105	0.108616	-1.403646
C	-0.014506	0.040595	0.055262
Cl	-0.000163	1.707355	-2.068111
H	1.084225	0.078682	0.06544
H	-0.316594	-0.946658	0.41279
C	0.287535	-0.964124	-2.206569
H	-0.054396	-1.943576	-1.866797
H	1.364465	-0.867504	-1.984492
H	0.083424	-0.848396	-3.274056
N	-1.934088	-0.073309	-1.498693
O	-2.643225	0.779017	-2.016471
O	-2.340773	-1.135648	-1.032131
N	-0.727478	1.057474	0.836964
H	-0.611352	0.829795	1.817282
H	-0.259166	1.94536	0.694226
H	2.981024	-0.430861	-0.62295
