16

C	-0.373662	0.024828	-1.432951
C	0.015563	0.078694	0.026183
Cl	-0.035997	1.580531	-2.226748
H	1.105192	0.171359	0.014534
H	-0.191015	-0.91338	0.445913
C	0.364626	-1.085938	-2.144463
H	1.432238	-0.963731	-1.891232
H	0.187348	-1.043866	-3.219922
H	0.026114	-2.05139	-1.754254
N	-1.88004	-0.222113	-1.595877
O	-2.509865	-0.559074	-0.592051
O	-2.357685	-0.153613	-2.723394
N	-0.633062	1.162623	0.751449
H	0.024969	1.550171	1.413384
H	-1.434217	0.811205	1.256309
H	2.982944	-0.386661	-0.482765
