16

C	-0.589455	-0.00731	-1.416293
C	0.0	0.0	0.0
Br	-0.158075	-1.585556	-2.505657
H	1.090044	0.0	0.0
N	-2.031034	0.102746	-1.350855
H	-2.409245	0.257253	-2.279006
H	-2.215965	0.925041	-0.78217
C	0.036492	1.116514	-2.140655
N	0.424747	2.045934	-2.747725
N	-0.518193	-1.163526	0.780025
O	-0.147976	-2.282253	0.441038
O	-1.272594	-0.949495	1.738237
N	-0.423908	1.254226	0.600306
H	-1.03045	1.055614	1.386914
H	0.422357	1.691022	0.948477
F	2.520927	0.0	0.0
