16

C	-0.144767	0.126173	-1.518826
C	0.0	0.0	0.0
Br	-1.976095	0.768604	-2.082314
H	1.104803	0.0	0.0
N	0.82952	1.113867	-1.886868
H	1.700408	0.860141	-1.374971
H	0.987505	1.097493	-2.88771
C	0.031835	-1.128929	-2.261636
N	0.280946	-2.04305	-2.959176
N	-0.592024	-1.242341	0.56512
O	-1.292562	-1.956895	-0.158299
O	-0.342657	-1.475381	1.743674
N	-0.422266	1.132887	0.759652
H	0.378799	1.730403	0.908873
H	-1.149066	1.651205	0.279929
F	2.589753	0.0	0.0
