16

C	-0.596132	-0.060842	-1.411638
C	0.0	0.0	0.0
Br	0.161862	-1.543854	-2.463826
H	1.095831	0.0	0.0
N	-2.047468	-0.122346	-1.511498
H	-2.396597	0.670187	-0.975904
H	-2.33879	-0.979761	-1.053082
C	-0.149836	1.154742	-2.107238
N	0.159493	2.124844	-2.693003
N	-0.473427	-1.10341	0.857532
O	-0.946542	-2.122816	0.339491
O	-0.353058	-0.956895	2.078417
N	-0.386293	1.278836	0.579904
H	-0.947209	1.139408	1.410531
H	0.476686	1.725263	0.870744
F	2.493264	0.0	0.0
