16

C	-0.513547	0.001337	-1.411318
C	0.0	0.0	0.0
Br	-2.730643	-0.228525	-1.221882
H	1.093628	0.0	0.0
N	-0.229297	1.194227	-2.019659
H	-0.621169	1.323693	-2.938888
H	-0.336404	1.965302	-1.370172
C	-0.230618	-1.130083	-2.280458
N	0.002264	-1.937491	-3.103518
N	-0.407903	-1.229863	0.727341
O	-0.304685	-2.29938	0.132182
O	-0.7612	-1.113474	1.902541
N	-0.377398	1.210824	0.658314
H	0.354867	1.438844	1.319189
H	-1.255309	1.102136	1.152387
F	2.475326	0.0	0.0
