16

C	-0.018153	-0.034424	-1.572373
C	0.0	0.0	0.0
Br	-0.422228	2.230135	-2.174487
H	1.092819	0.0	0.0
N	1.180685	-0.441973	-1.984421
H	2.024491	-0.281477	-1.272787
H	1.318384	-0.640152	-2.964536
C	-1.184064	-0.52315	-2.2806
N	-2.136667	-0.99323	-2.789819
N	-0.530363	-1.347204	0.398401
O	0.206846	-2.320353	0.255601
O	-1.693934	-1.39243	0.799378
N	-0.622747	1.005888	0.767187
H	-1.555759	1.2071	0.431082
H	-0.064865	1.844	0.680003
F	2.71423	0.0	0.0
