16

C	-0.113471	-0.160737	-1.543205
C	0.0	0.0	0.0
Br	-0.048025	1.791712	-2.349518
H	1.09594	0.0	0.0
N	0.962862	-0.940023	-1.924464
H	1.826237	-0.682096	-1.381183
H	1.079129	-1.056162	-2.920582
C	-1.389317	-0.623825	-2.082401
N	-2.407103	-1.042521	-2.495861
N	-0.480953	-1.330878	0.569019
O	-1.668155	-1.388163	0.916047
O	0.312524	-2.257753	0.669116
N	-0.648929	1.097889	0.602052
H	-1.621394	0.890029	0.792046
H	-0.165141	1.345393	1.453999
F	2.638252	0.0	0.0
