16

C	-0.262272	0.073769	-1.49797
C	0.0	0.0	0.0
Br	-2.197089	0.401219	-1.86146
H	1.099175	0.0	0.0
N	0.506021	1.181193	-2.037902
H	1.464999	0.95802	-1.739469
H	0.235705	1.977162	-1.463858
C	0.105425	-1.126631	-2.251339
N	0.44152	-2.011934	-2.946446
N	-0.592008	-1.168586	0.68446
O	-0.750627	-2.209632	0.047157
O	-0.889785	-1.03933	1.875184
N	-0.325676	1.245769	0.64022
H	0.471199	1.492165	1.213853
H	-1.121773	1.138739	1.25586
F	2.524703	0.0	0.0
