16

C	-0.141778	-0.014886	-1.526704
C	0.0	0.0	0.0
Br	-2.023092	0.499532	-2.096178
H	1.108502	0.0	0.0
N	0.782893	0.989927	-1.978101
H	1.662318	0.801035	-1.45851
H	0.941796	0.893598	-2.973924
C	0.078012	-1.291112	-2.220733
N	0.332791	-2.186801	-2.941324
N	-0.594884	-1.188211	0.677938
O	-0.742515	-2.216925	0.012863
O	-0.850286	-1.09931	1.873553
N	-0.406982	1.212934	0.622258
H	0.39897	1.816081	0.700414
H	-1.133708	1.683449	0.098988
F	2.572537	0.0	0.0
