16

C	-0.121733	0.049952	-1.552651
C	0.0	0.0	0.0
Br	-1.898963	0.868328	-2.130612
H	1.094425	0.0	0.0
N	0.954144	0.877978	-1.973673
H	1.793725	0.631097	-1.390546
H	1.1318	0.783778	-2.965126
C	-0.161545	-1.259074	-2.217855
N	-0.157985	-2.25146	-2.850921
N	-0.635025	-1.234878	0.523359
O	-1.745413	-1.131758	1.046189
O	-0.022128	-2.291896	0.374354
N	-0.44161	1.140135	0.719951
H	0.276814	1.846748	0.649467
H	-1.325173	1.498289	0.381018
F	2.626466	0.0	0.0
