16

C	-0.604467	-0.024028	-1.400377
C	0.0	0.0	0.0
Br	0.424962	-1.309416	-2.591351
H	1.107789	0.0	0.0
N	-2.008818	-0.285697	-1.408479
H	-2.154397	-1.235708	-1.087127
H	-2.382406	-0.189456	-2.344753
C	-0.364916	1.274138	-2.038552
N	-0.242592	2.278868	-2.636641
N	-0.414399	-1.20142	0.783877
O	-0.307465	-1.12185	2.008945
O	-0.793598	-2.224171	0.199363
N	-0.376029	1.216217	0.652219
H	0.336146	1.445498	1.332762
H	-1.282062	1.158345	1.100235
F	2.494718	0.0	0.0
