11

C	-0.528349	0.009488	-1.427675
C	0.0	0.0	0.0
Cl	0.013863	-1.479355	-2.292767
H	1.090206	0.0	0.0
H	-0.383673	-0.887786	0.50951
H	-0.359365	0.899545	0.510214
C	-1.99777	0.009679	-1.468553
N	-3.173214	0.01272	-1.458779
C	-0.056336	1.174379	-2.188213
N	0.298311	2.092888	-2.828153
H	2.869641	0.0	0.0
