15

C	-0.244791	-0.02417	-1.48943
C	0.0	0.0	0.0
Cl	-2.006625	-0.067112	-1.910944
H	1.095321	0.0	0.0
H	0.125587	0.922429	-1.878369
C	0.499274	-1.191449	-2.106147
H	1.528061	-1.112459	-1.741766
H	0.465881	-1.140138	-3.195767
H	0.068159	-2.142001	-1.784675
C	-0.524782	-1.151906	0.698128
N	-0.905214	-2.1357	1.216901
N	-0.446342	1.258302	0.635482
O	-0.808006	1.21776	1.811201
O	-0.360336	2.286938	-0.034052
F	2.492282	0.0	0.0
