14

C	0.0	0.0	0.0
C	-0.463018	0.201688	-1.470738
Cl	1.773215	0.0	0.0
H	0.168192	1.005802	-1.856805
H	-0.173721	-0.720826	-1.985966
N	-0.424137	1.197348	0.853544
O	-0.766166	0.975209	2.00576
O	-0.336178	2.288893	0.307126
C	-0.48126	-1.228718	0.610462
N	-0.78323	-2.284085	1.030439
N	-1.829657	0.505918	-1.716987
H	-2.100735	1.395888	-1.32199
H	-2.508938	-0.162975	-1.359652
Br	-4.594332	0.0	0.0
