14

C	0.0	0.0	0.0
C	-0.481125	0.204151	-1.462059
Cl	1.773363	0.0	0.0
H	-0.159645	-0.698772	-1.9939
H	0.111917	1.038408	-1.844108
N	-0.420082	1.189865	0.866683
O	-0.711818	0.961073	2.031861
O	-0.373906	2.283721	0.319706
C	-0.484312	-1.231423	0.603905
N	-0.808777	-2.285771	1.007854
N	-1.863983	0.455528	-1.682449
H	-2.517123	-0.230202	-1.309344
H	-2.162722	1.343386	-1.303597
Br	-4.672931	0.0	0.0
