14

C	0.0	0.0	0.0
C	-0.577299	0.162832	-1.407824
Cl	1.769628	0.0	0.0
H	0.143093	0.73403	-1.995718
H	-1.49989	0.73187	-1.296652
N	-0.359105	1.232236	0.851555
O	-0.513467	1.065326	2.051137
O	-0.368292	2.295694	0.247784
C	-0.440597	-1.202436	0.698081
N	-0.682414	-2.175501	1.310543
N	-0.784525	-1.158508	-1.982274
H	-1.702771	-1.458305	-1.658336
H	-0.836443	-1.067262	-2.990186
Br	-3.587557	0.0	0.0
