14

C	0.0	0.0	0.0
C	-0.575785	-0.091349	-1.408751
Cl	1.774625	0.0	0.0
H	0.052695	0.517497	-2.060037
H	-1.58154	0.333912	-1.350549
N	-0.373857	1.353128	0.623008
O	-0.397971	2.296756	-0.15464
O	-0.530566	1.393978	1.833399
C	-0.439616	-1.073764	0.887229
N	-0.61962	-2.009637	1.573796
N	-0.570434	-1.487435	-1.824792
H	-0.512564	-1.526303	-2.833343
H	-1.470927	-1.879445	-1.557735
Br	-3.64668	0.0	0.0
