14

C	0.0	0.0	0.0
C	-0.541225	-0.11435	-1.424184
Cl	1.763246	0.0	0.0
H	-1.540635	0.322499	-1.406882
H	0.114839	0.474938	-2.067141
N	-0.387159	1.356087	0.597563
O	-0.447819	2.282814	-0.19911
O	-0.504112	1.423169	1.811134
C	-0.445945	-1.063926	0.891798
N	-0.692434	-1.962346	1.607381
N	-0.523518	-1.518278	-1.810829
H	-0.45608	-1.583401	-2.818383
H	-1.421561	-1.910109	-1.538817
Br	-3.576998	0.0	0.0
