16

C	0.0	0.0	0.0
C	-0.407236	0.237248	-1.473343
Cl	1.803842	0.0	0.0
H	0.136108	1.145431	-1.785623
H	-0.281926	0.885642	0.5749
C	-0.5703	-1.250861	0.622046
H	-1.661689	-1.164592	0.629744
H	-0.284256	-2.127047	0.041705
H	-0.226615	-1.363162	1.652917
N	-1.803238	0.484134	-1.717302
H	-2.408269	-0.249875	-1.359342
H	-2.128491	1.325692	-1.258713
N	-0.045825	-0.934004	-2.265442
H	0.958973	-0.9879	-2.378093
H	-0.472353	-0.803758	-3.174935
Br	-4.660303	0.0	0.0
