16

C	0.0	0.0	0.0
C	-0.536525	-0.082142	-1.418802
Cl	1.80783	0.0	0.0
H	-1.62529	-0.055803	-1.28967
H	-0.27891	0.979384	0.387994
C	-0.514046	-1.106328	0.88948
H	-0.20086	-2.076602	0.505939
H	-0.150867	-0.979163	1.912465
H	-1.60669	-1.048732	0.882669
N	-0.193585	-1.369287	-2.017506
H	0.775447	-1.3566	-2.316884
H	-0.775839	-1.519135	-2.832622
N	-0.157148	1.121042	-2.156867
H	0.822712	1.066215	-2.41361
H	-0.703884	1.169229	-3.008061
Br	-4.066267	0.0	0.0
