16

C	0.0	0.0	0.0
C	-0.569193	-0.438437	-1.351215
Cl	1.792117	0.0	0.0
H	-1.646255	-0.25795	-1.255303
H	-0.306505	1.034562	0.166028
C	-0.457981	-0.883749	1.147747
H	-1.546846	-0.975272	1.127237
H	0.009886	-1.866676	1.055179
H	-0.154828	-0.454476	2.104909
N	-0.257448	-1.847008	-1.60355
H	-0.490141	-1.997298	-2.579167
H	-0.902468	-2.412818	-1.061277
N	-0.098966	0.323938	-2.495927
H	-0.534675	1.237725	-2.479506
H	0.905852	0.446726	-2.429261
Br	-3.951085	0.0	0.0
