16

C	0.0	0.0	0.0
C	-0.499945	0.012399	-1.485354
Cl	1.798098	0.0	0.0
H	0.390176	0.017408	-2.122534
H	-0.274251	0.954653	0.448718
C	-0.509687	-1.139937	0.853136
H	-1.601469	-1.102694	0.870271
H	-0.134615	-1.042548	1.874532
H	-0.183057	-2.106143	0.461051
N	-1.194047	1.273777	-1.691383
H	-2.048049	1.242074	-1.132717
H	-1.510528	1.275674	-2.656494
N	-1.314117	-1.116421	-1.920106
H	-0.852382	-1.997086	-1.719264
H	-2.203748	-1.092356	-1.421702
Br	-4.101736	0.0	0.0
