16

C	0.0	0.0	0.0
C	-0.338761	0.012952	-1.519795
Cl	1.792719	0.0	0.0
H	0.347845	-0.711736	-1.978282
H	-0.315883	0.938457	0.459174
C	-0.605084	-1.176789	0.725192
H	-1.698615	-1.04795	0.710068
H	-0.2611	-1.204266	1.762546
H	-0.330768	-2.119048	0.240429
C	0.034127	1.31617	-2.080068
N	0.333242	2.353427	-2.542296
C	-1.769912	-0.366401	-1.904862
H	-1.915459	-0.174956	-2.975183
H	-2.552047	0.134289	-1.31017
H	-1.923531	-1.432595	-1.725052
H	-3.946798	0.0	0.0
