16

C	-0.48333	-0.067236	-1.441962
C	0.0	0.0	0.0
Br	-0.111146	1.85186	-2.114347
H	1.088467	0.0	0.0
H	-0.409266	0.860023	0.526429
C	0.349598	-0.96702	-2.325747
H	1.405073	-0.743616	-2.155727
H	0.090517	-0.824482	-3.379057
H	0.157988	-1.998995	-2.031134
N	-1.866233	-0.349063	-1.529351
H	-2.192395	-0.320803	-2.488773
H	-2.411259	0.294241	-0.968625
N	-0.449423	-1.184514	0.74431
O	-0.087755	-2.29502	0.347528
O	-1.12941	-1.003192	1.764573
H	2.734402	0.0	0.0
