16

C	-0.527734	-0.099338	-1.424508
C	0.0	0.0	0.0
Br	0.030152	1.671221	-2.251091
H	1.086339	0.0	0.0
H	-0.40897	0.879395	0.49526
C	0.16944	-1.160571	-2.255423
H	1.250739	-1.052087	-2.150379
H	-0.122968	-2.143577	-1.881981
H	-0.120384	-1.065666	-3.306044
N	-1.953716	-0.163185	-1.448432
H	-2.303591	-0.720977	-2.214413
H	-2.343094	-0.463148	-0.565585
N	-0.454745	-1.154306	0.781413
O	-0.006697	-2.269981	0.49333
O	-1.246989	-0.954929	1.719567
H	2.711531	0.0	0.0
