16

C	-0.504336	-0.088313	-1.444697
C	0.0	0.0	0.0
Br	-0.329906	1.779478	-2.116618
H	1.092273	0.0	0.0
H	-0.34804	0.889673	0.521489
C	0.379941	-0.962731	-2.311945
H	1.423516	-0.676516	-2.165435
H	0.265208	-1.998672	-1.986942
H	0.082457	-0.869301	-3.357681
N	-1.900558	-0.442859	-1.629598
H	-2.469763	0.127164	-1.01041
H	-1.985243	-1.407425	-1.320457
N	-0.40488	-1.13278	0.814034
O	-0.461179	-0.960023	2.038862
O	-0.572978	-2.242044	0.274533
H	2.629091	0.0	0.0
