16

C	-0.539238	0.071961	-1.417059
C	0.0	0.0	0.0
Br	0.33285	1.523515	-2.439039
H	1.092837	0.0	0.0
H	-0.28922	-0.956839	0.441573
C	-0.15113	-1.229287	-2.099047
H	-0.43999	-1.195715	-3.149951
H	-0.673962	-2.062628	-1.613507
H	0.92613	-1.384718	-2.000269
N	-1.974513	0.30261	-1.552682
H	-2.182758	1.196256	-1.117465
H	-2.441012	-0.415769	-1.002085
N	-0.501276	1.007797	0.913029
O	-0.766115	2.141254	0.483107
O	-0.572456	0.700134	2.112554
H	2.61418	0.0	0.0
