16

C	-0.325714	-0.085575	-1.461181
C	0.0	0.0	0.0
Br	-2.519792	0.006486	-1.584388
H	1.092007	0.0	0.0
H	-0.399157	0.901737	0.455898
C	0.10566	1.198297	-2.129936
H	1.184884	1.29617	-1.947566
H	-0.418619	2.057208	-1.71381
H	-0.09801	1.154182	-3.20229
N	0.129147	-1.203826	-2.115124
H	0.698786	-1.03518	-2.926335
H	0.421122	-1.961719	-1.519194
N	-0.428811	-1.118233	0.827018
O	-0.879888	-0.867504	1.948534
O	-0.226511	-2.267407	0.409607
H	2.640585	0.0	0.0
