15
Coordinates from ORCA-job run
  C   -0.29024738252913      0.11064703645616     -0.23635847937850
  C   1.09764791576100     -0.52078913009698     -0.39327313335262
  F   -1.08673225103611     -0.43590234269188     -1.25112901849922
  H   1.47648862140932     -0.29338777250016     -1.39383064959674
  H   1.78997999079868     -0.08472191243145      0.33299195493499
  C   -0.93889196783262     -0.23852228230022      1.08684967689156
  H   -1.04483299300834     -1.31987708838710      1.18552508664360
  H   -1.93206450102517      0.21126668723591      1.13678262867832
  H   -0.34365461062748      0.13571516160919      1.92305384135113
  C   -0.21870380625805      1.60555632621763     -0.47838674782820
  H   -1.22369454283741      2.03000661148505     -0.44358192520419
  H   0.39363737654599      2.09796742240866      0.28041616369476
  H   0.20541071074696      1.81052626488105     -1.46368369479322
  C   1.07235804038105     -1.97145851970616     -0.21886084713304
  N   1.04429939951132     -3.13402646217968     -0.06651485640862
