17
Coordinates from ORCA-job run
  C   -0.76832597849980      0.24983367043592     -0.54558940682472
  C   0.71826749399344      0.36911948001617     -0.17941261151295
  F   -1.02178730654879      1.12938304322749     -1.58921821066430
  H   1.24542293023511      0.23539122523946     -1.13131092429317
  C   -1.18894350065180     -1.13349276113122     -1.00955878827922
  H   -1.17177414171960     -1.85669193880389     -0.19457213781097
  H   -0.51824222798889     -1.46592349992337     -1.80529614080677
  H   -2.20312869744878     -1.07815818024972     -1.40756578783911
  C   -1.57977276631250      0.67332342857801      0.61233645328662
  N   -2.18517312646062      0.96574187427594      1.57486548718895
  C   1.15655982423073     -0.70888396229269      0.81075009409817
  H   0.56125644828955     -0.65363611477129      1.72783144147087
  H   2.20142144959297     -0.54250159376604      1.08163010070225
  H   1.07281858956411     -1.71858412223371      0.40388064827185
  N   0.96651177918417      1.73285351184194      0.27088987003072
  H   1.93344497296696      1.98487504534388      0.11382878905038
  H   0.78144425757373      1.81535089421313      1.26451112393140
