17
Coordinates from ORCA-job run
  C   -0.67920551473490     -0.30967826349674     -0.39242428154530
  C   0.51039438949781      0.36885608416344      0.30437020357802
  F   -0.40456251758884     -1.68298597613522     -0.43177934807792
  H   0.26476774004378      1.43569105623195      0.36847313878383
  C   -1.99884744996754     -0.11542341831616      0.32597952362641
  H   -1.88519344443641     -0.45055765807820      1.35489291725858
  H   -2.27945047149421      0.93985529297968      0.31997331579621
  H   -2.77710387670563     -0.69167406827079     -0.17659329903951
  C   -0.78343199854999      0.15497354894193     -1.78799996744609
  N   -0.88258112328058      0.55838818909323     -2.88612043345226
  C   1.80468544402980      0.19444743747717     -0.48939254245053
  H   1.75220609102657      0.66095765011506     -1.47584670350898
  H   2.63347282861428      0.65048386136055      0.05725710706111
  H   2.02427723172022     -0.86757544829399     -0.62126010733233
  N   0.56577835502696     -0.15040429064435      1.66842114354615
  H   1.21220148463161      0.40494296641980      2.21530882197161
  H   0.92259283216708     -1.09929696354738      1.64574051123098
