17
Coordinates from ORCA-job run
  C   -0.66118224654133     -0.30423856470142     -0.42558490972625
  C   0.50066412497212      0.36534580349479      0.32470306539252
  F   -0.42225944268019     -1.68467356710740     -0.40718503598559
  H   0.28158366621982      1.43969363809420      0.33833107247614
  C   -2.01752014869668     -0.05433259191668      0.20135190134643
  H   -1.97907251394892     -0.36262919229897      1.24416040440319
  H   -2.77855855542300     -0.62358700657786     -0.33456415735568
  H   -2.26671017660847      1.00756327244736      0.14920689095394
  C   -0.66508819530585      0.11966918774919     -1.83801328187046
  N   -0.68458423368956      0.49170593339129     -2.95135974632132
  C   1.83705817833881      0.13028028664545     -0.37851790343796
  H   2.64222719526567      0.58258311056032      0.20530023225777
  H   1.86037486898043      0.56443268018298     -1.38071722231167
  H   2.03432807946556     -0.94095973675410     -0.46186331797754
  N   0.45447919917337     -0.10878012314766      1.70514117045109
  H   1.08170146616114      0.44638890211763      2.27412579988263
  H   0.78355873431712     -1.06746203217911      1.73548503782276
