17
Coordinates from ORCA-job run
  C   -0.60417352420263      0.11613093423000     -0.69335979065561
  C   0.76907499197411      0.46266385918616     -0.06894745453965
  F   -0.37878756572407     -0.28351396552511     -2.01208762867619
  H   1.22152648666442      1.17405040355504     -0.76960819313513
  C   -1.37012564775057     -0.99132364218502      0.00378838607075
  H   -2.32723218416853     -1.14576301954999     -0.49628033591801
  H   -1.56287766842036     -0.73839520272926      1.04761051257178
  H   -0.79877650796749     -1.91834830925359     -0.04636586569808
  C   -1.41504521001185      1.34787206675477     -0.74098809635210
  N   -2.03155790224789      2.34745062982183     -0.74736426267450
  C   1.66253378465632     -0.76496726630658      0.02272152105869
  H   1.32953784571147     -1.43821480410795      0.81747136171521
  H   1.67790171835032     -1.31492472563277     -0.91923438177269
  H   2.67665478826539     -0.44512950885502      0.26409942805040
  N   0.69640810719339      1.11372029563898      1.22545670671983
  H   0.16519780163242      1.97497747138926      1.18992933233341
  H   0.29174068604554      0.50471478356920      1.92515876090186
