17
Coordinates from ORCA-job run
  C   -0.75635208883259      0.24523907646400     -0.43941043095725
  C   0.73670927614143      0.30317307918133     -0.11714254595329
  F   -0.99796665023770      1.24808298761759     -1.38943671990989
  H   1.23982495156416      0.07231170342968     -1.07170443205451
  C   -1.21526855784557     -1.06742697761187     -1.04469248499197
  H   -2.24089544189039     -0.95530809230272     -1.39884915691839
  H   -1.18623190349974     -1.87342870374686     -0.31140443228078
  H   -0.57502279643647     -1.32132286749393     -1.89206495187752
  C   -1.55468162278699      0.56960405888821      0.75611928228532
  N   -2.21953021476285      0.74990277455294      1.70647440741010
  C   1.13894467188776     -0.72342046768665      0.92972713032802
  H   2.20556887991724     -0.62599224813410      1.14845494862501
  H   0.58928263105151     -0.55302512270108      1.85796689196287
  H   0.96828859829582     -1.74535677019768      0.58798455892088
  N   1.02502554620669      1.64012709948727      0.38034276388540
  H   2.00167432269758      1.71108364609875      0.63799719508755
  H   0.84063039853020      2.32575682415510     -0.34136202356155
