17
Coordinates from ORCA-job run
  C   -0.73614603835117      0.23498634660131     -0.43292094219568
  C   0.78256783791423      0.31474192173992     -0.18842105220883
  F   -1.04390432838711      1.24424739468852     -1.35432986716372
  H   1.23057065273998      0.13740205556539     -1.17454693401998
  C   -1.21841240925048     -1.07728111582060     -1.01798887375059
  H   -1.14679334198397     -1.88583816498601     -0.29044400573476
  H   -0.61431735772696     -1.32317699662327     -1.89417859404716
  H   -2.25981287768607     -0.97426347876429     -1.32670770209690
  C   -1.45019050550822      0.55318051433488      0.81636769313038
  N   -1.97258688229657      0.76434727915577      1.84671771035353
  C   1.26443523421683     -0.74676627479199      0.78767902934039
  H   0.76606904897140     -0.64278556375335      1.75644871894905
  H   1.09114736056911     -1.75800505520412      0.41729188378616
  H   2.33573556371777     -0.61383407599267      0.94270988554199
  N   1.22314869511900      1.62389553336936      0.25830478600500
  H   0.89797517441117      1.80383501839812      1.20217757381215
  H   0.84951417353108      2.34531466208300     -0.34615930970100
