10
Coordinates from ORCA-job run
  C   0.93456706627006      0.11963053885990      0.46546589556657
  C   -0.26521863483011     -0.25329536203997     -0.05995817970597
  H   1.60768394311830     -0.63288662149633      0.86674746289996
  C   1.34966953082850      1.47518330371350      0.52204159393772
  N   1.71854638982571      2.59232415773217      0.57414138101406
  C   -1.15725427219566      0.73938632679924     -0.59473768025022
  N   -1.90302435654759      1.52289093432378     -1.05772440105659
  N   -0.76186410543463     -1.53787200126667     -0.05455592564915
  H   -0.08887344093190     -2.27009907874597      0.11195294531427
  H   -1.43423212010268     -1.75626219787965     -0.77237309207066
