10
Coordinates from ORCA-job run
  C   0.73943053174630      0.81301238201658     -0.06154372894206
  C   -0.33181934099346      0.00175504194718     -0.29722526669430
  H   0.95917511298708      1.63754372804344     -0.72706161492251
  C   1.56354689846095      0.57972095269432      1.06933631068710
  N   2.21353762556331      0.33202306618892      2.02054556871776
  C   -1.14086557193179      0.25082552985618     -1.45883844761146
  N   -1.80158015725296      0.43427456913132     -2.41461180158279
  N   -0.76998310586618     -1.00267843391997      0.52690775522895
  H   -1.30672815716170     -1.74012598473287      0.10026769643144
  H   -0.12571383555155     -1.30535085122510      1.24322352868788
