10
Coordinates from ORCA-job run
  C   0.67562430908862      0.86870641924666     -0.03277515652932
  C   -0.25716677486048     -0.07287877624812     -0.35699555476063
  H   0.86127080784393      1.70656839838713     -0.69192877051564
  C   1.41369289400286      0.74126950804410      1.17211249804011
  N   1.98868479604177      0.58515302022415      2.18875007821503
  C   -1.00421396387238      0.08881483440535     -1.57438261334154
  N   -1.63433212368624      0.21943975527482     -2.55901823984660
  N   -0.50429329183568     -1.22596352249724      0.34247681561070
  H   -0.12432712803759     -1.27187009349558      1.27702927308575
  H   -1.41593952468480     -1.63923954334127      0.23373167004214
