10
Coordinates from ORCA-job run
  C   0.77498390046954      0.77442531952528     -0.10918374127018
  C   -0.34612532055182      0.01566042800195     -0.28056364151270
  H   1.00398057018608      1.57766579292681     -0.79718319443295
  C   1.64024221474716      0.51295404987639      0.98412922776933
  N   2.32297829427229      0.24276752730281      1.90578341837118
  C   -1.19591386579200      0.28815814204453     -1.40763586491355
  N   -1.88945293822574      0.48976509013351     -2.33599686448192
  N   -0.79301895516291     -0.95428221320775      0.57929564889132
  H   -1.38716604877770     -1.66901793049131      0.19204728109687
  H   -0.13150785116490     -1.27809620611222      1.27030773048259
