10
Coordinates from ORCA-job run
  C   0.94988335256221      0.13191886571979      0.42654468143282
  C   -0.22980665706432     -0.26407359216208     -0.12664828901114
  H   1.63210915687205     -0.60779430028062      0.83528344514581
  C   1.34105343429871      1.49431746217068      0.48634350011165
  N   1.68785694777370      2.61762556503437      0.55476896249173
  C   -1.13672653848047      0.71331481704370     -0.66495417303926
  N   -1.90772744711736      1.48940236225214     -1.09797659743153
  N   -0.61654944215584     -1.57420729231936     -0.30217143298451
  H   -0.11220042040083     -2.25932754499397      0.23911586836293
  H   -1.60889238628786     -1.74117634246465     -0.35130596507850
