10
Coordinates from ORCA-job run
  C   0.93648876835415      0.11785424325540      0.46031477944044
  C   -0.26302800267465     -0.25538281767258     -0.06557158110582
  H   1.62158444823656     -0.63665295732207      0.83651248382999
  C   1.33466583087053      1.47651154027142      0.55139450467237
  N   1.68906582395493      2.59648109240998      0.63345806148810
  C   -1.16970430570379      0.74106253827141     -0.56778444120534
  N   -1.92338652570777      1.53183253137450     -1.00498697296428
  N   -0.74478005753991     -1.54542846520775     -0.08936697419627
  H   -0.06200250415143     -2.27330452925570      0.05461208156083
  H   -1.41890347563861     -1.75397317612460     -0.80858194152003
