10
Coordinates from ORCA-job run
  C   0.92392786958549      0.12340983576351      0.48303735516641
  C   -0.26178115100627     -0.25582067716839     -0.06925504176211
  H   1.59673254930378     -0.62637385548731      0.88970301559212
  C   1.32350452497503      1.48239657907460      0.56412531950056
  N   1.68110879505654      2.60187631060560      0.63918610942153
  C   -1.15270493932041      0.73483440135410     -0.60985082977091
  N   -1.89507124963428      1.51996943338175     -1.07557713137254
  N   -0.74547364508728     -1.54520446399550     -0.08690434618872
  H   -0.06847485588798     -2.27229206518124      0.08522373416807
  H   -1.40176789798460     -1.76279549834711     -0.81968818475441
