10
Coordinates from ORCA-job run
  C   0.40877996005805      0.87644444237774      0.52731075022042
  C   -0.42594907565907      0.01997243960586     -0.12952209418686
  H   0.03376334652351      1.81040643538428      0.92496886945475
  C   1.77846794854111      0.54144681569785      0.68408676178996
  N   2.90262485116552      0.20399210838044      0.78827066304123
  C   -1.81338194378451      0.37372276700795     -0.25783177708763
  N   -2.95444588331965      0.64187119989044     -0.35563532661550
  N   -0.04787395369085     -1.13625492246838     -0.76189419807795
  H   -0.75430930482804     -1.84327419563139     -0.88222012786230
  H   0.87232405499392     -1.48732709024478     -0.53853352067611
