10
Coordinates from ORCA-job run
  C   0.97279111988463      0.13065929731494      0.37424627688593
  C   -0.23455415473020     -0.26223462505724     -0.11805117617873
  H   1.68765246474859     -0.61293242157972      0.71530172943991
  C   1.35359034953394      1.49522042981247      0.45023786136510
  N   1.69215876476298      2.62035645898923      0.52920436406708
  C   -1.18181437405599      0.71949785113921     -0.57182375469097
  N   -1.98620800676106      1.49609368359659     -0.93824938967939
  N   -0.61855955073446     -1.57064572120977     -0.31053456912990
  H   -1.61019195520830     -1.74811202675980     -0.30603742585244
  H   -0.07486465744014     -2.26690292624591      0.17570608377342
