10
Coordinates from ORCA-job run
  C   0.78836665410019      0.76806194527089     -0.04649647875976
  C   -0.31631599965530      0.01320080983623     -0.31399008713673
  H   1.09059848112530      1.55709076409107     -0.72264383783309
  C   1.53957564919862      0.52062031267918      1.13129885461047
  N   2.12521495557559      0.26115692730317      2.12035497497463
  C   -1.05118736216417      0.27115603050315     -1.52200221097996
  N   -1.65140760984560      0.46037518458803     -2.51591083201527
  N   -0.85299449202307     -0.93812581273971      0.51539254609117
  H   -0.26182237862492     -1.25571374692542      1.27029632396404
  H   -1.41002789768664     -1.65682241460659      0.08270074708449
