10
Coordinates from ORCA-job run
  C   0.81335029226614      0.73469566130014     -0.11632373237046
  C   -0.32446771334133      0.00565259823382     -0.30529968521125
  H   1.12112540573876      1.47043250608866     -0.84766323426290
  C   1.59055919364229      0.53243858762113      1.05323149102624
  N   2.19430283498039      0.31230990469086      2.04087750400130
  C   -1.08649480077768      0.21621868012247     -1.50571676541870
  N   -1.71136885145104      0.36443693093776     -2.49134078951777
  N   -0.86796585023479     -0.87351195878329      0.59592853169620
  H   -0.26534925098406     -1.16586253875270      1.35189449787040
  H   -1.46369125983868     -1.59581037145884      0.22541218218694
