10
Coordinates from ORCA-job run
  C   0.62902559324243      0.86416649319286      0.26484004143171
  C   -0.41899400000886      0.08331078566784     -0.12711071217769
  H   0.55013519699335      1.94304897353278      0.23717339938751
  C   1.82594698048965      0.25575883822724      0.72313244105617
  N   2.79495590041162     -0.30785509610896      1.08641487917218
  C   -1.61513360726831      0.72363729228193     -0.60199253629659
  N   -2.59413863596480      1.23481531768320     -1.00691318755508
  N   -0.47400506811772     -1.28383362797761     -0.03644428876632
  H   -1.10136219624573     -1.75743707029267     -0.66586326021750
  H   0.40356983646838     -1.75661190620662      0.12576322396561
