10
Coordinates from ORCA-job run
  C   0.88037024768465      0.15827961870304      0.54889117835952
  C   -0.20701773279793     -0.27224229350734     -0.14882537279072
  H   1.50343612838802     -0.55742392728961      1.07780728893676
  C   1.24822723168119      1.52707021915672      0.61226383488173
  N   1.57071738496166      2.65707604733671      0.68775856130822
  C   -1.03391364751927      0.67384922473372     -0.84782429215887
  N   -1.73819225251530      1.42564199918499     -1.41617574968851
  N   -0.55811237396372     -1.59252465303242     -0.32344366626150
  H   -0.13401613124431     -2.24886736826042      0.31381227288799
  H   -1.53249885467500     -1.77185886702539     -0.50626405547462
