10
Coordinates from ORCA-job run
  C   0.57660107835280      0.88618770014254      0.31123683235530
  C   -0.41275880435644      0.06917345548315     -0.15301500268652
  H   0.45876777059493      1.96149350012645      0.28296294008133
  C   1.76346176307696      0.31967629535628      0.84349461868044
  N   2.72801526091758     -0.20975491591379      1.26546957823272
  C   -1.59827072686795      0.66629442418314     -0.70449313789369
  N   -2.56839774860468      1.13935272455033     -1.17224708702152
  N   -0.42147696973919     -1.29969236333593     -0.07261754558991
  H   0.46145593128687     -1.73970249542398      0.14362014865428
  H   -0.98739755466088     -1.79202832516819     -0.74441134481243
