10
Coordinates from ORCA-job run
  C   0.89611528190978      0.13522935433356      0.52855796316940
  C   -0.22305933475739     -0.26566386762313     -0.13581665122795
  H   1.50472741864719     -0.59509139235295      1.05422666784287
  C   1.31957202249225      1.48899561576037      0.55401348147730
  N   1.69000218617605      2.60601158830332      0.59552302280344
  C   -1.03161738474240      0.69912888355224     -0.83049039431374
  N   -1.72145048262836      1.46843642908177     -1.39352205222597
  N   -0.62494809562985     -1.57441494816233     -0.28225333120136
  H   -0.20088186898598     -2.24005552500055      0.34555693862657
  H   -1.60945974248129     -1.72357613789228     -0.43579564495056
