10
Coordinates from ORCA-job run
  C   0.33595267798947      0.97182561088774      0.39439411205106
  C   -0.40113069874198     -0.01375733081998     -0.19472253634971
  H   -0.01088049759270      1.99689082090241      0.38410107892601
  C   1.55982881904394      0.64669367320724      1.03412886476985
  N   2.56991349514744      0.31557896394257      1.54258689894444
  C   -1.62824283005680      0.34336333809052     -0.85263564818522
  N   -2.62648336872512      0.62447102821300     -1.40783359850742
  N   -0.11959501342684     -1.35521272309822     -0.15275149790161
  H   0.81023514477865     -1.60711962608416      0.15087240676674
  H   -0.49059772841606     -1.92173375524112     -0.89814008051412
