10
Coordinates from ORCA-job run
  C   0.89828995888945      0.12301063557838      0.52950206994159
  C   -0.27064304753300     -0.24719248087040     -0.06316310061236
  H   1.50015638852744     -0.61699200908909      1.04941733080238
  C   1.37027099616701      1.46071532532023      0.50729130658397
  N   1.78693542090447      2.56211687506659      0.49874657545847
  C   -1.06972535484686      0.72946279512698     -0.75221942048114
  N   -1.73860119439331      1.50092593736950     -1.33683004763404
  N   -0.82589821466849     -1.50546505462795      0.00994923537484
  H   -1.44643984074328     -1.76080028374917     -0.74143959688297
  H   -0.20434511230343     -2.24578174012504      0.29674564744924
