10
Coordinates from ORCA-job run
  C   0.54414658723105      0.92638612797195      0.23641384898143
  C   -0.34638387470248      0.03073523443148     -0.27994277782936
  H   0.43692066797470      1.98468022967322      0.03747034971812
  C   1.62557106129950      0.46462379448393      1.03009502592980
  N   2.49774786503307      0.02146327474915      1.68696056612528
  C   -1.44255741491152      0.52647601127808     -1.06668801415819
  N   -2.35220828407966      0.92470085964544     -1.69721755867972
  N   -0.25258141596707     -1.33395861350587     -0.18372192426083
  H   0.39864413077139     -1.68818280052464      0.50208669796134
  H   -1.10929932264898     -1.85692411820275     -0.26445621378786
