10
Coordinates from ORCA-job run
  C   0.97629729502328      0.11564906781004      0.37018537925755
  C   -0.26491074242648     -0.25626009102809     -0.04909104771306
  H   1.70216499740141     -0.64144723435832      0.65291299715388
  C   1.36675249953487      1.47590116745088      0.47068028325807
  N   1.71755599449863      2.59672154280298      0.55702087942971
  C   -1.22880810449879      0.74326660566174     -0.42227195546325
  N   -2.03501375308802      1.53437530443289     -0.75160122520349
  N   -0.73268681645261     -1.55178605054667     -0.07202786208857
  H   -0.03014336934251     -2.27384543009436     -0.02702359959984
  H   -1.47320800064979     -1.74357488213109     -0.72778384903099
