10
Coordinates from ORCA-job run
  C   0.84995325875422      0.69522437688890     -0.08105170258068
  C   -0.23561379393696     -0.07927800177114     -0.37009501449064
  H   1.27078003669149      1.35183700693782     -0.83121942079454
  C   1.43700464873900      0.62939691937716      1.20878850444363
  N   1.87451729194097      0.53580214406925      2.29889137033717
  C   -0.82250935288707      0.01916399896653     -1.67853329435789
  N   -1.32155957479236      0.10395593706296     -2.74031638313071
  N   -0.78800006480123     -1.02133661531987      0.45913036495220
  H   -0.50864797203073     -0.98121119384262      1.42883909889090
  H   -1.75592447767732     -1.25255457236900      0.30556647673055
