10
Coordinates from ORCA-job run
  C   0.57507546199732      0.90461418223258      0.25485741433422
  C   -0.37571538433219      0.05627693393440     -0.23305813910687
  H   0.45174599245070      1.97615037127368      0.16772776479125
  C   1.73845644043299      0.37561602048001      0.87087081551390
  N   2.67689681033368     -0.12483884175763      1.37828763069986
  C   -1.55414026912689      0.61561768075675     -0.83691530063392
  N   -2.53087491131570      1.05959958339206     -1.31908794441638
  N   -0.28049557948014     -1.31107862789213     -0.27414192059107
  H   -1.14462435100645     -1.82734175251754     -0.30337506303863
  H   0.44367579004668     -1.72561554990220      0.29483474244762
