10
Coordinates from ORCA-job run
  C   0.54843053184687      0.88976401782785      0.34693524676634
  C   -0.41342509943291      0.06227553509173     -0.15495900014309
  H   0.40147814763943      1.96183730414367      0.35273200183085
  C   1.74507076001997      0.33808605655665      0.87295020286821
  N   2.71840747358505     -0.17992530136094      1.28874220296807
  C   -1.60919980338115      0.64637086206432     -0.69807621945003
  N   -2.58469794604611      1.11289926573403     -1.16120852801324
  N   -0.38528607626332     -1.30841410530216     -0.12034899478592
  H   -0.92982322157230     -1.79223868949716     -0.81563505798740
  H   0.50804523360448     -1.73065494525799      0.08886814594622
