10
Coordinates from ORCA-job run
  C   0.88954580088212      0.13342388764651      0.54056206996883
  C   -0.22888488688358     -0.26520910827036     -0.12630145628665
  H   1.46092225933708     -0.58635975150419      1.11998238777025
  C   1.36226489648042      1.47060100552279      0.49898771386709
  N   1.77427302362329      2.57376369628559      0.48815170362393
  C   -0.98655682935994      0.68624876475627     -0.89318204132505
  N   -1.63502071382533      1.44372999886890     -1.51758405379319
  N   -0.67637972906988     -1.56513198058649     -0.20655421243881
  H   -1.66155867975010     -1.68561638821336     -0.37915449300642
  H   -0.29960514143408     -2.20445012450567      0.47609238162003
