10
Coordinates from ORCA-job run
  C   0.63952869231813      0.89347358604979      0.07950116303003
  C   -0.33486271391603      0.01418010366914     -0.29356876771632
  H   0.74676651076296      1.84234234896051     -0.42962721402088
  C   1.50788003299244      0.56652836528315      1.15282609806027
  N   2.20061334385784      0.23571270700810      2.04680838843256
  C   -1.19488301757062      0.36335625363883     -1.39109448051643
  N   -1.89759457747670      0.62942463309108     -2.29623761281233
  N   -0.63359282353310     -1.16356074403800      0.34236688041685
  H   -1.09150064522054     -1.87384846373761     -0.20515432257677
  H   0.05764519778564     -1.50760878992500      0.99317986770301
