10
Coordinates from ORCA-job run
  C   0.91523197040480      0.59891098298940     -0.13150995219248
  C   -0.31161325321751      0.03132957950812     -0.31704772396588
  H   1.34877700945351      1.23094962582284     -0.89539991235697
  C   1.62209983186362      0.36515971065522      1.07620543175342
  N   2.16129385194371      0.12765643799589      2.09673053754252
  C   -1.00064850359867      0.26992276138741     -1.55583985497644
  N   -1.56810715142445      0.44418999969758     -2.57135839307159
  N   -1.00342338253510     -0.69769135805240      0.61562428030140
  H   -1.68955103662091     -1.34815843271846      0.26909495416169
  H   -0.47405933626901     -1.02126930728561      1.41250063280433
