10
Coordinates from ORCA-job run
  C   0.88805084829980      0.16568028574383      0.53429779710693
  C   -0.21365740221804     -0.27366809963332     -0.13470365291737
  H   1.50662617954717     -0.53991914435670      1.08175094517760
  C   1.28063610941133      1.52896616156587      0.53868556465319
  N   1.62515810547220      2.65476022711407      0.56318874019934
  C   -1.03459790816151      0.65775954936128     -0.85998837521840
  N   -1.73542084822631      1.39724083195159     -1.44844111794675
  N   -0.58592451054971     -1.59430324764180     -0.25642930776138
  H   -0.16448264280228     -2.23264420214841      0.40059832524684
  H   -1.56538793077264     -1.76487236195639     -0.41995891854001
