10
Coordinates from ORCA-job run
  C   0.78925837431433      0.76812070375413      0.02023870497875
  C   -0.32110557546156      0.04530635956357     -0.30564955308219
  H   1.07974843678865      1.62514484464817     -0.57322144253471
  C   1.55990604134515      0.39954872332817      1.15283649247599
  N   2.16162398717098      0.03986189902000      2.09997822697154
  C   -1.07714703706590      0.42945372448050     -1.46622549738267
  N   -1.69621286829989      0.72278797826253     -2.42251634229892
  N   -0.84456540584021     -0.98841609069345      0.42786502833688
  H   -1.40960669052572     -1.65813685791296     -0.06823376939069
  H   -0.24189926242582     -1.38267128445066      1.13592815192603
