10
Coordinates from ORCA-job run
  C   0.67237872685967      0.86592897398632      0.11022385111581
  C   -0.36852020958030      0.05845804550193     -0.24462055257093
  H   0.66590272912949      1.91660955039680     -0.14882734069322
  C   1.77427831062664      0.32037635526224      0.81793724104054
  N   2.65448433871272     -0.19150927556989      1.41120159790818
  C   -1.48446114082837      0.63782981815319     -0.94094780865724
  N   -2.41201198075569      1.10316410112341     -1.49486909959517
  N   -0.42173943939218     -1.30012602786992     -0.06516109015416
  H   0.25784350616940     -1.69276632161576      0.57043400495576
  H   -1.33715484094137     -1.71696521936831     -0.01737080334955
