10
Coordinates from ORCA-job run
  C   0.96757428523264      0.12408257497025      0.38852240251450
  C   -0.23064165321570     -0.25973814036538     -0.13257583670653
  H   1.68524305852145     -0.62681876851131      0.70662724176541
  C   1.33397872921027      1.48768699190529      0.52607899077032
  N   1.66074380265761      2.61166368921511      0.65536278999706
  C   -1.18406748460111      0.73125337019511     -0.55259883735462
  N   -1.99168423522047      1.51747768873006     -0.88994824159146
  N   -0.59885920364016     -1.56275619001170     -0.38282735287802
  H   -0.05282765442085     -2.27302241883474      0.07956987513524
  H   -1.58845964452368     -1.75082879729269     -0.39821103165188
