15

C	-0.57411	-0.026656	-1.409738
C	0.0	0.0	0.0
Cl	0.11401	1.29425	-2.368114
H	1.09005	0.0	0.0
H	-0.320016	-0.90154	0.528516
N	-0.188347	-1.349252	-2.085032
O	0.257479	-2.241525	-1.370954
O	-0.437261	-1.441746	-3.283164
C	-2.089713	0.033363	-1.469437
H	-2.508593	-0.81555	-0.920179
H	-2.4361	0.959473	-1.010851
H	-2.422012	-0.005006	-2.506683
C	-0.505585	1.16607	0.713942
N	-0.944695	2.09426	1.283675
Cl	3.306841	0.0	0.0
