15

C	-0.578049	-0.040799	-1.407093
C	0.0	0.0	0.0
Cl	0.076432	1.339148	-2.314881
H	1.090093	0.0	0.0
H	-0.295174	0.965794	0.425175
N	-0.135132	-1.310528	-2.138615
O	-0.521441	-1.427653	-3.298111
O	0.519367	-2.130063	-1.508065
C	-2.092556	-0.01468	-1.461135
H	-2.4283	0.007702	-2.496696
H	-2.494425	-0.901809	-0.965324
H	-2.453255	0.875407	-0.942888
C	-0.554919	-1.051602	0.844562
N	-1.032486	-1.898644	1.502642
Cl	3.320327	0.0	0.0
