15

C	-0.59258	-0.016255	-1.401689
C	0.0	0.0	0.0
Cl	0.090582	1.351685	-2.310379
H	1.090094	0.0	0.0
H	-0.305255	0.944272	0.46409
N	-0.166466	-1.284527	-2.147887
O	-0.746513	-1.510764	-3.206324
O	0.713129	-1.969978	-1.64722
C	-2.10507	0.050308	-1.433591
H	-2.524404	-0.8328	-0.94541
H	-2.433277	0.943309	-0.898928
H	-2.45616	0.092814	-2.462124
C	-0.535323	-1.099238	0.795446
N	-1.015818	-1.980814	1.403957
Cl	3.368298	0.0	0.0
