13

C	0.0	0.0	0.0
C	-0.399946	-0.240383	-1.443593
Br	2.057234	0.0	0.0
H	-1.494652	-0.249762	-1.454043
H	-0.004867	-1.196942	-1.789652
H	-0.020609	0.545356	-2.101945
N	-0.467945	1.228518	0.453711
H	-0.261841	1.395619	1.426078
H	-0.268704	2.012596	-0.144274
N	-0.418907	-0.9917	0.943684
H	-1.442157	-0.93302	0.953027
H	-0.145339	-1.911622	0.620005
Cl	-3.798866	0.0	0.0
