13

C	0.0	0.0	0.0
C	-0.403758	-0.12499	-1.46269
Br	1.99582	0.0	0.0
H	-0.034791	0.728084	-2.034124
H	-0.001065	-1.045582	-1.890294
H	-1.495945	-0.154117	-1.493945
N	-0.45679	1.252351	0.516256
H	-1.45944	1.28922	0.316928
H	-0.356526	1.219783	1.526004
N	-0.41096	-1.097412	0.845781
H	-1.433701	-1.054176	0.851229
H	-0.135593	-1.979702	0.426727
Cl	-3.627742	0.0	0.0
