17

C	0.0	0.0	0.0
C	-0.430232	0.305231	-1.470237
Br	1.965438	0.0	0.0
H	0.483646	0.44396	-2.052839
H	-0.217055	0.871142	0.626691
N	-0.532006	-1.228894	0.512033
H	-0.391221	-1.256985	1.515736
H	-1.543368	-1.18257	0.360996
C	-1.201898	1.624373	-1.521545
H	-1.445271	1.869536	-2.560947
H	-0.594645	2.442414	-1.118519
H	-2.135371	1.543209	-0.963287
C	-1.207486	-0.830736	-2.133483
H	-2.203974	-0.927471	-1.701235
H	-1.325554	-0.597276	-3.19706
H	-0.674965	-1.779797	-2.045376
Cl	-3.961103	0.0	0.0
