17

C	0.0	0.0	0.0
C	-0.518447	-0.135734	-1.423512
Br	2.042456	0.0	0.0
H	-1.601311	-0.014673	-1.267226
H	-0.228892	0.994046	0.381369
N	-0.508535	-0.961632	0.866292
H	-0.445843	-0.734744	1.844843
H	-0.23624	-1.910916	0.670456
C	-0.270189	-1.512724	-2.022887
H	-0.671865	-1.551219	-3.038838
H	-0.782497	-2.291315	-1.452613
H	0.800051	-1.740223	-2.070559
C	-0.012437	0.973866	-2.337281
H	1.046121	0.846609	-2.579607
H	-0.583592	0.972056	-3.269851
H	-0.140164	1.9563	-1.873396
Cl	-4.015779	0.0	0.0
