17

C	0.0	0.0	0.0
C	-0.41784	0.072455	-1.503849
Br	1.963468	0.0	0.0
H	0.475081	-0.146585	-2.09807
H	-0.228928	0.950323	0.492807
N	-0.512028	-1.153093	0.683551
H	-1.522563	-1.153029	0.544111
H	-0.346072	-1.051262	1.678884
C	-0.86547	1.500183	-1.819157
H	-1.062892	1.613638	-2.889382
H	-0.086356	2.220713	-1.541235
H	-1.788298	1.730524	-1.279056
C	-1.476034	-0.947516	-1.915955
H	-2.432484	-0.762792	-1.4225
H	-1.139679	-1.966225	-1.713093
H	-1.645749	-0.858016	-2.994212
Cl	-4.228267	0.0	0.0
