17

C	0.0	0.0	0.0
C	-0.48413	-0.071688	-1.454016
Br	1.968483	0.0	0.0
H	-1.574019	-0.048542	-1.331658
H	-0.272248	0.977223	0.403437
N	-0.499204	-0.994441	0.903595
H	-1.507839	-0.822532	0.96088
H	-0.373539	-1.914329	0.496916
C	-0.106994	-1.361901	-2.172142
H	-0.456277	-2.24555	-1.63191
H	-0.581674	-1.38446	-3.15734
H	0.974847	-1.44412	-2.311474
C	-0.070955	1.15021	-2.267093
H	-0.315742	2.073626	-1.733637
H	1.001626	1.151047	-2.480631
H	-0.611119	1.165783	-3.218476
Cl	-3.662052	0.0	0.0
