17

C	-0.562492	0.031576	-1.440603
C	0.0	0.0	0.0
Cl	0.228922	-1.259754	-2.396453
H	1.098998	0.0	0.0
C	-2.068646	-0.196189	-1.462627
H	-2.555681	0.578688	-0.867511
H	-2.444167	-0.170585	-2.487064
H	-2.264982	-1.174677	-1.025445
C	-0.257782	1.312134	-2.084185
N	-0.091775	2.365904	-2.576435
N	-0.441892	-1.214685	0.655702
H	0.337866	-1.625176	1.151121
H	-1.188894	-0.996719	1.303647
N	-0.529202	1.178206	0.712521
H	-0.170389	2.014481	0.258096
H	-0.077271	1.164323	1.623285
Br	3.568691	0.0	0.0
