17

C	-0.508712	0.001268	-1.457041
C	0.0	0.0	0.0
Cl	0.082754	-1.482732	-2.303245
H	1.099934	0.0	0.0
C	-2.028533	0.03248	-1.552944
H	-2.38575	0.956859	-1.095704
H	-2.440049	-0.8236	-1.019244
H	-2.340589	0.005027	-2.598706
C	0.046274	1.154553	-2.169367
N	0.405929	2.081059	-2.79473
N	-0.551289	-1.160781	0.709313
H	-0.21801	-1.999073	0.241868
H	-0.093334	-1.164757	1.617153
N	-0.454674	1.234813	0.612683
H	-1.254178	1.043201	1.205099
H	0.295234	1.632735	1.163469
Br	3.549531	0.0	0.0
