17

C	-0.571931	-0.00881	-1.433307
C	0.0	0.0	0.0
Cl	0.10023	-1.40294	-2.342128
H	1.093256	0.0	0.0
C	-2.09065	-0.132288	-1.42178
H	-2.48016	-0.157861	-2.440759
H	-2.518918	0.72822	-0.901327
H	-2.355808	-1.058588	-0.911196
C	-0.188907	1.210411	-2.149793
N	0.077054	2.162661	-2.783808
N	-0.419107	-1.222097	0.684415
H	0.391748	-1.625833	1.137303
H	-1.110641	-1.019167	1.394508
N	-0.419464	1.259556	0.612748
H	-1.200577	1.127129	1.243096
H	0.358881	1.637573	1.137341
Br	3.52264	0.0	0.0
