17

C	-0.438036	0.033253	-1.467948
C	0.0	0.0	0.0
Cl	-2.248502	0.270083	-1.532788
H	1.096444	0.0	0.0
C	0.239378	1.163043	-2.221355
H	-0.063758	1.170231	-3.269639
H	-0.023131	2.103547	-1.740598
H	1.31988	1.013997	-2.141522
C	-0.179233	-1.249869	-2.120938
N	0.053999	-2.244031	-2.700098
N	-0.44991	-1.230711	0.62158
H	-1.39939	-1.137162	0.963283
H	0.161713	-1.451856	1.397091
N	-0.371183	1.264322	0.628821
H	0.296316	1.457372	1.365612
H	-1.299073	1.203797	1.031417
Br	3.522527	0.0	0.0
