17

C	-0.414244	-0.051317	-1.495552
C	0.0	0.0	0.0
Cl	-0.03409	1.525286	-2.287172
H	1.095556	0.0	0.0
C	0.346159	-1.147777	-2.226507
H	0.086854	-2.105322	-1.776969
H	0.09974	-1.148521	-3.290134
H	1.41447	-0.96494	-2.087518
C	-1.865994	-0.229231	-1.591095
N	-3.032866	-0.367364	-1.622918
N	-0.4513	-1.261773	0.576279
H	-1.34199	-1.102856	1.037601
H	0.215995	-1.514139	1.297706
N	-0.465739	1.159451	0.736775
H	-1.37058	1.469871	0.399662
H	0.19304	1.916961	0.611582
Br	3.568516	0.0	0.0
