17

C	-0.371122	0.012568	-1.49995
C	0.0	0.0	0.0
Cl	-2.175204	0.007813	-1.693054
H	1.102924	0.0	0.0
C	0.201273	1.237099	-2.191043
H	0.001921	1.212089	-3.263783
H	1.279703	1.25787	-2.012221
H	-0.265568	2.122292	-1.758553
C	0.101474	-1.220532	-2.134641
N	0.463061	-2.21571	-2.646497
N	-0.470545	-1.15919	0.721433
H	0.173349	-1.926868	0.584076
H	-1.392661	-1.433594	0.403149
N	-0.521734	1.216595	0.624316
H	-0.661809	0.974401	1.597179
H	0.213447	1.914465	0.606638
Br	3.577391	0.0	0.0
