17
Coordinates from ORCA-job run
  C   -0.66397939894678     -0.44146956683131      0.17488656644862
  C   0.69841416255948     -0.40624763900924     -0.53497463199760
  Br  -1.77763906731039     -1.75885877840534     -0.72597895231977
  H   1.18923841854122     -1.36943111095031     -0.38583297469653
  C   -1.37891804743240      0.88710619247096      0.22026411833033
  H   -0.79533153517044      1.61343633712979      0.78784310071840
  H   -2.34802473381586      0.77629421763827      0.70166607161060
  H   -1.54089518167923      1.24388738530179     -0.79844758143967
  N   -0.47903868758000     -1.01612337926998      1.58155220695357
  O   0.29381711097425     -1.95880780061890      1.68771983475989
  O   -1.14691028560461     -0.51921756933422      2.47703300206594
  N   1.61486306248233      0.59864429926839      0.21803207390794
  O   1.47834921434200      0.70154003850694      1.43309075196974
  O   2.44055891415950      1.19366016919825     -0.46520349307209
  N   0.59485199526169     -0.10382112421007     -1.91010050657848
  H   1.45902441534283     -0.30804836789823     -2.39087479917300
  H   0.36261964387641      0.86745669701317     -2.06967478748789
