17
Coordinates from ORCA-job run
  C   -0.68223272101463     -0.32482388807703      0.20874820338234
  C   0.70426774908537     -0.42835800234120     -0.44184705196557
  Br  -1.80302028368778     -1.67142566903849     -0.66508844188843
  H   1.13660272220447     -1.40429074543527     -0.19133946115592
  C   -1.33297607085012      1.02935668228211      0.09701038970454
  H   -0.78257700710092      1.75402612946114      0.69745147319615
  H   -1.31815648428459      1.32831387579296     -0.95055118626159
  H   -2.35801449244992      0.98973624770114      0.45918175955891
  N   -0.60045041773257     -0.79680318356446      1.65872644365729
  O   -1.31301508137752     -0.22110436373814      2.46852037984109
  O   0.14581157286207     -1.74052564199896      1.88852957676818
  N   1.65196034430483      0.56361813532330      0.21379453571865
  O   2.62400855788172      0.91268189941006     -0.44652708933110
  O   1.41721772553376      0.89097892437947      1.37233692361281
  N   0.64675897710470     -0.09563735709082     -1.84152707837651
  H   0.27641706963348     -0.88050562901195     -2.36113560264235
  H   1.58739783988765      0.09376258594615     -2.16628377381848
