17
Coordinates from ORCA-job run
  C   -0.65072373177248     -0.40252822343316      0.16494454665824
  C   0.72891919174157     -0.30473919653210     -0.49985291715501
  Br  -1.67163403923057     -1.70950510319263     -0.87693234916408
  H   1.23572786485219     -1.27175094148794     -0.40002168913052
  C   -1.41292639652062      0.89485856906136      0.23996332135406
  H   -2.42389952556573      0.72113922703813      0.60218551940130
  H   -0.91177322211507      1.57693661642585      0.92700973855302
  H   -1.44293705814559      1.33138544864730     -0.75765824783777
  N   -0.50701675253697     -1.05556006089261      1.53768537286332
  O   -1.25663228581093     -0.66057362550120      2.41903261176727
  O   0.32393723143507     -1.95003537513807      1.63685174014673
  N   1.61511622994063      0.64800159300739      0.28623441448628
  O   2.57268059389165      1.12068153678571     -0.31561387150712
  O   1.35403718709566      0.82553569148494      1.47145451726986
  N   0.62552252784301      0.22702567217087     -1.83442057790242
  H   1.55131375366928      0.49576508719605     -2.14570501328436
  H   0.27028843122892     -0.48763691563989     -2.45615711651882
