17
Coordinates from ORCA-job run
  C   -0.45901385006706     -0.22656147400384      0.37320128890514
  C   0.82148592645485      0.29166780973928     -0.32916129119351
  Br  -0.14143824514109     -1.95883442242664      1.17663256486933
  H   0.58707288285702      1.27640291652134     -0.73019068187539
  C   -1.70450151678167     -0.26961284650816     -0.49193124543837
  H   -2.56299698356145     -0.53391748958264      0.12678473859213
  H   -1.86626916001917      0.71131433531820     -0.94705936183189
  H   -1.59677304463455     -1.00775746119339     -1.28426103303825
  N   -0.77651895657995      0.76958177332343      1.50334591558563
  O   -0.33614528168478      1.90913197862740      1.36185108936456
  O   -1.51177404348407      0.39232938694630      2.40162673113733
  N   1.04741028958489     -0.57606341469489     -1.54644719745770
  O   0.41342147040911     -0.27219807949300     -2.55617924981641
  O   1.82696476607497     -1.51384185637700     -1.43374084180346
  N   2.02506238508273      0.35624630081783      0.41793212155564
  H   2.01779974949387      1.15061306923251      1.04081785420578
  H   2.21721361199636     -0.50050052624672      0.91877859823945
