17
Coordinates from ORCA-job run
  C   -0.50109115884963     -0.23997204999545      0.42077646169182
  C   0.73920422312621      0.31881985097343     -0.29535800815367
  Br  -0.12143652855252     -1.98831884524097      1.15271349755353
  H   0.46082183569221      1.28395222460593     -0.72099889590372
  C   -1.77654647117289     -0.28842806934223     -0.39845490851699
  H   -1.69879919414071     -1.03716884956039     -1.18352835500834
  H   -2.61112248451010     -0.54772962345474      0.25578605556346
  H   -1.95872255695421      0.68675926549722     -0.85098609594817
  N   -0.73748019837514      0.76744052537474      1.56039586034048
  O   -0.72915812577203      0.39595896620122      2.72029965114987
  O   -0.94818263860364      1.90722917239977      1.15722555394542
  N   1.02782151919692     -0.55724002054970     -1.52346179887504
  O   1.97832691912810     -1.32897068724358     -1.45574682681934
  O   0.28684349916168     -0.39895759198765     -2.49114409049542
  N   1.82687181493120      0.45785363002269      0.59027619369699
  H   2.19355670509918     -0.44066279925854      0.87703053784792
  H   2.56909284059537      1.01143490155825      0.18517516793119
