16

C	-0.54855	0.015358	-1.41278
C	0.0	0.0	0.0
Cl	0.148826	1.330811	-2.392182
H	1.089859	0.0	0.0
H	-0.321691	-0.950135	0.449861
N	-0.067514	-1.28908	-2.135459
O	1.118296	-1.562533	-2.079788
O	-0.940352	-1.951949	-2.702899
N	-1.961225	0.120716	-1.453112
H	-2.357066	-0.616985	-0.881251
H	-2.287674	-0.012227	-2.402635
C	-0.502859	1.178205	0.825863
H	-0.184997	2.118323	0.372352
H	-0.058548	1.127085	1.82215
H	-1.590594	1.192456	0.917552
Br	3.698228	0.0	0.0
