16

C	-0.480345	-0.006138	-1.43747
C	0.0	0.0	0.0
Cl	0.109112	-1.401108	-2.347614
H	1.092346	0.0	0.0
H	-0.331532	0.951566	0.43242
N	-2.05305	-0.15865	-1.348157
O	-2.594516	-1.246503	-1.494146
O	-2.630527	0.885442	-1.043821
N	-0.13085	1.172271	-2.11947
H	-0.483952	1.198996	-3.067236
H	-0.404393	1.993026	-1.597677
C	-0.514994	-1.159817	0.842728
H	-0.010666	-1.138216	1.810705
H	-1.593972	-1.111783	1.015717
H	-0.282608	-2.116129	0.371657
Br	3.646814	0.0	0.0
