16

C	-0.565448	0.026825	-1.39915
C	0.0	0.0	0.0
Cl	0.227632	1.391219	-2.317213
H	1.092092	0.0	0.0
H	-0.289003	0.962929	0.441253
N	-0.204259	-1.212059	-2.220638
O	-0.85821	-1.379195	-3.248911
O	0.696232	-1.931442	-1.816051
N	-1.980374	0.092173	-1.421256
H	-2.287709	0.894085	-0.886549
H	-2.31683	0.157314	-2.373544
C	-0.535001	-1.142326	0.858893
H	-0.213111	-2.105934	0.464361
H	-1.62451	-1.134114	0.930126
H	-0.113609	-1.046955	1.862166
Br	3.685573	0.0	0.0
