16

C	-0.361645	-0.110887	-1.477251
C	0.0	0.0	0.0
Cl	-2.006903	-0.782317	-1.689271
H	1.097317	0.0	0.0
H	-0.300698	-0.950064	0.454145
N	-0.361138	1.311126	-2.05981
O	-1.399042	1.963826	-2.048151
O	0.739537	1.718626	-2.409384
N	0.552802	-0.878952	-2.272077
H	0.47483	-1.846983	-1.980027
H	1.497653	-0.57168	-2.030737
C	-0.593129	1.173257	0.758755
H	-1.682145	1.209621	0.673735
H	-0.325731	1.088918	1.814024
H	-0.184748	2.118687	0.396166
Br	3.590837	0.0	0.0
