16

C	-0.294667	-0.046676	-1.486851
C	0.0	0.0	0.0
Cl	-0.403144	-1.806297	-2.080376
H	1.094881	0.0	0.0
H	-0.315984	0.992164	0.334093
N	-1.693405	0.470513	-1.856601
O	-2.525001	0.573808	-0.959694
O	-1.883425	0.748846	-3.03559
N	0.626317	0.730166	-2.18247
H	0.547341	0.646264	-3.185552
H	1.576998	0.577891	-1.844335
C	-0.573046	-1.086917	0.889875
H	-0.348108	-0.840296	1.93008
H	-1.654935	-1.173397	0.780521
H	-0.114667	-2.050844	0.673445
Br	3.590385	0.0	0.0
