17

C	-0.531963	0.023726	-1.416754
C	0.0	0.0	0.0
Br	0.479296	1.196285	-2.541112
H	1.094379	0.0	0.0
N	-0.490691	-1.377473	-2.013503
O	0.61552	-1.860234	-2.170984
O	-1.565743	-1.913864	-2.261027
N	-2.017498	0.414887	-1.470587
O	-2.472216	0.918942	-2.48821
O	-2.666453	0.14178	-0.462908
N	-0.420762	-1.225143	0.650938
H	-1.301538	-1.11686	1.137358
H	0.313169	-1.495127	1.293944
N	-0.346593	1.281387	0.607073
H	-1.162053	1.19885	1.202534
H	0.456049	1.571847	1.154202
F	2.577245	0.0	0.0
