17

C	-0.487846	-0.013464	-1.433975
C	0.0	0.0	0.0
Br	0.61426	-1.119711	-2.543764
H	1.094435	0.0	0.0
N	-1.950728	-0.460341	-1.547077
O	-2.332083	-1.052636	-2.545647
O	-2.656473	-0.142608	-0.592434
N	-0.469821	1.393632	-2.011635
O	0.606733	1.961019	-1.9975
O	-1.531814	1.846655	-2.43122
N	-0.365644	-1.280095	0.588014
H	-1.242418	-1.218728	1.092825
H	0.381598	-1.54118	1.220043
N	-0.415581	1.223834	0.664539
H	-1.199127	1.066241	1.284571
H	0.381193	1.537275	1.201515
F	2.579627	0.0	0.0
