17

C	-0.544425	0.009458	-1.410272
C	0.0	0.0	0.0
Br	0.404729	1.232177	-2.536365
H	1.096555	0.0	0.0
N	-0.450737	-1.391502	-2.008976
O	-1.506329	-1.992929	-2.18495
O	0.671689	-1.809807	-2.225026
N	-2.044389	0.341223	-1.459205
O	-2.671137	0.103274	-0.429634
O	-2.528116	0.765997	-2.498812
N	-0.39727	-1.226959	0.662248
H	0.346326	-1.479947	1.300533
H	-1.275854	-1.132246	1.155252
N	-0.346111	1.282538	0.606925
H	-1.13596	1.19166	1.233797
H	0.470129	1.58668	1.124485
F	2.578009	0.0	0.0
