17

C	-0.562007	-0.006966	-1.401988
C	0.0	0.0	0.0
Br	0.357996	-1.242702	-2.541039
H	1.096268	0.0	0.0
N	-2.065786	-0.323944	-1.434623
O	-2.673806	-0.122933	-0.387727
O	-2.57007	-0.703664	-2.480959
N	-0.466409	1.394285	-2.000148
O	-1.51771	2.010858	-2.141884
O	0.654702	1.799258	-2.24514
N	-0.344435	-1.275464	0.616715
H	-1.143787	-1.192868	1.231318
H	0.469558	-1.577551	1.136981
N	-0.385632	1.234301	0.662179
H	0.370909	1.48634	1.286533
H	-1.255403	1.141564	1.173638
F	2.573942	0.0	0.0
