17

C	-0.516786	0.203069	-1.409123
C	0.0	0.0	0.0
Br	-2.351164	0.849289	-1.507509
H	1.114534	0.0	0.0
N	0.31671	1.210881	-2.204523
O	0.619913	2.243638	-1.635868
O	0.569273	0.91391	-3.368845
N	-0.392482	-1.105819	-2.18369
O	-1.351267	-1.542973	-2.802153
O	0.717114	-1.610992	-2.10919
N	-0.464594	-1.334868	0.429745
H	-0.838776	-1.251495	1.367895
H	0.371752	-1.909128	0.493149
N	-0.394584	1.094837	0.848154
H	-1.274745	0.924507	1.320682
H	0.346762	1.249501	1.517958
F	2.564212	0.0	0.0
