17

C	-0.448898	-0.069222	-1.443174
C	0.0	0.0	0.0
Br	0.578958	-1.340805	-2.449673
H	1.090591	0.0	0.0
N	-1.946915	-0.403635	-1.619234
O	-2.337551	-0.861393	-2.683774
O	-2.657017	-0.146873	-0.649541
N	-0.30394	1.308012	-2.094967
O	0.829772	1.743548	-2.172802
O	-1.337208	1.865267	-2.450717
N	-0.331512	-1.200325	0.755889
H	0.475757	-1.808439	0.730353
H	-1.149844	-1.694959	0.43146
N	-0.474506	1.249298	0.569424
H	-1.308907	1.074651	1.113919
H	0.259225	1.561434	1.195972
F	2.580325	0.0	0.0
