17

C	-0.574654	0.034733	-1.389261
C	0.0	0.0	0.0
Br	-2.500816	0.346691	-1.410242
H	1.091083	0.0	0.0
N	0.034651	1.107171	-2.288261
O	-0.283271	1.042767	-3.472562
O	0.781243	1.925193	-1.779286
N	-0.250153	-1.273705	-2.102465
O	-1.123038	-2.107556	-2.270603
O	0.928151	-1.366787	-2.420169
N	-0.366822	-1.277518	0.582997
H	-1.266002	-1.245278	1.051519
H	0.359393	-1.529043	1.2423
N	-0.391447	1.212692	0.709604
H	0.442749	1.553991	1.173436
H	-1.099386	1.007952	1.406172
F	2.557268	0.0	0.0
