17

C	-0.496512	-0.120047	-1.424769
C	0.0	0.0	0.0
Br	0.365793	-1.565574	-2.365123
H	1.101978	0.0	0.0
N	-2.010688	-0.309956	-1.437397
O	-2.451655	-1.454229	-1.466865
O	-2.669111	0.711501	-1.278606
N	-0.221575	1.121849	-2.260127
O	-0.884882	1.227659	-3.28895
O	0.667952	1.86877	-1.886279
N	-0.464691	-1.163538	0.787309
H	0.347768	-1.440904	1.333522
H	-0.683596	-1.952989	0.187582
N	-0.48524	1.240099	0.578336
H	-1.195614	1.008624	1.262922
H	0.306481	1.666103	1.043944
F	2.582203	0.0	0.0
