17

C	-0.549764	-0.163105	-1.398094
C	0.0	0.0	0.0
Br	0.322486	0.989812	-2.652715
H	1.092969	0.0	0.0
N	-0.380602	-1.613534	-1.847767
O	-1.397432	-2.298366	-1.902243
O	0.758848	-1.979377	-2.07073
N	-2.066485	0.076399	-1.474684
O	-2.675149	-0.017614	-0.411917
O	-2.576803	0.293564	-2.564423
N	-0.362262	-1.162915	0.791185
H	-1.233539	-1.037233	1.289896
H	0.399142	-1.333335	1.436227
N	-0.372917	1.326983	0.473328
H	-1.180611	1.286239	1.081823
H	0.423709	1.689975	0.982069
F	2.575808	0.0	0.0
