15

C	-0.528546	0.000917	-1.427832
C	0.0	0.0	0.0
Cl	0.073453	-1.428324	-2.34282
H	1.09308	0.0	0.0
H	-0.313403	0.954413	0.44553
N	-1.980121	-0.071292	-1.439836
H	-2.337892	0.69394	-0.877653
H	-2.322722	0.042266	-2.386861
C	-0.046444	1.191079	-2.155642
N	0.235861	2.196087	-2.695746
C	-0.50954	-1.167828	0.835626
H	-1.595178	-1.165372	0.948386
H	-0.046314	-1.115782	1.823029
H	-0.213524	-2.115781	0.38473
Br	3.635063	0.0	0.0
