15

C	-0.290973	0.117313	-1.494897
C	0.0	0.0	0.0
Cl	-2.03085	0.598842	-1.82266
H	1.097185	0.0	0.0
H	-0.371192	-0.950885	0.387416
N	0.564854	1.121659	-2.055357
H	1.514935	0.97754	-1.704894
H	0.563669	1.084537	-3.067076
C	-0.168209	-1.202702	-2.145435
N	-0.054073	-2.242212	-2.682447
C	-0.491498	1.186404	0.815766
H	-0.017033	1.161599	1.799403
H	-0.207786	2.119479	0.32755
H	-1.575609	1.176983	0.948035
Br	3.569035	0.0	0.0
