15

C	-0.558579	0.024557	-1.423128
C	0.0	0.0	0.0
Cl	0.145486	-1.330045	-2.372449
H	1.093446	0.0	0.0
H	-0.322094	0.937035	0.473552
N	-2.011004	-0.098099	-1.541107
H	-2.430358	0.62853	-0.96733
H	-2.279614	-0.993774	-1.148927
C	-0.188751	1.281793	-2.090496
N	0.035072	2.320676	-2.589696
C	-0.482024	-1.189592	0.82202
H	0.029767	-1.17591	1.786703
H	-0.22167	-2.130889	0.333602
H	-1.559978	-1.174341	1.013265
Br	3.622287	0.0	0.0
