14

C	-0.453334	-0.141644	-1.424826
C	0.0	0.0	0.0
F	-1.841314	-0.344816	-1.539753
H	1.100773	0.0	0.0
H	0.02947	-1.011092	-1.882456
C	-0.127761	1.047183	-2.224946
N	0.075653	1.930759	-2.96782
N	-0.465975	-1.17369	0.784316
H	0.302421	-1.363199	1.424253
H	-0.510454	-1.99106	0.178947
N	-0.492656	1.239766	0.571653
H	0.216838	1.586796	1.204928
H	-1.330504	1.037022	1.103869
F	2.647584	0.0	0.0
