14

C	-0.648215	0.012635	-1.366415
C	0.0	0.0	0.0
F	-0.401713	1.20514	-2.055401
H	1.100031	0.0	0.0
H	-1.737678	-0.059987	-1.249519
C	-0.194748	-1.107097	-2.20547
N	0.147975	-1.981385	-2.908049
N	-0.446596	-1.241073	0.628206
H	0.35017	-1.632527	1.115553
H	-1.167753	-1.012685	1.30368
N	-0.504689	1.175899	0.743584
H	-0.513813	1.960171	0.097599
H	0.244672	1.398329	1.393533
F	2.658531	0.0	0.0
