14

C	-0.382413	-0.073543	-1.464449
C	0.0	0.0	0.0
F	-1.704327	-0.518522	-1.665773
H	1.10315	0.0	0.0
H	0.27612	-0.796249	-1.954262
C	-0.260681	1.224269	-2.144756
N	-0.178195	2.258409	-2.693449
N	-0.406059	-1.215012	0.697844
H	-1.169826	-1.680032	0.227177
H	0.399449	-1.826432	0.728424
N	-0.626806	1.175758	0.624538
H	0.086572	1.898366	0.664192
H	-0.808601	0.89931	1.581523
F	2.667108	0.0	0.0
