15

C	0.0	0.0	0.0
C	-0.563832	-0.013466	-1.414392
Br	1.961069	0.0	0.0
H	-1.642783	-0.200187	-1.248202
H	-0.100496	-0.849607	-1.948315
C	-0.36246	1.246796	0.683432
N	-0.563147	2.271299	1.223768
C	-0.51048	-1.207132	0.769548
H	-0.118051	-1.222064	1.788354
H	-0.203121	-2.120927	0.252761
H	-1.609575	-1.112461	0.76913
N	-0.299238	1.240537	-2.119935
H	-0.401712	1.076718	-3.114442
H	-1.0407	1.884375	-1.858531
H	-3.249279	0.0	0.0
