15

C	0.0	0.0	0.0
C	-0.562761	-0.018605	-1.412703
Br	1.960918	0.0	0.0
H	-1.639237	-0.216338	-1.251983
H	-0.087554	-0.844843	-1.95274
C	-0.365443	1.24969	0.686319
N	-0.568102	2.257595	1.257767
C	-0.50592	-1.202836	0.768385
H	-0.115323	-1.223031	1.784728
H	-0.200642	-2.118169	0.257192
H	-1.601735	-1.116709	0.77437
N	-0.318944	1.241324	-2.114345
H	-0.416821	1.084185	-3.110107
H	-1.068962	1.873619	-1.851297
H	-3.246845	0.0	0.0
