15

C	0.0	0.0	0.0
C	-0.565448	-0.010601	-1.406547
Br	1.973314	0.0	0.0
H	-0.325958	-0.984755	-1.859792
H	-1.661038	0.031125	-1.209739
C	-0.334913	1.26552	0.668373
N	-0.487153	2.254207	1.285632
C	-0.542974	-1.174463	0.786852
H	-0.176882	-1.170442	1.815355
H	-0.255947	-2.110059	0.300076
H	-1.642935	-1.043994	0.755617
N	-0.138628	1.143455	-2.182725
H	-0.840245	1.35237	-2.880299
H	0.739929	0.958091	-2.649581
H	-3.255869	0.0	0.0
