12
Coordinates from ORCA-job run
  C   0.38772983893207     -0.13605205034135      0.62331492890565
  C   -0.34207685461756      0.15370234730043     -0.67244233148476
  Cl  -0.55407355328212      0.53723136311431      1.99894074046230
  H   -0.44631989964722      1.24346165316954     -0.75723769059074
  H   0.38811139919052     -1.21777251874468      0.79551123582265
  H   0.30328891468036     -0.18675724407376     -1.49031174592961
  N   1.68365927535054      0.50339921458690      0.61936986850672
  H   2.24457007951057      0.10476272627617     -0.12548632476478
  H   2.16063096974567      0.33291535523665      1.49629887712424
  N   -1.58581177875557     -0.60284330343172     -0.73802149644323
  H   -1.98683609818181     -0.52331551632773     -1.66345522937366
  H   -2.25287229292544     -0.20973202676477     -0.08548083223478
