12
Coordinates from ORCA-job run
  C   0.68306484863324     -0.52681742173253      0.30985468310103
  C   -0.75172268113397     -0.41087106212271     -0.18199474040172
  Cl  0.82722034124505     -2.03748548748419      1.28026740426286
  H   -1.38647828457126     -0.33655686496164      0.70354594180044
  H   1.35909572896507     -0.69395434042293     -0.53913385125190
  H   -1.02313111149972     -1.32622726280932     -0.72064978791143
  N   0.99576150523614      0.61027459391234      1.12046132177729
  H   0.64650155197102      1.42815617811149      0.63252992131668
  H   1.99249410470687      0.69755722410156      1.26699177766855
  N   -0.88625658954183      0.81687908791982     -0.96696494132268
  H   -0.60820609973108      0.65388901926502     -1.92649172290243
  H   -1.84934331427954      1.12415633622310     -0.97741600613669
