12
Coordinates from ORCA-job run
  C   0.39300363660973     -0.08536632187855      0.63928913879085
  C   -0.36728848321058     -0.17853990689811     -0.66703475006212
  Cl  0.03965616717292      1.58358038397501      1.36772800626253
  H   0.02105566732660      0.59353218192135     -1.35023879623755
  H   -0.03495712057310     -0.77699470632815      1.36301864451889
  H   -0.12227868019398     -1.15639145016136     -1.08944908373482
  N   1.77363157733945     -0.33586044858482      0.46170032322346
  H   2.19436068002586      0.34228791465705     -0.16085060676885
  H   2.27332927574328     -0.32365652009567      1.34051956677859
  N   -1.80290598676124     -0.11924125780767     -0.43534534859526
  H   -2.29632358871367     -0.36745799097185     -1.28269911545983
  H   -2.07228314476528      0.82410812217276     -0.18663797871588
