12
Coordinates from ORCA-job run
  C   0.52112051584339     -0.34613447036070      0.42420931898082
  C   -0.39645411981611      0.23369548030328     -0.63220854561559
  Cl  -0.31489577498581     -0.12716695763809      2.06524758677281
  H   -0.50992941569704      1.31226498549022     -0.43793427300941
  H   0.57863744222280     -1.42696962354147      0.30697361847591
  H   0.12811847865099      0.11616947712012     -1.58389751700139
  N   1.81026102787066      0.23374761511674      0.37342151085986
  H   1.77335298236732      1.23074193647233      0.54377751769829
  H   2.43835187510059     -0.18748195986165      1.04440566161471
  N   -1.64635815753637     -0.50808992803394     -0.69557524969919
  H   -2.21702789258287     -0.29211833775513      0.11181606789913
  H   -2.16417696143755     -0.23765821731171     -1.52123569697596
