12
Coordinates from ORCA-job run
  C   0.48586721054908     -0.51172006348367      0.58449573348325
  C   -0.86384041848856     -0.14459440161140     -0.01330331380046
  Cl  0.20533785989184     -1.28742055723317      2.18491188676715
  H   -1.49970422406528     -1.03699533020304     -0.04384923657768
  H   0.95828957408859     -1.30238175552818     -0.01335845111688
  H   -1.32481593525020      0.57849226973855      0.66293652437421
  N   1.26771756810883      0.67688305536868      0.74520925960586
  H   2.24066512388443      0.45802372493383      0.91354386477634
  H   1.17937735860366      1.20728186779810     -0.11509549292309
  N   -0.64819700100073      0.48991657570093     -1.31428338571732
  H   -1.43079385877020      1.08478364285589     -1.55032034899841
  H   -0.56890325755147     -0.21126902833652     -2.03988703987297
