12
Coordinates from ORCA-job run
  C   0.46932626232435     -0.39388268774774      0.55601354679137
  C   -0.36209146883007      0.27561316898773     -0.52769374799183
  Cl  -0.46488395624833     -0.31493133209677      2.09846851479046
  H   -0.51491664445377      1.32754800508750     -0.23635617776322
  H   0.56799716892317     -1.45483778172713      0.32305594997344
  H   0.24749419444306      0.26764320573342     -1.43764282189377
  N   1.77258022150924      0.16740860327008      0.78027625878759
  H   2.40203155129244     -0.10546427996047      0.03632812233471
  H   1.72760031117863      1.17787624008727      0.82897654708062
  N   -1.58262037516333     -0.47188579793044     -0.79271280743575
  H   -2.04223557893955     -0.10562695356508     -1.61626860339821
  H   -2.22028168603585     -0.36846039013836     -0.01344478127541
