12
Coordinates from ORCA-job run
  C   0.59422835616988     -0.57367156309433      0.43926161926798
  C   -0.48696835134643     -0.47703995661357     -0.62217816250285
  Cl  -0.28424331537539     -0.61537097745761      2.09329254263472
  H   -1.18724656634644     -1.31126342073944     -0.49841826079520
  H   1.09241149730416     -1.54220282609926      0.41530378187341
  H   0.01368341874424     -0.58477238219370     -1.58837487941248
  N   1.51275127475342      0.47811967153730      0.30486843588621
  H   2.19937062853879      0.50443734185739      1.04460284064097
  H   1.01839246270319      1.35825459203574      0.22785673834298
  N   -1.10399798775828      0.84433021211013     -0.56527659278145
  H   -1.58262557806797      1.04732324722512     -1.43198765806089
  H   -1.78475583931916      0.87185606143223      0.18304959490661
