12
Coordinates from ORCA-job run
  C   0.54422099820169     -0.61050573125350      0.50330394575993
  C   -0.81714352982563     -0.10811612893193      0.02741607703708
  Cl  0.33378500099139     -1.35824145630826      2.11457418631649
  H   -1.55115925525306     -0.92300019618059      0.07165728962033
  H   0.88962017510742     -1.40824272805172     -0.16011704917654
  H   -1.14748234298843      0.67228612195215      0.71891068841233
  N   1.57734785457958      0.39283381175790      0.57760099947669
  H   1.31668830916503      1.08450622973084      1.27313301510845
  H   1.58935846281132      0.85701388606934     -0.32583801665854
  N   -0.64594966769295      0.47418744403287     -1.30354757525013
  H   -0.73309032117939     -0.24110828767848     -2.01416268901773
  H   -1.35819568391697      1.16838703486139     -1.48393087162836
