12
Coordinates from ORCA-job run
  C   0.41108602864923     -0.13537409607209      0.52944499763735
  C   -0.44653444697178      0.28966025706682     -0.65880878854991
  Cl  -0.51077270838184      0.11292150241390      2.05312998531242
  H   -0.67592967357272      1.35015721779102     -0.53320720699355
  H   0.57970737958843     -1.22027978575252      0.49472038334598
  H   0.17059107169542      0.19210878162253     -1.56035419611725
  N   1.60416101215803      0.67011424791820      0.59024319438109
  H   2.09949876867109      0.60925956874371     -0.29166051845375
  H   2.21881206004547      0.35113179208247      1.32847013771866
  N   -1.67901907022202     -0.44245843383218     -0.87535519962645
  H   -2.28227606141936     -0.34775679517667     -0.06851585830550
  H   -1.49032436023996     -1.42848425680520     -1.00610693034910
