12
Coordinates from ORCA-job run
  C   0.45442403979642     -0.31993757518965      0.51248867750730
  C   -0.41799525482851      0.35345073265430     -0.55131402397984
  Cl  -0.45838671879946     -0.32643361163795      2.06676815713319
  H   0.18183539553142      0.39816181698985     -1.46778530259573
  H   0.60878759726610     -1.37176413976822      0.25773361312255
  H   -0.59845217737460      1.38542830617876     -0.23195409177442
  N   1.73912392971604      0.28696331963709      0.73517321267733
  H   2.36150624045672      0.07716410539291     -0.03528232046620
  H   1.64682169887443      1.29216443075760      0.82227930619846
  N   -1.69306955370573     -0.26060951424839     -0.86827794688133
  H   -2.26822735539664     -0.30806863661919     -0.03707364029810
  H   -1.55636784153619     -1.20651923414710     -1.20275564064320
