12
Coordinates from ORCA-job run
  C   0.60723592100506     -0.51944353124033      0.40311082529105
  C   -0.77435923289513     -0.48771841957557     -0.25582838922023
  Cl  0.60094857753591     -1.86824689613095      1.60109962259377
  H   -1.51988734456575     -0.29522488791797      0.52277280965095
  H   1.36619862575807     -0.78202947173933     -0.33833534348473
  H   -1.00000601987613     -1.47056043550566     -0.67635033299825
  N   1.02470733768942      0.68839154840825      1.05558837949483
  H   1.37202422865300      1.36698965897559      0.39316285777143
  H   0.28080709729644      1.08861850286354      1.61320219856546
  N   -0.92584466263469      0.50941546919501     -1.30301420640163
  H   -0.74461821762661      1.43831549436738     -0.94637691123725
  H   -0.28720631033959      0.33149296830002     -2.06803151002539
