12
Coordinates from ORCA-job run
  C   0.50066371890352     -0.54808964888739      0.56370192062826
  C   -0.50642077730990     -0.55822080061690     -0.59409296309332
  Cl  -0.42400749699756     -0.55468726727641      2.10927020052669
  H   0.07077185527053     -0.68250978890733     -1.51796431570420
  H   1.07043487407968     -1.48046550749614      0.55376127885909
  H   -1.14849184949825     -1.43730774826409     -0.49301280965433
  N   1.43522896984918      0.54589669220730      0.60069307147056
  H   2.09749203246410      0.46418606728442     -0.16114738663728
  H   0.95161951358082      1.43250206521377      0.53296006180899
  N   -1.35280781504950      0.60972403968572     -0.74417283634198
  H   -1.88423986144911      0.77410511976193      0.10093978089616
  H   -0.80924316384351      1.43686677729511     -0.95093600275864
