15

C	-0.543148	-0.083788	-1.438296
C	0.0	0.0	0.0
Cl	0.025628	-1.5818	-2.212863
H	1.094356	0.0	0.0
N	-1.998082	-0.118804	-1.400449
H	-2.350683	-0.283669	-2.337328
H	-2.332624	0.792499	-1.096033
C	-0.040936	1.042124	-2.246372
N	0.252721	1.994187	-2.869461
N	-0.427581	-1.152934	0.760659
H	0.225073	-1.303029	1.518128
H	-1.368176	-1.046167	1.111623
C	-0.483203	1.276339	0.563515
N	-0.959741	2.234531	1.051894
Cl	3.255093	0.0	0.0
