15

C	-0.378269	-0.05185	-1.49997
C	0.0	0.0	0.0
Cl	0.003471	1.524749	-2.252671
H	1.094985	0.0	0.0
N	0.354167	-1.085249	-2.192917
H	1.343668	-0.862322	-2.072069
H	0.188325	-1.936583	-1.659253
C	-1.825243	-0.283502	-1.634448
N	-2.984629	-0.468276	-1.678226
N	-0.406423	-1.272693	0.591807
H	0.284194	-1.545581	1.280222
H	-1.312305	-1.203592	1.038351
C	-0.540777	1.16683	0.695496
N	-0.966096	2.095368	1.277626
Cl	3.251384	0.0	0.0
