15

C	-0.311902	0.072958	-1.500532
C	0.0	0.0	0.0
Cl	-2.084659	0.383826	-1.77714
H	1.097417	0.0	0.0
N	0.450366	1.151515	-2.050397
H	1.416788	1.059848	-1.729302
H	0.426399	1.136983	-3.062275
C	-0.058105	-1.239818	-2.122083
N	0.190207	-2.231859	-2.700324
N	-0.49298	-1.22002	0.602093
H	0.174687	-1.539112	1.291726
H	-1.391218	-1.076831	1.043048
C	-0.45242	1.225101	0.668974
N	-0.837831	2.145339	1.290045
Cl	3.2423	0.0	0.0
