15

C	-0.310556	0.176876	-1.490816
C	0.0	0.0	0.0
Cl	-2.085359	0.470627	-1.750773
H	1.103265	0.0	0.0
N	0.427843	1.310838	-1.960143
H	0.383727	1.378076	-2.970013
H	1.401579	1.203614	-1.666757
C	-0.02317	-1.081208	-2.206116
N	0.232631	-2.014387	-2.873154
N	-0.489043	-1.261992	0.509557
H	-1.39198	-1.157282	0.952874
H	0.174937	-1.627471	1.179686
C	-0.463527	1.171972	0.751646
N	-0.885187	2.038825	1.423491
Cl	3.241804	0.0	0.0
