15

C	-0.554835	0.013646	-1.440787
C	0.0	0.0	0.0
Cl	0.315548	-1.326712	-2.347605
H	1.094484	0.0	0.0
N	-1.960715	-0.174509	-1.398633
H	-2.342343	-0.312685	-2.325905
H	-2.12945	-0.989653	-0.815162
C	-0.234006	1.255607	-2.149149
N	-0.039498	2.2515	-2.741339
N	-0.485953	-1.230217	0.652808
H	-0.75188	-1.025578	1.607892
H	0.303705	-1.866397	0.691727
C	-0.494231	1.179243	0.708686
N	-0.87973	2.104795	1.320838
Cl	3.264125	0.0	0.0
