15

C	-0.555953	0.01064	-1.439484
C	0.0	0.0	0.0
Cl	0.305424	-1.343388	-2.340967
H	1.097449	0.0	0.0
N	-1.962202	-0.165086	-1.393667
H	-2.140038	-0.96947	-0.798197
H	-2.348575	-0.307151	-2.317892
C	-0.223813	1.246143	-2.153656
N	-0.014067	2.237317	-2.748603
N	-0.492702	-1.226454	0.656563
H	0.283873	-1.880258	0.658704
H	-0.710236	-1.023484	1.624036
C	-0.495003	1.181435	0.704482
N	-0.88428	2.106229	1.315294
Cl	3.264162	0.0	0.0
