15

C	-0.587701	0.016701	-1.434964
C	0.0	0.0	0.0
Cl	0.121465	-1.391303	-2.303779
H	1.104746	0.0	0.0
N	-2.026216	-0.107408	-1.47294
H	-2.426283	0.783252	-1.19956
H	-2.25831	-0.795034	-0.760115
C	-0.188411	1.233997	-2.145304
N	0.063004	2.232386	-2.711473
N	-0.520981	-1.204704	0.676862
H	-0.433641	-1.059454	1.677225
H	0.130841	-1.950443	0.449226
C	-0.508737	1.185611	0.688441
N	-0.963356	2.123482	1.23145
Cl	3.270128	0.0	0.0
