12
Coordinates from ORCA-job run
  C   -0.23654050430234      0.30856933512966     -0.41151158487102
  C   0.84348506304172     -0.48167383020233      0.32756568545057
  Br  0.29016526320650      2.18669357552026     -0.50879509794021
  H   0.98924578938373     -0.06242068433970      1.32728104044841
  H   -0.29225631274354     -0.02322219510300     -1.44978678841642
  H   0.49955647233378     -1.51516439668864      0.44960069517929
  C   -1.58584776832386      0.18330102577250      0.27139531312266
  H   -2.34500932094749      0.75963842058995     -0.25796576163429
  H   -1.53428698377251      0.54750040030764      1.29960389203546
  H   -1.89655344161879     -0.86601661917111      0.28503663055991
  C   2.12361225825974     -0.50153956738435     -0.37666302527292
  N   3.14342948548306     -0.53466546443088     -0.95576099866143
