15

C	0.0	0.0	0.0
C	-0.514918	-0.084314	-1.437556
Br	1.952861	0.0	0.0
H	-1.607172	0.021655	-1.338924
H	-0.268206	-0.931835	0.51067
N	-0.483386	1.202201	0.614045
H	-1.504219	1.162571	0.531043
H	-0.258955	1.192728	1.603089
C	-0.227539	-1.426141	-2.110436
H	0.845221	-1.601189	-2.213149
H	-0.684832	-1.450861	-3.101482
H	-0.670327	-2.227325	-1.513781
C	-0.02339	1.026362	-2.251737
N	0.343812	1.878082	-2.97262
Br	-3.716501	0.0	0.0
