15

C	0.0	0.0	0.0
C	-0.387744	-0.164654	-1.482524
Br	1.979253	0.0	0.0
H	0.071635	0.679032	-2.010922
H	-0.250973	-0.909839	0.557133
N	-0.527452	1.222928	0.526556
H	-1.541789	1.189721	0.44019
H	-0.311098	1.291027	1.513262
C	-1.896361	-0.173198	-1.732034
H	-2.09162	-0.345059	-2.792456
H	-2.41217	-0.943845	-1.161215
H	-2.360122	0.771657	-1.457456
C	0.190516	-1.396492	-2.028995
N	0.587021	-2.394493	-2.505538
Br	-4.810902	0.0	0.0
