15

C	0.0	0.0	0.0
C	-0.390209	-0.035016	-1.493278
Br	1.948483	0.0	0.0
H	0.148017	0.794161	-1.966429
H	-0.271661	-0.946932	0.480751
N	-0.523787	1.185993	0.622346
H	-1.541905	1.130705	0.572092
H	-0.274783	1.184924	1.605084
C	-1.887957	0.114958	-1.757891
H	-2.499286	-0.586124	-1.191997
H	-2.089507	-0.035054	-2.820529
H	-2.235875	1.11091	-1.489581
C	0.097918	-1.276964	-2.102259
N	0.439161	-2.271881	-2.62441
Br	-4.823051	0.0	0.0
