15

C	0.0	0.0	0.0
C	-0.493487	-0.061011	-1.461173
Br	1.955481	0.0	0.0
H	-1.590414	-0.011335	-1.356126
H	-0.305685	-0.927407	0.488424
N	-0.482524	1.102694	0.771998
H	-1.495711	0.970924	0.845368
H	-0.316686	1.969577	0.268369
C	-0.126611	-1.346391	-2.197935
H	0.950804	-1.43015	-2.349958
H	-0.472084	-2.202258	-1.612398
H	-0.625341	-1.378945	-3.169209
C	-0.064252	1.123816	-2.201178
N	0.271678	2.072857	-2.80788
Br	-3.697155	0.0	0.0
