15

C	0.0	0.0	0.0
C	-0.383106	0.021488	-1.520685
F	1.368535	0.0	0.0
H	-1.388438	0.363959	-1.728591
C	-0.365417	1.228726	0.723146
N	-0.650576	2.213236	1.298004
C	-0.416519	-1.1926	0.737718
N	-0.635731	-2.210722	1.288241
N	-0.246132	-1.317642	-2.166976
O	0.5945	-2.098678	-1.731784
O	-0.982654	-1.501148	-3.131446
N	0.558295	1.001554	-2.206443
O	1.188685	0.618299	-3.21223
O	0.213505	2.173712	-2.022031
Cl	-2.854388	0.0	0.0
