8
Coordinates from ORCA-job run
  C   0.18984112818022      0.46616299288954      0.12175929035223
  C   1.12182426762629     -0.33896946653484     -0.37916489185912
  H   0.32442953328971      1.48685470250975      0.45335786785812
  H   0.87841539452394     -1.34953176384847     -0.68155972546888
  H   2.13929364492424      0.01489817154539     -0.48722094771943
  N   -1.19583463015632      0.01114611300412      0.27950706184020
  O   -1.48599580932722     -1.13111673489152     -0.05895231713083
  O   -1.97297352906087      0.84055598532602      0.75327366212771
