8
Coordinates from ORCA-job run
  C   0.19181310629348      0.46239495362726      0.13289429054379
  C   1.11123072935368     -0.31871212270254     -0.42621807230785
  H   0.33253771097063      1.47042921528209      0.49885543171521
  H   0.86058117536662     -1.31830119622155     -0.75772850928820
  H   2.12329361699205      0.04448921434816     -0.55192038599306
  N   -1.18640207721428     -0.00574656515256      0.31624058568618
  O   -1.48232579160276     -1.13551658538514     -0.05715115594905
  O   -1.95172847015942      0.80096308620429      0.84502781559298
