8
Coordinates from ORCA-job run
  C   0.08454588471804      0.43022412860359     -0.27585657416506
  C   1.20524842268060     -0.24971140658335     -0.05274328607678
  H   -0.01348737040225      1.35739718176270     -0.82412977990441
  H   1.18890549935353     -1.17356327696988      0.51128927545560
  H   2.14649981236654      0.12035983181350     -0.43885291168165
  N   -1.20423754600367     -0.04980882430838      0.23488471942521
  O   -2.17483717081281      0.65917207109059     -0.03232270344791
  O   -1.23463753189998     -1.09406970540878      0.87673126039501
