8
Coordinates from ORCA-job run
  C   -0.00109932276289      0.21563201532052     -0.47074152336693
  C   1.19755197869678     -0.25422662168665     -0.13827394756525
  H   -0.27166560322421      0.70872279860695     -1.39460924752086
  H   1.35921811227022     -0.73413392500301      0.81853290132326
  H   2.02560772120553     -0.15687952439712     -0.82887865750709
  N   -1.13965895158005      0.09738917399347      0.44688140819894
  O   -2.19953130984279      0.57102676605453      0.03628156915274
  O   -0.97142262476258     -0.44853068288869      1.53180749728519
