8
Coordinates from ORCA-job run
  C   0.19298528467952      0.45849845297600      0.14397777643244
  C   1.12362033372349     -0.33367574117203     -0.37996908562682
  H   0.33253858419822      1.46278572904006      0.52051999275253
  H   0.87365261767688     -1.32774277166633     -0.72813464272271
  H   2.14530150761196      0.01523272618933     -0.46073635741792
  N   -1.19879299403873      0.01054985029975      0.26528603048985
  O   -1.49518147120912     -1.11320207363388     -0.12547131715761
  O   -1.97412386264222      0.82655382796710      0.76452760325025
