8
Coordinates from ORCA-job run
  C   0.18999927375009      0.45898272362652      0.14777249697809
  C   1.12456607861810     -0.32015461350582     -0.38832731699009
  H   0.32300473818533      1.46058100313424      0.53372422410641
  H   2.14304763198749      0.03749800375298     -0.47125492603835
  H   0.88102822951338     -1.31290327679408     -0.74479931320950
  N   -1.19732874263334     -0.00209382097015      0.27145396323144
  O   -1.97703616268168      0.80249971788365      0.78231440346222
  O   -1.48628104673937     -1.12440973712734     -0.12888353154024
