14

C	-0.572722	0.000509	-1.401524
C	0.0	0.0	0.0
Br	0.337883	1.310421	-2.551993
H	1.089629	0.0	0.0
H	-0.339865	-0.920946	0.49008
N	-0.397857	-1.356967	-2.077808
O	0.484407	-2.084738	-1.634744
O	-1.135117	-1.602629	-3.031067
C	-1.998423	0.313559	-1.419729
N	-3.14756	0.55619	-1.338525
N	-0.421573	1.225803	0.668946
H	0.405515	1.628043	1.098255
H	-1.105314	1.041145	1.389094
H	2.763309	0.0	0.0
