14

C	-0.552779	-0.014268	-1.407945
C	0.0	0.0	0.0
Br	0.234745	1.426641	-2.484301
H	1.092577	0.0	0.0
H	-0.337893	-0.92078	0.486866
N	-0.210912	-1.324097	-2.121408
O	-0.747582	-1.513261	-3.20916
O	0.575994	-2.074048	-1.558565
C	-2.003988	0.128544	-1.455491
N	-3.177449	0.209481	-1.427597
N	-0.481696	1.205985	0.675804
H	-0.937533	0.957464	1.542873
H	0.344343	1.746416	0.914768
H	2.80635	0.0	0.0
