14

C	-0.515713	0.021438	-1.416024
C	0.0	0.0	0.0
Br	-0.072858	-1.637278	-2.350346
H	1.093136	0.0	0.0
H	-0.357285	-0.912337	0.483159
N	-2.054657	0.08895	-1.429796
O	-2.59257	0.723741	-2.329511
O	-2.632334	-0.52621	-0.542359
C	-0.0179	1.151465	-2.189268
N	0.388227	2.059372	-2.815764
N	-0.460469	1.232621	0.631676
H	0.349275	1.683658	1.043821
H	-1.137804	1.043035	1.356973
H	2.810592	0.0	0.0
