14

C	-0.570535	-0.029301	-1.402252
C	0.0	0.0	0.0
Br	0.17629	1.424319	-2.483463
H	1.091223	0.0	0.0
H	-0.325778	0.941049	0.457167
N	-0.206638	-1.333213	-2.113967
O	-0.942948	-1.670007	-3.039447
O	0.801465	-1.90604	-1.73636
C	-2.023728	0.090571	-1.426995
N	-3.188786	0.242973	-1.371038
N	-0.502541	-1.184523	0.693603
H	0.306267	-1.699147	1.025209
H	-1.068566	-0.928071	1.490031
H	2.838146	0.0	0.0
