14

C	-0.524104	0.043679	-1.428078
C	0.0	0.0	0.0
Br	0.183139	-1.406932	-2.489344
H	1.096906	0.0	0.0
H	-0.348944	0.916478	0.484807
N	-2.063131	-0.056587	-1.365331
O	-2.629477	-1.071641	-1.733681
O	-2.597851	0.928474	-0.857988
C	-0.222486	1.30298	-2.09767
N	-0.000394	2.314632	-2.653547
N	-0.495766	-1.203214	0.65989
H	0.31672	-1.768359	0.890964
H	-0.957259	-0.958853	1.525887
H	2.796659	0.0	0.0
