14

C	-0.587928	-0.031976	-1.394116
C	0.0	0.0	0.0
Br	0.131014	1.427026	-2.48577
H	1.090178	0.0	0.0
H	-0.323051	0.94113	0.460805
N	-0.230939	-1.333199	-2.11359
O	0.826352	-1.858656	-1.807817
O	-1.022889	-1.713438	-2.975111
C	-2.041401	0.081457	-1.391471
N	-3.206803	0.219668	-1.313972
N	-0.48094	-1.191876	0.693299
H	-1.111797	-0.955853	1.445163
H	0.331524	-1.66119	1.080046
H	2.824987	0.0	0.0
