16

C	-0.31979	-0.007695	-1.383366
C	-0.032447	0.049528	0.104122
Br	-2.273472	-0.071363	-1.740817
H	1.05449	-0.059707	0.097898
H	-0.303765	1.063928	0.41622
C	0.307727	1.153998	-2.110801
H	-0.100241	2.086298	-1.712823
H	0.113427	1.095923	-3.18016
H	1.381287	1.023328	-1.88378
N	0.201186	-1.309058	-1.988312
O	0.440665	-1.317184	-3.187963
O	0.260719	-2.293321	-1.258807
N	-0.787374	-0.889467	0.941702
H	-0.419751	-1.812627	0.749358
H	-0.552863	-0.673395	1.904389
F	2.451683	-0.207471	-1.067711
