16

C	-0.198962	-0.030702	-1.447663
C	0.035528	0.025737	0.048281
Br	0.194649	1.724797	-2.220914
H	1.12019	0.162314	0.152066
H	-0.203428	-0.973305	0.424595
C	0.678459	-1.065868	-2.113637
H	0.596545	-1.011666	-3.202258
H	0.363134	-2.053802	-1.766268
H	1.701343	-0.858294	-1.719522
N	-1.677927	-0.344651	-1.695925
O	-2.390654	0.393492	-2.364012
O	-2.052394	-1.401012	-1.188471
N	-0.872858	0.989232	0.687839
H	-0.862643	0.806407	1.684408
H	-0.48078	1.916105	0.564039
F	2.754466	-0.358262	-0.41645
