16

C	-0.338654	-0.089266	-1.498446
C	-0.170525	0.146237	-0.008719
Br	-0.17903	1.644714	-2.432541
H	0.817783	0.60971	0.116714
H	-0.961261	0.814527	0.337313
C	0.655819	-1.079477	-2.04766
H	0.728671	-1.024167	-3.133378
H	1.606707	-0.923141	-1.51799
H	0.31681	-2.074099	-1.756944
N	-1.776362	-0.525419	-1.792495
O	-2.676548	-0.002153	-1.142907
O	-1.95086	-1.354033	-2.682499
N	-0.204863	-1.16498	0.629109
H	0.817465	-1.392036	0.660095
H	-0.542952	-1.050184	1.577319
F	2.380804	-1.034098	0.251782
