16

C	-0.332302	0.325081	-1.477761
C	0.0	0.0	0.0
Br	-2.299171	0.534508	-1.702924
H	1.103728	0.0	0.0
C	0.373819	1.588298	-1.943835
H	0.027682	2.440215	-1.355925
H	0.179188	1.776296	-3.000743
H	1.446805	1.446387	-1.773885
C	0.024677	-0.827101	-2.302095
N	0.294513	-1.758193	-2.967349
N	-0.458051	-1.272066	0.506449
H	-1.397369	-1.480571	0.188807
H	0.179177	-1.996242	0.199966
C	-0.462844	1.097339	0.854768
N	-0.839843	1.979235	1.533238
Br	3.413523	0.0	0.0
