16

C	-0.444437	-0.042339	-1.479724
C	0.0	0.0	0.0
Br	-0.047585	1.684966	-2.327016
H	1.099217	0.0	0.0
C	0.319016	-1.137696	-2.215121
H	0.045331	-1.151972	-3.271486
H	0.074711	-2.095494	-1.752979
H	1.389091	-0.946873	-2.100976
C	-1.891058	-0.238755	-1.565138
N	-3.04976	-0.434036	-1.624318
N	-0.410695	-1.251346	0.632225
H	0.310534	-1.531217	1.285694
H	-1.286667	-1.145494	1.127488
C	-0.514529	1.179468	0.704123
N	-0.969254	2.061798	1.334225
Br	3.438693	0.0	0.0
