16

C	-0.542126	-0.176264	-1.441692
C	0.0	0.0	0.0
Br	0.238616	-1.812297	-2.190322
H	1.10772	0.0	0.0
C	-2.059266	-0.315994	-1.463202
H	-2.333713	-1.156379	-0.825612
H	-2.414536	-0.495898	-2.478459
H	-2.517736	0.602487	-1.084516
C	-0.118817	0.93369	-2.291629
N	0.160785	1.842393	-2.984052
N	-0.436641	-1.112338	0.84413
H	-1.075258	-0.800702	1.562937
H	0.388102	-1.497983	1.289936
C	-0.485637	1.284333	0.515522
N	-0.965601	2.258994	0.965175
Br	3.407758	0.0	0.0
