15

C	0.0	0.0	0.0
C	-0.547765	-0.240873	-1.393237
F	1.374904	0.0	0.0
H	-1.665295	-0.176048	-1.171114
H	-0.369145	0.980026	0.303785
C	-0.441615	-0.967615	1.020232
N	-0.588793	-1.711896	1.916298
N	-0.241718	-1.599708	-1.902946
O	0.399232	-2.387948	-1.206296
O	-0.667046	-1.868264	-3.028991
C	-0.018727	0.778843	-2.387044
H	-0.488014	0.636517	-3.359981
H	-0.25648	1.783558	-2.03141
H	1.067039	0.696708	-2.501086
F	-2.626861	0.0	0.0
