15

C	0.0	0.0	0.0
C	-0.59053	-0.232986	-1.370982
F	1.375525	0.0	0.0
H	-1.717922	-0.307062	-1.039077
H	-0.356908	0.980065	0.318268
C	-0.424916	-0.961079	1.037777
N	-0.587225	-1.670115	1.958758
N	-0.10802	-1.48977	-1.966129
O	-0.130816	-1.597697	-3.197771
O	0.24349	-2.401728	-1.213954
C	-0.363334	0.942406	-2.297824
H	-0.809845	0.753798	-3.272338
H	0.701583	1.157935	-2.438582
H	-0.85392	1.814917	-1.860415
F	-2.66357	0.0	0.0
