15

C	0.0	0.0	0.0
C	-0.195827	-0.092619	-1.54325
F	1.380358	0.0	0.0
H	0.408069	-0.95284	-1.843865
H	-0.390546	0.91809	0.417654
C	-0.510399	-1.178673	0.694804
N	-0.606906	-2.198186	1.274893
N	0.585269	1.070071	-2.110128
O	0.35827	2.189925	-1.65874
O	1.360332	0.83689	-3.038419
C	-1.515192	-0.106452	-2.282891
H	-1.289707	-0.18639	-3.355226
H	-2.086226	0.784978	-2.049259
H	-2.113075	-0.941847	-1.935591
F	-2.373308	0.0	0.0
