15

C	0.0	0.0	0.0
C	-0.199109	0.015732	-1.544448
F	1.380351	0.0	0.0
H	0.421779	-0.805806	-1.911063
H	-0.389053	0.892552	0.472368
C	-0.522602	-1.20608	0.635068
N	-0.633197	-2.24057	1.186451
N	0.554159	1.234485	-2.024473
O	1.312482	1.092422	-2.985294
O	0.321948	2.309833	-1.476883
C	-1.523462	0.028921	-2.275408
H	-2.097044	-0.847455	-1.995696
H	-1.305462	0.040547	-3.352347
H	-2.116029	0.880406	-1.962847
F	-2.385783	0.0	0.0
