15

C	0.0	0.0	0.0
C	-0.602651	-0.011108	-1.38379
F	1.375533	0.0	0.0
H	-1.736094	-0.093497	-1.054166
H	-0.357559	0.914989	0.474104
C	-0.425113	-1.118709	0.867529
N	-0.570659	-1.957285	1.675095
N	-0.194336	-1.190096	-2.16338
O	0.302439	-2.15543	-1.575546
O	-0.419776	-1.176558	-3.379803
C	-0.321585	1.265881	-2.147393
H	-0.79983	1.238541	-3.125084
H	0.752164	1.434472	-2.287023
H	-0.742872	2.10269	-1.585464
F	-2.684229	0.0	0.0
