15

C	0.0	0.0	0.0
C	-0.410217	0.320334	-1.446617
F	1.383875	0.0	0.0
H	0.505477	0.692439	-1.928419
H	-0.357034	0.771436	0.670353
C	-0.443106	-1.318892	0.46545
N	-0.532562	-2.422986	0.858972
N	-1.302235	1.531503	-1.489953
O	-2.138229	1.599448	-2.382866
O	-1.015697	2.459337	-0.73815
C	-0.993407	-0.82837	-2.23605
H	-1.166074	-0.535591	-3.271738
H	-1.928161	-1.087245	-1.742344
H	-0.299595	-1.672687	-2.216687
F	-2.353623	0.0	0.0
