15

C	0.0	0.0	0.0
C	-0.194448	-0.056505	-1.543764
F	1.380232	0.0	0.0
H	0.434697	-0.888138	-1.872181
H	-0.385862	0.917734	0.423345
C	-0.520668	-1.165143	0.708918
N	-0.640631	-2.151312	1.340645
N	0.552495	1.147495	-2.07102
O	0.299857	2.243821	-1.576852
O	1.325744	0.969213	-3.014314
C	-1.513158	-0.082827	-2.285496
H	-2.076904	-0.959843	-1.988781
H	-2.119892	0.770173	-2.003927
H	-1.282536	-0.101678	-3.359408
F	-2.373499	0.0	0.0
