15

C	0.0	0.0	0.0
C	-0.591739	-0.328029	-1.35036
F	1.375173	0.0	0.0
H	-1.721764	-0.375831	-1.008531
H	-0.354693	1.000842	0.249574
C	-0.424048	-0.883382	1.10584
N	-0.582724	-1.520413	2.078867
N	-0.109286	-1.622573	-1.854358
O	-0.096821	-1.805275	-3.077009
O	0.206528	-2.49159	-1.03837
C	-0.366147	0.778839	-2.357104
H	-0.843026	1.684699	-1.973838
H	-0.827161	0.528789	-3.311296
H	0.699134	0.974699	-2.525955
F	-2.664674	0.0	0.0
