16

C	0.0	0.0	0.0
C	-0.59915	-0.032323	-1.418092
Cl	1.787487	0.0	0.0
H	-1.712674	-0.036055	-1.127508
N	-0.499538	1.219628	0.586561
H	-1.523922	1.061227	0.566648
H	-0.196948	1.255188	1.555721
C	-0.422774	-1.266175	0.746333
H	-0.017602	-2.169509	0.284017
H	-1.515282	-1.2624	0.733163
H	-0.051867	-1.207093	1.773602
C	-0.261619	-1.239683	-2.158445
N	-0.002479	-2.228456	-2.738584
C	-0.268707	1.155438	-2.197471
N	-0.01939	2.081293	-2.876922
F	-2.863616	0.0	0.0
