16

C	0.0	0.0	0.0
C	-0.314195	-0.351115	-1.489083
Cl	1.838439	0.0	0.0
H	0.364447	0.285711	-2.067367
N	-0.523714	1.308719	0.226358
H	-0.281843	1.58101	1.175247
H	-1.556802	1.084053	0.205372
C	-0.419684	-1.070212	0.994709
H	0.024139	-2.041763	0.768681
H	-1.511944	-1.085736	0.93549
H	-0.094941	-0.762216	1.993275
C	-1.65125	-0.068524	-2.052648
N	-2.437342	0.142103	-2.903888
C	0.042227	-1.740708	-1.800361
N	0.337426	-2.845613	-2.066889
F	-2.75409	0.0	0.0
