16

C	0.0	0.0	0.0
C	-0.499677	0.213338	-1.47527
Cl	1.789545	0.0	0.0
H	0.385228	0.228969	-2.123864
N	-0.495795	1.07933	0.800605
H	-0.229934	0.896296	1.764188
H	-1.52945	0.908248	0.701105
C	-0.384678	-1.390482	0.51222
H	0.018501	-2.189398	-0.115659
H	-1.476658	-1.399032	0.525296
H	0.022715	-1.507585	1.520831
C	-1.166966	1.503389	-1.687192
N	-1.593385	2.548018	-2.010067
C	-1.344096	-0.872211	-1.988988
N	-1.846415	-1.77028	-2.555257
F	-2.705562	0.0	0.0
