16

C	0.0	0.0	0.0
C	-0.519895	-0.306741	-1.414038
Cl	1.801994	0.0	0.0
H	-0.143071	-1.298076	-1.694946
N	-0.422306	1.314191	0.376654
H	0.088238	2.015068	-0.146313
H	-0.274004	1.463006	1.365816
C	-0.452643	-1.044207	1.001957
H	-0.108446	-2.034309	0.693605
H	-1.542635	-0.981638	1.016943
H	-0.020655	-0.821594	1.982067
C	0.059802	0.647655	-2.368183
N	0.549432	1.41618	-3.109646
C	-2.019813	-0.33393	-1.650028
N	-2.708921	-0.534425	-2.600885
F	-2.760062	0.0	0.0
