16

C	0.0	0.0	0.0
C	-0.37149	-0.092588	-1.51236
Cl	1.845486	0.0	0.0
H	0.433513	-0.664574	-1.987072
N	-0.522763	1.195263	0.556186
H	-1.553556	1.007384	0.424155
H	-0.323905	1.200407	1.552686
C	-0.393223	-1.29194	0.707595
H	0.006036	-1.276575	1.726106
H	-0.003067	-2.176775	0.196965
H	-1.48684	-1.275023	0.714648
C	-0.358031	1.228827	-2.149403
N	-0.334821	2.249333	-2.729461
C	-1.59415	-0.831759	-1.882088
N	-2.298319	-1.546258	-2.498786
F	-2.743157	0.0	0.0
