16

C	0.0	0.0	0.0
C	-0.342407	0.234163	-1.508241
Cl	1.789055	0.0	0.0
H	0.336673	1.03614	-1.819343
N	-0.528273	1.131881	0.7046
H	-1.55866	0.931277	0.614878
H	-0.271677	1.034492	1.683307
C	-0.437998	-1.361848	0.523441
H	-1.529807	-1.347867	0.464129
H	-0.000367	-2.182477	-0.049289
H	-0.111176	-1.451989	1.564178
C	-1.68309	0.718886	-1.903624
N	-2.45502	1.25929	-2.610643
C	-0.005946	-0.941403	-2.321027
N	0.277768	-1.869474	-2.982401
F	-2.767552	0.0	0.0
