17
Coordinates from ORCA-job run
  C   -0.57435443861277     -0.03674762441682      0.14983430877597
  C   0.73605250763532     -0.04210107286043     -0.15399751017462
  C   -1.41259127093064     -1.28155250043229      0.27941135030137
  H   -1.03373918910256     -2.12492761244292     -0.29557105034661
  H   -2.43253291731084     -1.06625951228131     -0.04938508494299
  H   -1.45952023132745     -1.59625931532757      1.32618058850834
  C   -1.33635336543450      1.23677496355678      0.39244016874340
  H   -0.70791814351945      2.12123349707576      0.47675890866416
  H   -1.91560442034903      1.14219933666803      1.31613073389732
  H   -2.05596428297491      1.40348500718072     -0.41597305389179
  N   1.39686670508300     -1.33903629770911     -0.37410180060556
  O   2.07635193432043     -1.44212738168416     -1.39679701655830
  O   1.25607543956648     -2.22170879419261      0.47218449394534
  C   1.67655355059758      1.09815567206971     -0.38522824665001
  H   1.23158986311560      2.05041741675876     -0.10616733262555
  H   1.96697703233904      1.13906424352997     -1.43649904546388
  H   2.58911122690471      0.95838997450748      0.20077958842342
