17
Coordinates from ORCA-job run
  C   -0.58787077182051     -0.05292187193887      0.07001858434810
  C   0.75244603517478     -0.01770291961090     -0.04096829253266
  C   -1.42699810615775      1.19488831454086      0.05919494163627
  H   -0.85291664643240      2.11766383065421      0.11397410548197
  H   -2.12032548784696      1.17400206204835      0.90575039633005
  H   -2.03838829576677      1.22592846613870     -0.84875154589241
  C   -1.38698788891087     -1.32157571862143      0.21550653242863
  H   -0.89731234137127     -2.19698386035103     -0.20786693000801
  H   -2.35747239552451     -1.19534977040728     -0.27113532035371
  H   -1.56999059210626     -1.53184253481969      1.27348232453466
  N   1.48897541357262     -1.29179763889019     -0.02355108995094
  O   1.25454700778170     -2.09466929524769      0.87959088786491
  O   2.32038911621890     -1.45685870314062     -0.91777324568144
  C   1.67010304218458      1.14360763810162     -0.26004015028749
  H   1.15443257840395      2.09285883503553     -0.13504978043010
  H   2.50011556209146      1.10663823527594      0.45078869080662
  H   2.09825377050930      1.10311493123247     -1.26317010829445
