17
Coordinates from ORCA-job run
  C   -0.59388567194536     -0.02237966741703     -0.02033716631959
  C   0.75105925195309     -0.05716235666825     -0.02573005545213
  C   -1.36210869688201      1.26623101264899      0.08386037218558
  H   -1.88689775141246      1.31255134060273      1.04383082561145
  H   -0.74760420224921      2.15922042065405     -0.01109242109448
  H   -2.12885067289067      1.29588471960694     -0.69655708321377
  C   -1.46850150021620     -1.24511649405541     -0.11442229343075
  H   -1.75925549036500     -1.42042994864510     -1.15451447250546
  H   -2.38200175737461     -1.08130003248895      0.46296634799035
  H   -0.98848870608345     -2.15388700164450      0.24464271684117
  N   1.41722948644971     -1.36568380991625     -0.12648201721931
  O   2.31708162374346     -1.58661369910399      0.68575839308349
  O   1.06207617794217     -2.14036962234228     -1.01484875028776
  C   1.74293181287038      1.05230918229396      0.13147500939281
  H   1.26964414023033      2.02857406611267      0.05711616340565
  H   2.24590626518805      0.97595459559689      1.09713986321135
  H   2.51166569104176      0.98221729476553     -0.64280543219861
