17
Coordinates from ORCA-job run
  C   -0.58835121794493     -0.04977677300126      0.06948307032993
  C   0.74221744687293     -0.02676973211057     -0.12777045048285
  C   -1.40663218815280      1.20821266163203      0.16637764873032
  H   -2.27382487019649      1.12911298862871     -0.49658633812337
  H   -1.79611645171349      1.32368943026896      1.18327500104736
  H   -0.86264960986895      2.11399200782669     -0.09390353010409
  C   -1.39677669421181     -1.31258391049794      0.21283459142613
  H   -2.22568957414826     -1.13468116280932      0.90272751668722
  H   -0.81988735826940     -2.16220225921064      0.57407163402714
  H   -1.82363301622334     -1.59690080017742     -0.75366120009848
  N   1.46047365817136     -1.30908701439393     -0.20638087244265
  O   1.03164905952384     -2.17821852745689     -0.96529319585048
  O   2.47257293497751     -1.41376247818360      0.48848976660764
  C   1.68202366333435      1.13415742322428     -0.21830047958383
  H   2.32453947536995      1.17017746139609      0.66323633083436
  H   1.14862682195532      2.07791857015391     -0.30448562291043
  H   2.33145792052422      1.02472211471089     -1.09111387009391
