17
Coordinates from ORCA-job run
  C   -0.57683662103194     -0.05167551051208      0.13426851581691
  C   0.72025391212781     -0.01663038190884     -0.22104451503821
  C   -1.39538335179266     -1.31419864184585      0.20772619877131
  H   -2.13545167187515     -1.21912592315463      1.00638546099858
  H   -1.93634083190804     -1.46744054059451     -0.73082914963607
  H   -0.80228464271412     -2.20915453151350      0.38823128112368
  C   -1.34268748899808      1.18957432685973      0.50007678074910
  H   -1.60538928815760      1.16709475778988      1.56284943413394
  H   -2.28440034660736      1.21192361937270     -0.05723327278385
  H   -0.80943444128079      2.11692117149004      0.30082113888901
  N   1.38745961912080     -1.28403795402348     -0.56046224406946
  O   0.84286217631000     -2.03788999161257     -1.36698782476674
  O   2.47573270490675     -1.49239070058980     -0.02171603530250
  C   1.67358181421339      1.13551873758482     -0.27194070539375
  H   2.42325552261721      1.03985367714700      0.51549596474813
  H   2.20403551142139      1.14305567006345     -1.22802438959188
  H   1.16102742364837      2.08760221544763     -0.15661663864817
