17

C	0.0	0.0	0.0
C	-0.504623	-0.051743	-1.451888
F	1.359971	0.0	0.0
H	-1.602655	-0.115786	-1.362237
N	-0.444112	1.17983	0.652382
H	-1.446138	1.053368	0.803527
H	-0.313251	1.939855	-0.005586
N	-0.578523	-1.176186	0.674544
O	-1.742217	-0.916299	1.196239
O	-0.213453	-2.289532	0.216992
N	-0.064448	-1.27999	-2.219148
O	-0.928201	-2.080307	-2.570941
O	1.122743	-1.333327	-2.547478
N	-0.101342	1.135067	-2.15216
H	0.883986	1.056122	-2.374438
H	-0.629837	1.225305	-3.012496
H	-2.93053	0.0	0.0
