17

C	0.0	0.0	0.0
C	-0.58206	-0.25362	-1.408136
F	1.354629	0.0	0.0
H	-1.601207	-0.617864	-1.211295
N	-0.575051	1.091137	0.659503
H	-0.440282	1.915501	0.085979
H	-1.608604	0.863991	0.633762
N	-0.309607	-1.257692	0.853577
O	-0.761067	-1.132159	1.980416
O	0.016751	-2.317602	0.320731
N	0.164018	-1.276256	-2.211776
O	1.301029	-0.971148	-2.57393
O	-0.421527	-2.311488	-2.517399
N	-0.689649	0.915276	-2.235388
H	-1.547793	1.391583	-1.983012
H	0.109885	1.527945	-2.147334
H	-2.991938	0.0	0.0
