14

C	0.0	0.0	0.0
C	-0.526122	-0.006136	-1.42021
F	1.403218	0.0	0.0
H	-0.351012	0.961464	-1.887162
H	-1.609165	-0.203567	-1.35406
N	-0.485578	1.173771	0.619029
H	-0.579474	1.106793	1.619254
H	0.034651	1.988303	0.328303
C	-0.39554	-1.181607	0.791567
N	-0.564875	-2.091469	1.512627
N	0.138535	-1.017458	-2.276229
O	0.460215	-0.671546	-3.413438
O	0.305593	-2.14079	-1.807277
Cl	-3.623616	0.0	0.0
