14

C	0.0	0.0	0.0
C	-0.447715	0.191802	-1.457326
F	1.379893	0.0	0.0
H	-1.536216	0.326015	-1.453245
H	-0.150344	-0.652876	-2.075943
N	-0.471951	0.920945	0.974476
H	-0.340462	1.857111	0.608602
H	-1.480423	0.763033	1.056172
C	-0.388586	-1.380098	0.391966
N	-0.502643	-2.511779	0.682637
N	0.192284	1.384363	-2.070854
O	0.162835	2.445803	-1.446339
O	0.694905	1.247722	-3.187039
Cl	-3.452071	0.0	0.0
