16
Coordinates from ORCA-job run
  C   0.98087829803534      0.06680652727905      0.03572599370917
  C   -0.44589784805860     -0.22117085762862      0.53985800648255
  Br  1.81113831959955      1.28083983138194      1.47116877178165
  H   -0.36755959411022     -0.66772716792080      1.53101036560759
  N   0.98934014483034      0.61233377804450     -1.25415462818058
  H   1.92013414364549      0.73073456136710     -1.63176118376011
  H   0.45860813019433      1.46901206975154     -1.33077656602275
  C   1.82768022032278     -1.12487316717515      0.07834715868383
  N   2.53299124071697     -2.06522900628200      0.08016903271976
  N   -1.00670966141938     -1.32399971744183     -0.33295021568264
  O   -1.63207488331873     -0.99939941161832     -1.33698055145227
  O   -0.77718536985866     -2.47311449334730      0.03960688277708
  C   -1.38663795002047      0.96534164682347      0.52494141661487
  H   -0.99410783304990      1.76593395370123      1.15045405028266
  H   -1.55567266788473      1.32620224727356     -0.48872988616738
  H   -2.35492468962412      0.65830920579161      0.92407135260658
