16
Coordinates from ORCA-job run
  C   0.98431870647321      0.22500748181089      0.08248745537529
  C   -0.41218585449112     -0.18780898617930      0.58871596483998
  Br  1.74569119116264      1.41875986054264      1.45375622867702
  H   -0.31712470529431     -0.55187697225420      1.61210830464447
  N   0.92313425837202      0.96159911319341     -1.14844503513920
  H   1.85233556888252      1.24620881438128     -1.43576173011263
  H   0.51691982453781      0.36419934603058     -1.86184533273557
  C   1.86522428489470     -0.95524888390612      0.05788819088208
  N   2.55855298747347     -1.90284531727025     -0.01668912619587
  N   -0.89454977460118     -1.38337915734913     -0.18987867604950
  O   -0.74007412774932     -1.36529858936046     -1.41148017692217
  O   -1.45405357341239     -2.26818318109102      0.44777757380759
  C   -1.46410346704542      0.90001907158381      0.47128446278052
  H   -2.40479303679079      0.53407166447411      0.88760907933077
  H   -1.60821572747413      1.18524975259356     -0.56953621286275
  H   -1.14907655493745      1.77952598280025      1.03200902967977
