16
Coordinates from ORCA-job run
  C   0.98398079389905      0.04162899387564      0.15178877094614
  C   -0.49185142130637     -0.03630060241344      0.56866922744613
  Br  2.07686432336240     -0.81352472883421      1.53109256489319
  H   -0.57290538094188      0.48078978158837      1.52464213910713
  N   1.35089376624286      1.44839263472652      0.11953492904235
  H   0.98920982074145      1.86621177593992     -0.73291937912946
  H   2.36125426701264      1.53359064065518      0.09424054758615
  C   1.26181708849995     -0.64442393151738     -1.11744934385392
  N   1.52230275946763     -1.05962240697488     -2.18692468354494
  N   -0.89616454739983     -1.45234416694735      0.83769884895355
  O   -1.32911079386391     -1.70394223537902      1.95904542138438
  O   -0.79273751352390     -2.24472285039501     -0.09559575688983
  C   -1.43257270589822      0.53753082668779     -0.47746353815496
  H   -2.46509278477755      0.40855307699721     -0.14618593849059
  H   -1.30836423539938      0.02956981071422     -1.43524441060986
  H   -1.25752343611493      1.60761338127645     -0.59692939868548
