16
Coordinates from ORCA-job run
  C   0.98205551440492      0.19893454028376      0.14680484438465
  C   -0.44291068898938     -0.22835888340193      0.55218935984316
  Br  1.69768337581837      1.25681433165748      1.64837095280374
  H   -0.40109336696131     -0.67940987137717      1.54394013698379
  N   0.98967470456021      1.03772923860092     -1.01791208209221
  H   1.93598964403967      1.32335295969181     -1.24150779746275
  H   0.60077804751292      0.51423829793405     -1.79615376097842
  C   1.84431518170922     -0.99220980777127      0.06098189170086
  N   2.52460920665998     -1.94394955344848     -0.06436896625663
  N   -0.90315724101520     -1.34529594764679     -0.34706685302371
  O   -0.71678904768898     -1.21137722187446     -1.55706302662230
  O   -1.47441502432043     -2.28810809592844      0.18899176769525
  C   -1.47118174071225      0.88536068475820      0.47867540855473
  H   -1.16928815896764      1.70913745010988      1.12471558125455
  H   -2.43625411767438      0.50485865859108      0.81949350981561
  H   -1.56201628837573      1.25828321982138     -0.54009096660033
