16
Coordinates from ORCA-job run
  C   0.98062632757863      0.08147548963299     -0.00595752506640
  C   -0.42248534702782     -0.19024367021032      0.56926635216010
  Br  1.84339383903400      1.40049497027200      1.31287733574636
  H   -0.30075692171815     -0.56950060481027      1.58384070805234
  N   0.93429622739313      0.53858575445048     -1.32884252763773
  H   1.84837233602580      0.63952857877870     -1.74953367934318
  H   0.39045494350580      1.38283687605181     -1.44269422596519
  C   1.84572392426933     -1.09416894906988      0.08558392445906
  N   2.56280837787976     -2.02467393202155      0.12642576334023
  N   -0.99862030438482     -1.35456090450236     -0.20799701506539
  O   -1.66618650253167     -1.10390894899156     -1.20611765561659
  O   -0.73884071501272     -2.47403101194748      0.22945092026222
  C   -1.38076454348958      0.98082288808296      0.51245795169089
  H   -1.58792103484688      1.27584247943741     -0.51535190996538
  H   -2.33092952017422      0.68667066241059      0.96174597333339
  H   -0.98017108650060      1.82383032243649      1.07384560961527
