16
Coordinates from ORCA-job run
  C   0.88931845311657      0.07414643819068     -0.32551639508386
  C   -0.53034642739630      0.08035896921564      0.27648030271550
  Br  1.13618609016673     -1.34666569235032     -1.65803070726611
  H   -0.58623569354447      0.97437347373999      0.90506597021349
  N   1.85476528980942     -0.14220090926960      0.71448700746417
  H   1.71493620274635      0.50487944275971      1.48363010909533
  H   2.79986563050146     -0.06020440947704      0.36042975042940
  C   1.04609715425627      1.34101012326612     -1.06138957570859
  N   1.18882922611594      2.38647793917176     -1.58207348830993
  N   -0.63879996124596     -1.05538619075502      1.25288136581692
  O   -0.44079265255423     -0.77800080216951      2.43425494554518
  O   -0.90990623157040     -2.16367040926191      0.80401966344886
  C   -1.66668007810777      0.04760537751378     -0.72046980988932
  H   -1.56956179979356      0.87509809746531     -1.42611737619964
  H   -2.61657973016515      0.15509346042766     -0.19318897362545
  H   -1.67209547233492     -0.89391490846726     -1.26546278864595
