13

C	0.0	0.0	0.0
C	-0.500789	0.135378	-1.445556
Br	1.942215	0.0	0.0
H	0.355641	0.085309	-2.137712
H	-0.308007	-0.968557	0.370947
C	-0.439648	1.05091	0.908293
N	-0.540189	1.928053	1.685026
C	-1.231361	1.36332	-1.724627
N	-1.614162	2.422907	-2.053346
N	-1.314483	-1.0755	-1.845861
O	-0.945283	-2.153245	-1.397096
O	-2.155647	-0.911324	-2.717162
F	-2.302556	0.0	0.0
