13

C	0.0	0.0	0.0
C	-0.428895	0.059646	-1.46979
Br	1.943698	0.0	0.0
H	0.070053	0.894341	-1.966207
H	-0.354385	-0.913358	0.463891
C	-0.426919	1.184316	0.73365
N	-0.581376	2.178458	1.340865
C	-1.886998	0.105338	-1.764115
N	-2.636213	0.190368	-2.680745
N	0.112133	-1.16614	-2.16702
O	-0.029241	-2.243799	-1.597384
O	0.626479	-1.000462	-3.269254
F	-2.409176	0.0	0.0
