13

C	0.0	0.0	0.0
C	-0.420216	-0.031769	-1.474087
Br	1.943884	0.0	0.0
H	0.074312	0.777209	-2.016698
H	-0.351077	-0.885809	0.515854
C	-0.43016	1.228062	0.655478
N	-0.577333	2.262437	1.191641
C	-1.872817	-0.015408	-1.789205
N	-2.618175	0.003719	-2.713025
N	0.13711	-1.291301	-2.096505
O	0.656965	-1.184554	-3.20312
O	0.000859	-2.334937	-1.466295
F	-2.40144	0.0	0.0
