20

C	0.0	0.0	0.0
C	-0.386523	-0.182583	-1.481051
Cl	1.875113	0.0	0.0
H	0.26722	0.492764	-2.045682
C	-0.428725	1.33859	0.562695
H	-0.001366	1.486399	1.558294
H	-0.08959	2.152662	-0.079358
H	-1.51879	1.348659	0.632947
N	-0.509706	-1.041132	0.80165
H	-0.156875	-1.950562	0.547097
H	-0.378139	-0.872922	1.789267
C	-1.842395	0.204241	-1.752859
H	-2.08685	-0.054103	-2.788469
H	-2.01507	1.276245	-1.640554
H	-2.558593	-0.305615	-1.103251
C	-0.129013	-1.609359	-1.964623
H	-0.235355	-1.65236	-3.051854
H	0.875827	-1.959112	-1.712176
H	-0.871256	-2.292573	-1.541974
Br	-5.192548	0.0	0.0
