20

C	0.0	0.0	0.0
C	-0.502208	0.004611	-1.449089
Cl	1.868471	0.0	0.0
H	-1.589733	0.102993	-1.315195
C	-0.453764	1.218797	0.777717
H	-0.057548	2.138979	0.351026
H	-1.548676	1.225049	0.760655
H	-0.104302	1.152272	1.812161
N	-0.454591	-1.164063	0.665063
H	-0.047519	-2.007747	0.287986
H	-0.285819	-1.117327	1.66051
C	-0.244113	-1.317783	-2.167581
H	-0.568601	-1.238147	-3.208816
H	0.820075	-1.575777	-2.164801
H	-0.820523	-2.126227	-1.715588
C	0.011866	1.175582	-2.280551
H	-0.501706	1.180004	-3.246209
H	1.086697	1.094832	-2.463422
H	-0.186693	2.137985	-1.805937
Br	-4.156244	0.0	0.0
