17
Coordinates from ORCA-job run
  C   -0.46913058711822     -0.27722103625993     -0.32381557668349
  C   0.94881355887152      0.33335249296517     -0.36966589800855
  Br  -0.52486366919742     -1.68004930787854     -1.69741373374945
  H   1.14784246746484      0.72164208503952     -1.37085766509234
  C   -1.46120184908825      0.81005883921197     -0.72224714086125
  H   -1.20626857407873      1.25044382541388     -1.68858349252474
  H   -1.47658904888332      1.59784607459378      0.03662269468892
  H   -2.46229103136198      0.38241034689573     -0.79472336820615
  C   -0.83079330624442     -0.89225790967821      1.01860226182810
  H   -1.85915459905844     -1.25539111527466      0.97617623193522
  H   -0.76096169563101     -0.13387926427639      1.80405019286496
  H   -0.17817665825533     -1.72253509984062      1.28082381417115
  N   2.03856713000535     -0.68527992131559     -0.11924821175369
  O   2.71692131748659     -1.00176786018400     -1.08937567730676
  O   2.14675026773279     -1.11028474073961      1.02627815719489
  C   1.08098615883936      1.39581779135699      0.62362046224155
  N   1.14755011851668      2.26709479997052      1.40875694926163
