17
Coordinates from ORCA-job run
  C   -0.58950126659150      0.33880306644950     -0.00085209085009
  C   0.91897743463891      0.62121738008099     -0.18446013962145
  Br  -1.39091792261534      2.13124311728838      0.15793914659250
  H   1.06662401312639      1.30032505998925     -1.02586082794525
  C   -0.90236274601766     -0.43603759824972      1.26778620318938
  H   -0.52892570363374      0.07699065572622      2.15494671472197
  H   -1.98334674225672     -0.55129276555249      1.36395137913352
  H   -0.44627822796911     -1.42761947774631      1.22069116789499
  C   -1.16221165899723     -0.33112525983750     -1.24076923728855
  H   -0.77960838008826     -1.35212970710695     -1.32697918417700
  H   -0.90586570590453      0.21511838524650     -2.15018394778686
  H   -2.24878572139728     -0.38174421728372     -1.15862268332342
  N   1.61929367739003     -0.66173689655513     -0.58736199425101
  O   1.86836702337503     -1.47185684707379      0.29933778986012
  O   1.83762768475218     -0.79710617570756     -1.78736199572160
  C   1.55640102959658      1.14736673618230      1.01623893362775
  N   2.06851321259224      1.57758454415005      1.98156076594501
