17
Coordinates from ORCA-job run
  C   -0.51815421402868     -0.03773355270226      0.20387653351820
  C   0.93526040829099      0.34527271232564     -0.14740998570216
  Br  -0.84004340436091      0.33847798737020      2.10020442422740
  H   1.08593459326436      0.12278307232697     -1.20883668250600
  C   -0.78456195873558     -1.51473484209945     -0.04944779804796
  H   -0.54931479129113     -1.76218069999805     -1.08928909708711
  H   -0.19320561560216     -2.15951533913660      0.59910185375550
  H   -1.84072223264242     -1.72181982967463      0.13046683438593
  C   -1.45223681273387      0.84144975929321     -0.61983134782736
  H   -2.48827936685149      0.59074626311175     -0.38752462601951
  H   -1.28351646580341      0.66011957446166     -1.68677905674801
  H   -1.30131354329290      1.90134936385521     -0.41107748314084
  N   1.94153907124930     -0.52695285424480      0.56810099895924
  O   2.18665320932237     -1.59809532941381      0.01907009643662
  O   2.40432107885797     -0.12030170281718      1.62616419527419
  C   1.23665418385948      1.74847991442932      0.10573940858710
  N   1.45898586049814      2.89265550291280      0.24947173193476
