17
Coordinates from ORCA-job run
  C   -0.47040666547192     -0.27524166965729     -0.39064574076015
  C   0.95778889338340      0.31906571924638     -0.38371892538903
  Br  -0.65210305870444     -1.49240202331778     -1.92502257410874
  H   1.25576563817910      0.57901369813686     -1.40507082642881
  C   -1.47858024125728      0.84872002739776     -0.61918281359459
  H   -1.50759016600548      1.51746535476912      0.24401585295476
  H   -1.23367153955437      1.43152316592225     -1.51009775757753
  H   -2.47029154742345      0.41683064016949     -0.75942886522887
  C   -0.76563721108636     -1.03321080773856      0.89471465250928
  H   -0.62197451076363     -0.36785078433156      1.75333370212858
  H   -0.12212209422086     -1.90559191018657      1.00607343757598
  H   -1.80338803809739     -1.37063896446954      0.89243357041577
  N   2.03188719731328     -0.65484315641113      0.09986046119316
  O   2.87825150916147     -0.20828041038311      0.86579168224338
  O   1.99488476063933     -1.78470762504854     -0.36551904589476
  C   1.01422016881074      1.50767449979015      0.46446154806750
  N   0.99196690509786      2.47147424611207      1.13600164189407
