13
Coordinates from ORCA-job run
  C   1.02486905106292     -0.39403075890984     -0.21169952187227
  C   -0.39401244214373      0.18323454626844     -0.22123328235111
  F   1.42712685213283     -0.60704274125181      1.08989336859637
  H   -0.66741988817852      0.34800900574008     -1.27049914277897
  H   1.02398687566769     -1.36258869429048     -0.72244939965548
  C   1.98104598586184      0.50018605323585     -0.87953899827921
  N   2.72740597614754      1.20858119761206     -1.44397177128468
  C   -0.40959248555454      1.48193915249359      0.45679092505313
  N   -0.44372785890320      2.51365902268208      1.01545110492545
  C   -1.38402762914480     -0.78795692517091      0.42875111495838
  H   -1.10727262066054     -0.97311835022178      1.46641657388442
  H   -1.38828183489982     -1.73714384329227     -0.11220938705185
  H   -2.39209998138768     -0.37272766489500      0.40529841585582
