13
Coordinates from ORCA-job run
  C   0.83926237082011     -0.17852655296908     -0.88054778792002
  C   -0.58024063563718      0.11260500818462     -0.37497505592428
  F   0.90754510949565     -1.51356058860426     -1.23026024898200
  H   -1.25284737356779     -0.17383156271894     -1.19175354574788
  H   1.05853468787454      0.41237968005497     -1.77415260478465
  C   1.84913434645410      0.10199272495798      0.15023366787431
  N   2.64807324404228      0.32685000405076      0.98011489333883
  C   -0.71470137462542      1.55364050353936     -0.15607101184112
  N   -0.80356705735908      2.70972817811911      0.02826476530371
  C   -0.92255319676010     -0.68878044074959      0.88231005033823
  H   -1.96337223796256     -0.52135099137017      1.16179859776326
  H   -0.77899251253802     -1.75236016502939      0.68935248213520
  H   -0.28727537023654     -0.38978579746537      1.71768579844640
