13
Coordinates from ORCA-job run
  C   1.09138152610341      0.22497866798022     -0.38214812629151
  C   -0.43762591461616      0.27271222029131     -0.29347025190456
  F   1.51613500007765      1.00575351979757     -1.43518221581877
  H   -0.82767447483708     -0.07561743597594     -1.25622718308238
  H   1.53863649738430      0.62280159932888      0.53425127615700
  C   1.55178624512931     -1.15611106821235     -0.58948409232944
  N   1.89519622511841     -2.26765353078976     -0.74450765185397
  C   -0.84772873559779      1.66743004147148     -0.11420119225084
  N   -1.18230247833906      2.77787128034559      0.06655344233233
  C   -0.97110423572184     -0.60559126034426      0.84250281605987
  H   -2.05678864713682     -0.52322750544717      0.89912389167819
  H   -0.55612092882932     -0.29077306345561      1.80245527467331
  H   -0.71279007873501     -1.65157346498997      0.67033401263078
