13
Coordinates from ORCA-job run
  C   0.99017371442078     -0.39239893149743     -0.34056670775409
  C   -0.40219249127100      0.22133382655632     -0.16450873465220
  F   1.48194149366794     -0.77875389008434      0.88839075548130
  H   -0.74816331993405      0.52722098262946     -1.15926630514690
  H   0.91287092397431     -1.28875972750307     -0.96452401522499
  C   1.92632826382578      0.55076723194536     -0.96786776850446
  N   2.65374432322756      1.30359830647055     -1.49851945968719
  C   -0.31677520624458      1.42216055883729      0.67085032629215
  N   -0.27001752587003      2.37425061411918      1.35568771641291
  C   -1.37616600876848     -0.79689812149314      0.43602948597099
  H   -2.36736018821421     -0.35507337064814      0.54279549821420
  H   -1.03024878613429     -1.11829731924094      1.41813454741157
  H   -1.45513519267973     -1.67015016009110     -0.21563533881328
