13
Coordinates from ORCA-job run
  C   0.89453919722455     -0.27125252377560     -0.80209672227718
  C   -0.54398154396107      0.10881568977864     -0.42597311535806
  F   0.93087089215512     -1.62922813231374     -1.05320340331370
  H   -1.16722573444694     -0.20172202496124     -1.27257988626160
  H   1.20339254037410      0.24544136315879     -1.71494366479606
  C   1.83719395950248      0.04632039447974      0.28005329252852
  N   2.57861764926149      0.31161214892768      1.15044002083721
  C   -0.63104535978545      1.56481556834269     -0.30311513205736
  N   -0.68905516586052      2.73149568030897     -0.18565126135721
  C   -1.01381245363814     -0.59546681649821      0.84844271821439
  H   -2.06259276854146     -0.36443933948129      1.03889692371142
  H   -0.42613188445977     -0.27177376712484      1.70931562865510
  H   -0.90876932782439     -1.67461824084159      0.73141460147454
