13
Coordinates from ORCA-job run
  C   0.85583387762728     -0.22899550881571     -0.85389895925484
  C   -0.57055616928534      0.09954420843979     -0.39259052260324
  F   0.91506161220629     -1.57954649038447     -1.14149894262759
  H   -1.22896592416840     -0.22395737044216     -1.20702009660470
  H   1.10096696508846      0.31831668349116     -1.76835978877240
  C   1.84691017789766      0.08646990050619      0.18517820407554
  N   2.62698078829086      0.33980922836538      1.02454679987398
  C   -0.69827728721762      1.55070380696433     -0.25134061628509
  N   -0.78681003375625      2.71513594619019     -0.12946906274747
  C   -0.94438630286650     -0.63288207494492      0.89727708784245
  H   -0.79618508181348     -1.70521119231947      0.76561769558735
  H   -0.32987484184289     -0.28843329933086      1.73062850709313
  H   -1.99169778016007     -0.45195383771945      1.14192969442289
