13
Coordinates from ORCA-job run
  C   0.86307111556761     -0.21255929605176     -0.85096269389871
  C   -0.56565460930471      0.11333598570712     -0.39515148501254
  F   0.91956359133425     -1.55661536960122     -1.16673954272898
  H   -1.21889784114880     -0.17974834523576     -1.22521344662128
  H   1.11864029421070      0.35289947520067     -1.75144094572716
  C   1.84574174687835      0.07712616066615      0.20324181926765
  N   2.61901863308565      0.31077362213610      1.05466485997683
  C   -0.68284948652351      1.56079537882673     -0.21202446833645
  N   -0.76251927048800      2.72175637551128     -0.05625795358991
  C   -0.95910054495625     -0.65377511496501      0.86861630093019
  H   -0.34445331536326     -0.34615342048318      1.71620173404934
  H   -0.82761874632773     -1.72361768306365      0.70382250211837
  H   -2.00494156696431     -0.46321776864746      1.11224331957265
