13
Coordinates from ORCA-job run
  C   0.88550367001239     -0.22791140296344     -0.82429379734432
  C   -0.54721827622284      0.13714153645664     -0.41217138488492
  F   0.90856398038497     -1.56636940338996     -1.16444464333372
  H   -1.17984874040682     -0.12531347969037     -1.26821049536934
  H   1.19178163175813      0.34604251672846     -1.70311731941312
  C   1.83883708582695      0.00951722667778      0.26899263883150
  N   2.58825464837728      0.20186347924020      1.15149036552548
  C   -0.62653698382578      1.58546276092898     -0.21479396723874
  N   -0.67698575528749      2.74640024398438     -0.04734010729811
  C   -1.00791360267950     -0.63331649587227      0.82634727889182
  H   -0.41360187186089     -0.35720225230700      1.69878251125328
  H   -0.90490729941028     -1.70448895812528      0.65057190145093
  H   -2.05492848666612     -0.41282577166812      1.03718701892926
