15
Coordinates from ORCA-job run
  C   0.65246553830356     -0.92292393113300      0.09582636517833
  C   -0.26571502986356      0.19896390150034      0.56665464427696
  Br  2.31449845355825     -0.86906793593817      1.33277040243156
  H   -0.40117471906066      0.07881890602941      1.64994764858556
  H   0.25669646797455     -1.90668878090074      0.34506595073887
  N   0.95273957521778     -0.80490842486091     -1.25932550617562
  H   1.25174986491856      0.13732247705759     -1.47789541602149
  H   1.59754667926436     -1.50073964102261     -1.60323348626858
  C   -1.62101914447204      0.07795208363318     -0.11975110678960
  H   -1.51352831749909      0.22293170297708     -1.19454016896922
  H   -2.06222478928318     -0.90535253966558      0.05826207424157
  H   -2.31071226718202      0.82957749523374      0.27568441441313
  N   0.35267981678842      1.47268943024872      0.20355259597962
  H   1.12036089581788      1.67018397924716      0.83530056005066
  H   -0.32336302448279      2.22124127759379      0.29068102832824
