15
Coordinates from ORCA-job run
  C   0.99798008575768     -0.40342231644174     -0.19850158599405
  C   -0.23608784865856      0.23615418362565      0.43393162977588
  Br  1.60533408759484      0.56798191597907     -1.78061171441538
  H   -0.53746891100001     -0.48550602432672      1.21824466932488
  H   1.84408915382108     -0.30404418383413      0.49489626580060
  N   0.70378776285512     -1.76388895711193     -0.59697894229638
  H   1.52064836024025     -2.19122829063637     -1.01567428772116
  H   0.44952349437325     -2.30175114512686      0.22522769839631
  C   -1.39659348503324      0.38328796338593     -0.53408251348663
  H   -1.54862717883340     -0.54085379070692     -1.09114284650448
  H   -2.31397738047575      0.62005543746144      0.01285031091627
  H   -1.19217144914449      1.19330868819738     -1.23515236233425
  N   0.11851518877007      1.53637490486650      0.98694123967864
  H   -0.72054987873143      2.02428602503676      1.27559488309213
  H   0.70659799846461      1.43024558963196      1.80545755576763
