15
Coordinates from ORCA-job run
  C   0.72537541644608     -0.86264928633814      0.13174565158623
  C   -0.27997164481934      0.20015393692461      0.55964602885649
  Br  2.37943655397488     -0.62220797033611      1.35608307131558
  H   -0.40374987314020      0.11487544665839      1.64762076575058
  H   0.41222652980305     -1.86426354219415      0.42384010004735
  N   1.01192162163922     -0.77859390832191     -1.22923504183645
  H   1.71127987950377     -1.43367564281946     -1.54564412217590
  H   1.23330083770733      0.17469068526407     -1.48858268820690
  C   -1.62198703852796     -0.05761817637406     -0.11515535707305
  H   -2.37074594716793      0.64844577255333      0.25610761578277
  H   -1.98012888067113     -1.06705655120966      0.09940825815392
  H   -1.52848611406029      0.05666536696402     -1.19500619327267
  N   0.23306054368374      1.50328096567991      0.14040403587999
  H   0.98147393899901      1.78974208236494      0.76118805164129
  H   -0.50200582337024      2.19721082118421      0.19757982355076
