15
Coordinates from ORCA-job run
  C   0.59688017952394     -0.74852449505721     -0.37923134379167
  C   -0.24207423005239      0.31442181132889      0.32229228624488
  Br  0.47820317573914     -2.48998693089529      0.63272062804643
  H   0.21700384272059      0.48872867918137      1.31208321275604
  H   0.15766532297992     -0.97914197894545     -1.34985302458467
  N   1.93617414450195     -0.30926078046253     -0.54104766076980
  H   2.40375765359720     -0.23366798472572      0.35455020332117
  H   2.46948861887090     -0.93085918561538     -1.13422318813645
  C   -1.69595831760327     -0.08409282051370      0.51461064807605
  H   -2.26121583887365      0.76648211007260      0.90579518252420
  H   -2.13260626803065     -0.36346935751815     -0.44701362185294
  H   -1.80387937509566     -0.91173826515269      1.21381025021653
  N   -0.19512865368544      1.47835640898221     -0.56059016568885
  H   0.76767445425206      1.75328472488214     -0.70828053374387
  H   -0.69598470884465      2.25046806443891     -0.13762287261704
