15
Coordinates from ORCA-job run
  C   0.61681191482085     -0.87293658258130     -0.30174385375848
  C   -0.14446071971647      0.24591912354272      0.41299253494246
  Br  0.34648835286875     -2.58893569485752      0.63482531514027
  H   0.28118569811822      0.30727127426862      1.41990868321084
  H   0.16198370534156     -1.05958951587550     -1.28483958557542
  N   2.01469985242853     -0.56994309078825     -0.31509801041106
  H   2.10316026558126      0.41107061627744     -0.55836616211603
  H   2.51097395122055     -1.14571909970632     -0.98199520646804
  C   -1.64764963136115      0.00694125926022      0.49232127675379
  H   -2.13427383043365      0.87522082715163      0.94377945240637
  H   -1.89706241219434     -0.87267858214465      1.08533089882675
  H   -2.06366425175076     -0.12950851778771     -0.51175596328914
  N   0.20532400676213      1.49396057472582     -0.28332272746083
  H   -0.40506596868231      1.61644711186666     -1.08480931557251
  H   0.05154906699683      2.28348029664813      0.33177266337103
