15
Coordinates from ORCA-job run
  C   0.96937943036585     -0.35441990283724     -0.17797845254518
  C   -0.28437794622459      0.18565887170987      0.52336153872713
  Br  1.53989259100032      0.84761417990520     -1.63198235489922
  H   -0.49015980712999     -0.55369653862452      1.31349913758595
  H   1.81517667578094     -0.29515725537476      0.51965699012109
  N   0.73486659926239     -1.65975043186264     -0.73734808310745
  H   1.60013528943759     -2.08358675846164     -1.04776184745758
  H   0.31256255531386     -2.25747743700426     -0.03497773920937
  C   -1.49509292331155      0.25599389114559     -0.39294784720543
  H   -2.37817254765397      0.49486550211900      0.20130500927004
  H   -1.64880256233689     -0.68493084322616     -0.92102429431438
  H   -1.36166073281389      1.04214526257952     -1.13931441698890
  N   -0.10152132884245      1.46328357531844      1.19283371021519
  H   0.68528716145745      1.42413564588636      1.83118283655392
  H   0.10348754569493      2.17632223872724      0.50149581325420
