15
Coordinates from ORCA-job run
  C   0.63961451560438     -0.86206797135674      0.09149692349334
  C   -0.31700438209583      0.20253093426734      0.64260140381476
  Br  2.27412721773695     -0.90021667295332      1.31672418010830
  H   -0.43370914785692      0.00062201219136      1.71142270649768
  H   0.23290220628159     -1.86382207650243      0.23271877258858
  N   0.96916256685610     -0.65372863099266     -1.26113769423285
  H   1.46519630716562      0.21805374157370     -1.39142173711977
  H   1.52156444397835     -1.40794183740072     -1.64501354916563
  C   -1.67438211820451      0.05929605101437     -0.03652701039380
  H   -1.58812703787749      0.24134367472907     -1.10961175657280
  H   -2.36808155700869      0.78343323310609      0.39345493195846
  H   -2.08255003721140     -0.94439233480230      0.10384853226660
  N   0.14253646212888      1.57400428594462      0.50913292970006
  H   1.06793576747800      1.68925098884128      0.90435061153157
  H   0.15081479302497      1.86363460234035     -0.46103924447450
