15
Coordinates from ORCA-job run
  C   0.63892490319645     -0.93306709029176      0.09517304771853
  C   -0.26032318595353      0.20355013438349      0.56791980247037
  Br  2.30549975148832     -0.90265561021921      1.32535953848588
  H   -0.39321418061998      0.08675296315679      1.65186859968510
  H   0.22921949004544     -1.91059945324409      0.34654947088858
  N   0.93513388851422     -0.82137039868339     -1.26163834672923
  H   1.56802130653422     -1.52772135033450     -1.60649903357596
  H   1.24907377986844      0.11555514384139     -1.48236579584943
  C   -1.61983141786719      0.10318430799243     -0.11349449499077
  H   -2.29793564998768      0.86218865418210      0.28781811429850
  H   -1.51414462120908      0.25107705720959     -1.18812760948773
  H   -2.07337358173542     -0.87502817412647      0.06154192927507
  N   0.37635443598410      1.46713042948092      0.20079152972059
  H   1.14616758921167      1.65678351632614      0.83221790197028
  H   -0.28957250746998      2.22521987032654      0.28288534612023
