15
Coordinates from ORCA-job run
  C   1.06543189463540     -0.51024080637956     -0.10972895167196
  C   -0.13977876148566      0.20437592533185      0.51060387306294
  Br  1.77157104748223      0.56663184510754     -1.60859212656869
  H   -0.43175234104506     -0.45955839193152      1.33740520663094
  H   1.86890218949935     -0.50040924039906      0.62801584073880
  N   0.87304786327360     -1.85380758446412     -0.57643774277941
  H   0.76198460344081     -2.48239840279461      0.20986544559393
  H   0.06996860701001     -1.92741364158013     -1.18663001799751
  C   -1.33580978221056      0.35321657733903     -0.42647415220256
  H   -1.09369993234370      1.01513389795476     -1.26005409484001
  H   -1.67392231657607     -0.60498889264848     -0.83140988775532
  H   -2.17615817683655      0.78742776478386      0.12140160696108
  N   0.31805960659099      1.44698947911262      1.12382216766653
  H   -0.43061196993204      1.85119519276440      1.67441443824856
  H   0.55376746849727      2.11284627780344      0.39579839491268
