15

C	-0.520015	-0.008328	-1.399702
C	0.0	0.0	0.0
F	0.058025	-0.951751	-2.156382
H	1.092526	0.0	0.0
H	-0.313525	-0.949885	0.452845
N	-2.03149	-0.27138	-1.511964
O	-2.696199	-0.249861	-0.481683
O	-2.452328	-0.50549	-2.639479
N	-0.34312	1.331772	-2.094513
O	0.735502	1.509705	-2.640425
O	-1.280209	2.119203	-2.019487
N	-0.420974	1.193968	0.708904
H	-1.216713	1.019174	1.303834
H	0.367621	1.505098	1.264567
H	2.810223	0.0	0.0
