15

C	-0.573477	-0.080679	-1.374227
C	0.0	0.0	0.0
F	-1.91095	0.12461	-1.416151
H	1.091239	0.0	0.0
H	-0.325358	0.969504	0.391958
N	0.050308	0.982217	-2.266867
O	0.912725	0.634078	-3.061811
O	-0.360342	2.121446	-2.06921
N	-0.316787	-1.39772	-2.075168
O	-1.046524	-1.637062	-3.034568
O	0.596687	-2.092046	-1.655451
N	-0.508392	-1.128895	0.783347
H	-0.988451	-0.790359	1.60498
H	0.307016	-1.648525	1.092532
H	2.820532	0.0	0.0
