15

C	-0.40247	0.023847	-1.443192
C	0.0	0.0	0.0
F	0.013708	-1.051075	-2.117726
H	1.092556	0.0	0.0
H	-0.377771	0.898823	0.489041
N	-1.921994	0.072628	-1.597845
O	-2.493247	-1.010595	-1.705948
O	-2.461886	1.1716	-1.501502
N	0.083373	1.259684	-2.187273
O	0.212297	1.136445	-3.401078
O	0.266844	2.272421	-1.527724
N	-0.406349	-1.219972	0.681044
H	0.338189	-1.895781	0.560223
H	-1.263523	-1.615379	0.313705
H	2.759991	0.0	0.0
