15

C	-0.5259	-0.004837	-1.396579
C	0.0	0.0	0.0
F	0.051869	-0.942135	-2.161597
H	1.09257	0.0	0.0
H	-0.312194	-0.950696	0.452823
N	-2.03721	-0.275713	-1.500617
O	-2.463454	-0.516304	-2.624806
O	-2.697741	-0.250409	-0.467355
N	-0.357931	1.338742	-2.088308
O	-1.302031	2.114811	-2.020232
O	0.721888	1.529937	-2.627606
N	-0.418984	1.192702	0.712128
H	-1.219321	1.01971	1.299808
H	0.366336	1.497807	1.274193
H	2.807258	0.0	0.0
