14

C	-0.285912	-0.123988	-1.475781
C	0.0	0.0	0.0
Cl	-2.069446	-0.31742	-1.835316
H	1.104138	0.0	0.0
H	-0.049503	0.848011	-1.918541
N	0.445106	-1.24754	-1.98379
H	1.392532	-1.170457	-1.597259
H	0.505387	-1.195884	-2.99349
C	-0.455944	-1.161937	0.758325
N	-0.823261	-2.045323	1.442375
N	-0.433892	1.276119	0.54995
H	-1.324817	1.184347	1.022683
H	0.262753	1.559641	1.231638
H	2.72333	0.0	0.0
