14

C	-0.286317	0.152571	-1.502936
C	0.0	0.0	0.0
Cl	-0.171587	-1.505729	-2.342403
H	1.097619	0.0	0.0
H	-1.318996	0.444168	-1.714776
N	0.639602	1.095763	-1.994394
H	0.620753	1.165298	-3.002847
H	1.579809	0.855298	-1.657133
C	-0.59397	-1.184667	0.600323
N	-1.098052	-2.119761	1.103485
N	-0.382905	1.189183	0.758596
H	-1.247865	1.579158	0.39808
H	0.351762	1.871923	0.611558
H	2.766513	0.0	0.0
