14

C	-0.563715	-0.140943	-1.406747
C	0.0	0.0	0.0
Cl	0.228868	1.149101	-2.462764
H	1.097449	0.0	0.0
H	-0.23647	-1.077712	-1.8583
N	-1.978417	-0.027202	-1.391883
H	-2.198981	0.826508	-0.88789
H	-2.3521	0.028979	-2.330838
C	-0.456765	-1.129552	0.798578
N	-0.8079	-2.040288	1.454083
N	-0.464087	1.278354	0.582878
H	0.356625	1.881328	0.578525
H	-0.709289	1.1343	1.555213
H	2.74127	0.0	0.0
