14

C	-0.564061	-0.03121	-1.413243
C	0.0	0.0	0.0
Cl	0.221987	1.343565	-2.363615
H	1.098048	0.0	0.0
H	-0.231628	-0.92637	-1.938672
N	-1.978846	0.073386	-1.388913
H	-2.353566	0.205672	-2.319648
H	-2.205002	0.878098	-0.812718
C	-0.458145	-1.1864	0.710098
N	-0.787164	-2.145209	1.306124
N	-0.467788	1.229813	0.679311
H	0.341202	1.848172	0.680331
H	-0.660625	1.016508	1.650891
H	2.741698	0.0	0.0
