14

C	-0.496354	0.042103	-1.440018
C	0.0	0.0	0.0
Cl	-0.092302	1.601764	-2.206443
H	1.094458	0.0	0.0
H	0.079878	-0.700531	-2.006056
N	-1.940416	-0.129584	-1.512827
H	-2.228026	-0.096468	-2.484572
H	-2.162129	-1.05426	-1.157965
C	-0.416667	-1.296151	0.555489
N	-0.782909	-2.321198	1.003659
N	-0.435984	1.128505	0.797351
H	-1.336279	0.970721	1.228944
H	0.269185	1.297178	1.505687
H	2.752599	0.0	0.0
