18
Coordinates from ORCA-job run
  C   0.51740029361703      0.50708228848171      0.27929390203858
  C   -0.61514633888791     -0.23983259434349     -0.41813861096687
  H   0.12775935060269      0.83993819532615      1.24674608100252
  H   -0.32111800573162     -0.49247907909922     -1.44083670069520
  N   0.79401260982920      1.70865312536734     -0.50313793406204
  H   1.34167939027082      2.36332531213796      0.04133875098515
  H   1.33264441171426      1.47170457867647     -1.32951383627743
  C   1.72728840508600     -0.39976102623138      0.49976848293566
  H   1.51539863287997     -1.22398606188603      1.18453567399235
  H   2.07110310048042     -0.82094794900062     -0.45108445118048
  H   2.54899447242254      0.18223613678069      0.92421435145250
  N   -1.75235237770896      0.72257426647458     -0.58658678111351
  O   -2.23141997505435      1.19222365019510      0.44223985085042
  O   -2.13906174049415      0.95419927481648     -1.72811324758830
  C   -1.13076900025331     -1.46049572198944      0.32396517100607
  H   -1.38100869785064     -1.20064173247086      1.35393989853600
  H   -2.02646809907324     -1.85222730853039     -0.16310671807919
  H   -0.37893643184876     -2.25056535470505      0.32647611716378
