18
Coordinates from ORCA-job run
  C   0.73111928475136      0.03144515581215      0.35655032208421
  C   -0.56530916936212     -0.63419123524082     -0.13159138439973
  H   1.03784042456480     -0.58138833166080      1.22239456416391
  H   -0.32538450550173     -1.64753793917733     -0.46364650636748
  N   0.46437518270190      1.42128374586574      0.70646365977203
  H   1.33627783047595      1.92857354253258      0.79111053800253
  H   -0.01734172801824      1.49239736377424      1.59361197302009
  C   1.85542049211997     -0.01588166473984     -0.66846836656599
  H   2.79088473610171      0.30316308730663     -0.19973514367012
  H   1.64135502600846      0.65000458493371     -1.50494239998896
  H   1.99715832644927     -1.02371915063921     -1.06166671812198
  N   -1.04423282863852      0.05833035212023     -1.37446566114653
  O   -1.92186430421342      0.90944272357947     -1.26973018159550
  O   -0.49596869733329     -0.27143947785456     -2.42736148638843
  C   -1.66405678525026     -0.64784266714555      0.91189674541227
  H   -1.95873066935266      0.36516150596765      1.18121892898126
  H   -2.55092637791437     -1.16127650250212      0.53655343389789
  H   -1.31161623758882     -1.17752509293216      1.80080768291052
