18
Coordinates from ORCA-job run
  C   0.62391181662616      0.44712206666812      0.30527704016788
  C   -0.58884954413776     -0.23964053127689     -0.34837327858123
  H   0.35517055890134      0.64404438948436      1.34887280600800
  H   -0.36513204186291     -0.46411369607830     -1.39479653161119
  N   0.97197263071633      1.73013546709562     -0.29018268023416
  H   1.09874978463279      1.63727612946690     -1.29200680844603
  H   0.24513828385667      2.41692177071350     -0.13017621152840
  C   1.84016017717111     -0.46816320904963      0.25776347591194
  H   2.69074470919245      0.05645010546951      0.69369931332737
  H   2.09281098830951     -0.71914286162227     -0.77787731822492
  H   1.68363030418301     -1.39756061544744      0.80744401868708
  N   -1.68223285819558      0.77832638361877     -0.41312584991283
  O   -2.14106253217268      1.16730870784935      0.66031592960670
  O   -2.01958373838272      1.19229415562934     -1.52150433081698
  C   -1.10445347592532     -1.46337049429198      0.38824111061683
  H   -1.27728345791587     -1.22921540240673      1.43966268543223
  H   -0.38138704274073     -2.27641705000581      0.31738475887677
  H   -2.04330456225579     -1.81125531581644     -0.04861812927905
