18
Coordinates from ORCA-job run
  C   0.56635540176762      0.46380513370739      0.27530701449553
  C   -0.56205858032987     -0.28528764822345     -0.42346152215848
  H   0.19863980931694      0.78168099923466      1.26135889140449
  H   -0.20869084721672     -0.63923237102958     -1.39385688091785
  N   0.95276175159589      1.59054716042352     -0.57433602652366
  H   1.86221086267673      1.93440877807246     -0.29055895374960
  H   0.29471198818994      2.35105956877504     -0.45005965114209
  C   1.76877492901265     -0.45215875662047      0.45611038838176
  H   2.58367282019148      0.09380575990903      0.93941936124833
  H   2.12554715276861     -0.80089812024613     -0.51647616120993
  H   1.53953817913979     -1.31426654614668      1.08340899966633
  N   -1.66334140909824      0.67856970607516     -0.76483043667539
  O   -2.24744201139544      0.50989709454551     -1.83116266982769
  O   -1.94130089612857      1.54066615128684      0.07003202015645
  C   -1.19725301433301     -1.40222330527751      0.39027262281777
  H   -2.05359795040548     -1.81764576613121     -0.14482834494505
  H   -1.53588891210560     -1.02395828172619      1.35751572796304
  H   -0.48263927364671     -2.20876955662840      0.55614562101603
