18
Coordinates from ORCA-job run
  C   0.89296805247024     -0.24129850177136      0.23697837258337
  C   -0.59476557043591     -0.64390041218827      0.07874375081156
  H   1.47343979827172     -1.12973230203113     -0.03317279573790
  H   -0.77417968963465     -1.51113582232726      0.72101245167026
  N   1.25051896103581      0.10079538281392      1.60566288677593
  H   1.00654400503611     -0.64395091962054      2.24776080426365
  H   0.77897773266910      0.94663044331684      1.90198001712666
  C   1.29301065790456      0.90239756312422     -0.68285378951420
  H   0.79444737655364      1.83249111468882     -0.39633642564659
  H   2.36873795704223      1.06149066891267     -0.59966515555901
  H   1.04852379283248      0.69565977888637     -1.72603652741990
  N   -0.75860525407068     -1.18843653275328     -1.31085033009482
  O   -1.31148007011045     -0.48847715787846     -2.15813093691074
  O   -0.26567854661520     -2.29676846360174     -1.51790255543747
  C   -1.60477640135369      0.44928202572879      0.35124573100508
  H   -1.49789808578992      0.79513243720387      1.38131402654375
  H   -2.62083109707989      0.07068101197338      0.22926854375457
  H   -1.47995361872549      1.29213968552317     -0.32601806821419
