18
Coordinates from ORCA-job run
  C   0.68144312907101      0.05831412909336      0.37619343154528
  C   -0.59961871645845     -0.57326546610425     -0.19410306815978
  H   0.82543338447654     -0.45265653979819      1.33549877807109
  H   -0.35900136686179     -1.50272854649831     -0.72370858279174
  N   0.40138380285527      1.45791409795132      0.69511079896560
  H   0.54614835240314      2.02700116910433     -0.13096703604280
  H   1.04026878795017      1.78387215969505      1.40894842105610
  C   1.93940034271766     -0.18310061249252     -0.45756797735822
  H   2.81092515797009      0.20796030934607      0.07475249035126
  H   1.86913042074214      0.31393614838327     -1.42409992082675
  H   2.10360304962520     -1.25202204355370     -0.62701548020916
  N   -1.17955172339056      0.31249431526083     -1.27575957021097
  O   -2.39931718180812      0.36852550462273     -1.38771521374956
  O   -0.38462948345636      0.89601669065149     -2.01245596053582
  C   -1.63965640382085     -0.81969436883064      0.88066322844319
  H   -1.24102263243215     -1.54045338855859      1.59835909351508
  H   -2.56358748927006     -1.21692440553411      0.46540394599440
  H   -1.85135143031286      0.11681084726184      1.39746262194282
