12

C	-0.324972	-0.047986	-1.483516
C	0.0	0.0	0.0
Br	-2.265389	-0.409848	-1.787261
H	1.096402	0.0	0.0
H	-0.210904	0.943942	-1.930667
H	-0.336527	-0.921291	0.480583
N	0.453414	-1.090189	-2.077455
H	1.401399	-1.041622	-1.703999
H	0.488867	-0.983785	-3.082714
C	-0.553266	1.159958	0.676883
N	-1.017503	2.094581	1.214206
Cl	3.331584	0.0	0.0
