12

C	-0.310301	-0.033273	-1.496323
C	0.0	0.0	0.0
Br	-2.233423	-0.36459	-1.802345
H	1.095788	0.0	0.0
H	-0.125999	0.948158	-1.934629
H	-0.338827	-0.925564	0.474635
N	0.460597	-1.013025	-2.217655
H	1.442236	-0.763503	-2.084062
H	0.336353	-1.917858	-1.77399
C	-0.558943	1.147463	0.696108
N	-1.009631	2.073933	1.259316
Cl	3.337253	0.0	0.0
