12

C	-0.571358	-0.016478	-1.418965
C	0.0	0.0	0.0
Br	-0.031667	1.603909	-2.367977
H	1.092639	0.0	0.0
H	-0.102936	-0.837788	-1.964004
H	-0.298965	-0.946046	0.472064
N	-2.012179	-0.133243	-1.532632
H	-2.447085	0.6322	-1.026398
H	-2.297534	-1.000042	-1.086202
C	-0.565843	1.08556	0.790715
N	-1.089817	1.946112	1.393906
Cl	3.384847	0.0	0.0
