17

C	0.0	0.0	0.0
C	-0.445586	0.241955	-1.447354
Br	1.982916	0.0	0.0
H	-1.522903	0.03819	-1.442909
H	0.040881	-0.497248	-2.092582
N	-0.462024	0.965706	0.962861
H	-1.478907	0.851697	1.007916
H	-0.276441	1.904563	0.628385
C	-0.434221	-1.380863	0.46006
H	-0.057277	-2.151858	-0.215199
H	-0.065798	-1.569134	1.469746
H	-1.528484	-1.397276	0.457993
C	-0.207205	1.649206	-1.978336
H	0.83783	1.952077	-1.872464
H	-0.842651	2.371024	-1.46168
H	-0.46871	1.698721	-3.038583
Br	-3.902682	0.0	0.0
