17

C	0.0	0.0	0.0
C	-0.454828	-0.099161	-1.447746
Br	2.065124	0.0	0.0
H	-1.533932	-0.28771	-1.371514
H	0.027419	-0.969686	-1.901573
N	-0.464292	1.169416	0.603735
H	-0.176987	2.02081	0.146929
H	-0.303254	1.209185	1.598893
C	-0.426318	-1.212133	0.800002
H	-0.051317	-2.12868	0.342525
H	-1.522148	-1.207787	0.804478
H	-0.050677	-1.156632	1.825297
C	-0.222908	1.146433	-2.291656
H	0.824558	1.459806	-2.27268
H	-0.499761	0.949118	-3.330484
H	-0.857237	1.96639	-1.94704
Br	-4.086458	0.0	0.0
