14
Coordinates from ORCA-job run
  C   0.60555727652569      0.26871672511634     -0.45456190118554
  C   -0.22496671133375     -0.82682368618954      0.19951913132145
  F   0.17455197967348      0.44303199160499     -1.76228800241926
  H   -0.06752332205530     -1.73718874862518     -0.38524629595439
  H   0.18167846503970     -1.01758543393126      1.19872861010490
  C   2.02763872989242     -0.16118774040576     -0.55377364506872
  N   3.15770207236320     -0.48189760006064     -0.56721685378768
  N   0.43696580198886      1.52405586352935      0.21156333088777
  H   1.07145328603030      2.22030416677216     -0.16044765354691
  H   0.59272639507607      1.43062296458903      1.20694959980422
  C   -1.70775678365698     -0.47722776517938      0.25887924555617
  H   -1.89087980863505      0.39558640878561      0.88470108087155
  H   -2.08566540550181     -0.25979531758083     -0.74036611756501
  H   -2.27248197540684     -1.31961182842490      0.66355947098144
