14
Coordinates from ORCA-job run
  C   0.65381935102830      0.26748002807857     -0.35954505300558
  C   -0.83926439424299      0.07164441867117     -0.15223725920852
  F   1.12078512621233     -0.71571095459765     -1.22136499092146
  H   -1.29648538014375      0.24336332170838     -1.13078211335019
  H   -1.19851085454294      0.85254206291487      0.52675420612241
  C   1.39125361951690      0.06322982117070      0.91798643737642
  N   1.95659398179318     -0.03402814562684      1.94305856681639
  N   0.92104279820117      1.52966211694534     -0.97708990162308
  H   1.91336004068550      1.73187053332837     -0.98515106894651
  H   0.43179091516066      2.27728976280512     -0.50329614939214
  C   -1.19189265111001     -1.30954497010979      0.38481686311790
  H   -0.76635152419085     -1.47408393223968      1.37695903852342
  H   -2.27513568758053     -1.41739402462470      0.46238935751534
  H   -0.82000534078695     -2.08732003842386     -0.28249793302441
