14
Coordinates from ORCA-job run
  C   0.60616865805661      0.18003102292169     -0.49587296920113
  C   -0.22316958067047     -0.77440084262844      0.35210851389878
  F   0.17864628349418      0.10169337254597     -1.81388325241335
  H   -0.06055286153576     -1.77866363810014     -0.04849529659482
  H   0.18051025882072     -0.77012756000044      1.37051060840703
  C   2.02978628969029     -0.25617171530910     -0.50836204000253
  N   3.16059839397909     -0.57033530548931     -0.45804417793590
  N   0.43212296546791      1.53836338765327     -0.08010339816214
  H   1.06729427138622      2.15343091940433     -0.57404666845720
  H   0.58341170092214      1.63529081685107      0.91564618325529
  C   -1.70728602286411     -0.42591963026495      0.33976021948551
  H   -1.89521859893802      0.55084173963819      0.78420972419749
  H   -2.26975781215372     -1.17640297231702      0.89890445571478
  H   -2.08355394565507     -0.40762959490513     -0.68333190219181
