14
Coordinates from ORCA-job run
  C   0.71304574029489      0.29835249821340     -0.45356014017986
  C   -0.64254788593476     -0.37214033812816     -0.61696463157516
  F   1.24661762722057      0.46223841474547     -1.74997286651238
  H   -1.26487120274665      0.32177148517848     -1.19349149112363
  H   -0.49165533002289     -1.25580427881601     -1.24196152373049
  C   1.66270301458821     -0.57957996103614      0.26373013218979
  N   2.40211051283374     -1.29508426811171      0.82792885234690
  N   0.61042069992971      1.52858577893854      0.23832247913568
  H   -0.03868815118267      2.14624966733409     -0.23338582878985
  H   1.51044303736019      1.98282977313549      0.32830097852739
  C   -1.30094539704491     -0.73658778446431      0.70736511736785
  H   -1.44712837924323      0.14717483951216      1.32826931076670
  H   -2.27241606651074     -1.20196589240861      0.52988677736358
  H   -0.68808821954145     -1.44603993409269      1.26753283421347
