15

C	0.0	0.0	0.0
C	-0.206651	-0.19204	-1.571024
F	1.355654	0.0	0.0
H	0.521725	-0.987579	-1.760631
C	-0.516997	1.20668	0.617823
N	-0.599526	2.276908	1.113194
N	-0.378277	-1.221328	0.795412
O	-0.308001	-2.294774	0.196203
O	-0.523918	-1.084433	2.008574
C	0.331174	1.038664	-2.174854
N	0.712886	1.999859	-2.733857
N	-1.489463	-0.554342	-2.130825
H	-1.792141	0.174728	-2.770419
H	-2.120032	-0.467196	-1.28524
H	-2.265289	0.0	0.0
