15

C	0.0	0.0	0.0
C	-0.218202	-0.209078	-1.573575
F	1.355689	0.0	0.0
H	0.210804	-1.207472	-1.710498
C	-0.534792	1.227486	0.561507
N	-0.609383	2.33332	0.976334
N	-0.393495	-1.188844	0.831362
O	-0.534835	-1.008884	2.04072
O	-0.330367	-2.29039	0.277789
C	0.664616	0.753934	-2.24984
N	1.310401	1.527708	-2.854551
N	-1.512237	-0.153683	-2.214092
H	-2.155797	-0.405292	-1.433614
H	-1.735134	0.827494	-2.365074
H	-2.21922	0.0	0.0
