13
Coordinates from ORCA-job run
  C   -0.82331435055006     -0.27884487575541      0.28179591820781
  C   0.65582102167279      0.05392452663350      0.04340690621320
  Br  -0.94398561146692     -1.30846689747505      1.99175651983930
  H   1.01185459463796      0.62248721032061      0.90978620830358
  H   -1.17057453567391     -0.98533307037011     -0.47405704339472
  N   -1.61797625807260      0.88907496451008      0.25303700546855
  H   -1.40085440221547      1.51333817433367      1.02011989559949
  H   -2.60582702921334      0.67578784769295      0.27432108809121
  C   0.75699020983184      0.92442779538861     -1.14793177955715
  N   0.92134921178366      1.55134094821824     -2.12791460660424
  N   1.45891167998866     -1.15000682812987     -0.06631341288786
  H   1.31676422961702     -1.58311352810604     -0.97132626379738
  H   2.44184123966036     -0.92361626726120      0.01531956451821
