13
Coordinates from ORCA-job run
  C   -0.77668034969541     -0.23608069430460      0.43777105060501
  C   0.69444769937783      0.00831053329451      0.07835297477993
  Br  -0.87017384208647     -1.11582479147475      2.16734935692773
  H   1.13226240271982      0.56902605231151      0.90852956962639
  H   -1.20351411050366     -0.96268961009723     -0.26702132438855
  N   -1.46752102540290      1.03034835526306      0.52993766328248
  H   -2.38259983960437      0.90016897889940      0.94231839373187
  H   -1.59117531799335      1.42184479647724     -0.39844819444940
  C   0.72546403630476      0.87060669634649     -1.12404243455976
  N   0.73622172511776      1.49740437683527     -2.11823875885636
  N   1.41473389672178     -1.23912323931977     -0.09233947701858
  H   1.17566623864357     -1.67064148145580     -0.97705563362659
  H   2.41286848640065     -1.07334997277532     -0.08711318605417
