13
Coordinates from ORCA-job run
  C   -0.48487742497736     -0.31325202041852      0.70005951685525
  C   0.87540006289886      0.02701582620986      0.06738500584458
  Br  -0.60445622767233      0.63471623135375      2.46925359395152
  H   1.65512108533654     -0.10561413390710      0.82188927009873
  H   -0.49007061068696     -1.36820415806264      0.97657313172709
  N   -1.54022739630502     -0.03979034510987     -0.19745184869030
  H   -1.63840735331645      0.95338554405713     -0.37579019036137
  H   -2.42443205792596     -0.40992411482377      0.12356411226871
  C   0.86887049698906      1.44142883675330     -0.33764164975026
  N   0.79765251378765      2.55897369674726     -0.68914212853477
  N   1.19235586613723     -0.79966042727447     -1.08481220607742
  H   0.38331467827225     -0.83846449713546     -1.69435899894611
  H   1.41075636746249     -1.74061043838946     -0.78052760838567
