13
Coordinates from ORCA-job run
  C   -0.76120337236947     -0.25969786486721      0.16031636844641
  C   0.71949756580025      0.14541825122030      0.00278946729863
  Br  -0.83795262328205     -1.56549063875515      1.71301159967306
  H   1.00735390479241      0.68978322256133      0.91078524062650
  H   -1.08069760161607     -0.86880201587388     -0.68625690657156
  N   -1.59360926483587      0.85809959083826      0.30980647382368
  H   -2.57753735954893      0.63060515036121      0.28878888792257
  H   -1.38197005898170      1.39981956711017      1.13758599430474
  C   0.80397672000039      1.08073024415631     -1.13080578330117
  N   0.88297193978015      1.79087929108777     -2.06174415602349
  N   1.68444269048306     -0.91515464406476     -0.20214861544809
  H   1.45729085317452     -1.44551495715834     -1.03498110992851
  H   1.67743660660332     -1.54267519661600      0.59185253917722
