13
Coordinates from ORCA-job run
  C   -0.80557823630607     -0.29324401044650      0.22628257300460
  C   0.64056973108344      0.09641419917431     -0.09092052399977
  Br  -0.73196820954050     -1.43471295205087      1.90580903620075
  H   1.01117503372144      0.71372266537038      0.74453410247311
  H   -1.16790698919636     -0.98755670185614     -0.53041358514604
  N   -1.63979344102404      0.82821346429611      0.34219043805190
  H   -2.61644054533398      0.58351744235556      0.42459406917295
  H   -1.37436238967204      1.44086128976894      1.10215683006725
  C   0.63590300819283      0.94099727551273     -1.29389266491745
  N   0.68167126361732      1.62649814375890     -2.24536489268309
  N   1.44093442244177     -1.09033097486591     -0.36340915604614
  H   1.57638714184377     -1.60750781616501      0.49675357655413
  H   2.34940921017242     -0.81787202485250     -0.71831980273222
