13
Coordinates from ORCA-job run
  C   -0.61675809877281      0.16988645203725      0.74858278286525
  C   0.66824785363279     -0.23451161033268      0.02435067343758
  Br  -1.10639220941759      2.03916269648258      0.10774604488381
  H   0.91945770231097     -1.22401668478495      0.42281884743463
  H   -0.43828991673466      0.33218209618322      1.81072651902623
  N   -1.59870861565858     -0.80451259114096      0.52871116327963
  H   -1.70933139414420     -0.98439598266401     -0.46152447647503
  H   -2.48336996377478     -0.58334205443719      0.96311216911224
  C   1.78319734750635      0.67241484886663      0.35177646501104
  N   2.70436825035906      1.36570601254732      0.57616343458546
  N   0.40010273905762     -0.38698874881374     -1.39714735354044
  H   1.15696582586009     -0.88787897723633     -1.84532751386959
  H   0.32151047977574      0.52629454329289     -1.82998875575081
