13
Coordinates from ORCA-job run
  C   -0.81496328264908     -0.25768871655339      0.23773987277358
  C   0.64180690623151      0.06700753237460     -0.10247800520431
  Br  -0.76253683991755     -1.46333773027345      1.87141174951396
  H   1.06553245858589      0.63057068558218      0.74558176227073
  H   -1.23151042099163     -0.90268942634278     -0.53452517410870
  N   -1.58515462598721      0.90135465730381      0.41544135755454
  H   -2.57087362780541      0.70452097763630      0.51670780753523
  H   -1.26869737397049      1.46997556941882      1.19004191606790
  C   0.65440323146616      0.95615647520540     -1.27297560186997
  N   0.71808223308444      1.65891784447234     -2.21071475604179
  N   1.36978383719041     -1.14932281672869     -0.44025072042883
  H   1.50218706235637     -1.70350739112606      0.39706276904441
  H   2.28094044240660     -0.91195766096907     -0.81304297710676
