13
Coordinates from ORCA-job run
  C   -0.58811552987747      0.20533214628240      0.76278783548375
  C   0.69096516596832     -0.15694910417704      0.00652938576991
  Br  -1.32436036466303      1.90645327152389     -0.07879258435669
  H   1.07593575739686     -1.05020828023668      0.51131385524781
  H   -0.36933053689805      0.52999006141582      1.77918962445271
  N   -1.46323995832454     -0.88835285848876      0.74286141617846
  H   -2.34057574333197     -0.70419029467500      1.20829896602209
  H   -1.61037670098206     -1.21155662220155     -0.20533627365559
  C   1.71217842713781      0.89883402235546      0.13101046462581
  N   2.55868474965769      1.71048355751336      0.19604111755477
  N   0.36094358210488     -0.53039429086525     -1.35993105973114
  H   1.14055194055133     -1.01057054434697     -1.79127210778796
  H   0.15773921126021      0.30112893590031     -1.90270063980392
