13
Coordinates from ORCA-job run
  C   -0.68679726976809      0.30461441275373      0.63622945410549
  C   0.69257646400426     -0.09899835563733      0.11296430279585
  Br  -1.40707343164515      1.74469211814779     -0.60830394906902
  H   1.06038158652086     -0.84308754097629      0.82851968835138
  H   -0.60990780366777      0.83789537545787      1.58286056372283
  N   -1.49275031444919     -0.83630577688713      0.74581009375851
  H   -2.42960958170864     -0.63139531473797      1.06310225059157
  H   -1.50472230485234     -1.35074357791228     -0.12623855571104
  C   1.63201551459933      1.03672259355043      0.13027067083958
  N   2.41983376960329      1.90783350389147      0.12135934254598
  N   0.55221403322087     -0.75782246839342     -1.17630700752295
  H   1.40612690449815     -1.24575604925791     -1.41578601411062
  H   0.36771243364438     -0.06664891999900     -1.89448084029755
