13
Coordinates from ORCA-job run
  C   -0.56179695967439      0.17565059219853      0.62969553053013
  C   0.77452693714651     -0.10120830594017     -0.09017579229112
  Br  -1.35999671185901      1.81903361550809     -0.03933060651895
  H   1.13415593854358     -1.05320787373455      0.32775548839105
  H   -0.38189643330499      0.36658521301729      1.69450054022854
  N   -1.45681327732945     -0.92787244207587      0.34076514874000
  H   -1.17170824176622     -1.73487332822019      0.88745724792818
  H   -2.40653617130722     -0.69510385747755      0.60310659776037
  C   1.76516593719851      0.91782871147596      0.27160653843999
  N   2.55024199356695      1.73236816526758      0.58334085545164
  N   0.70103130482535     -0.25551718843000     -1.52844591164224
  H   -0.07147935098605     -0.88300762716987     -1.72672977175654
  H   0.48510503494644      0.63932432558073     -1.95254586526107
