13
Coordinates from ORCA-job run
  C   -0.63357992470704     -0.12125508444822      0.79330486648016
  C   0.74425878080489     -0.04473182179514      0.12834509254084
  Br  -0.61093764711957      0.94825654132421      2.43227893074080
  H   1.50072080506422     -0.31554726628091      0.87690448324403
  H   -0.77682633634970     -1.14790400970341      1.15730816706614
  N   -1.62478835394409      0.37170984055682     -0.10820156583394
  H   -1.47885559338285     -0.07043019706861     -1.00961686296981
  H   -2.55998438457397      0.18045056277960      0.22557456289439
  C   1.03578368971271      1.32182868780511     -0.31815016954320
  N   1.34521826677370      2.38404090957096     -0.70916696511730
  N   0.72082122165410     -0.93413277495256     -1.03945210738349
  H   0.88369555054187     -1.88783281647762     -0.73761728615456
  H   1.45547392552571     -0.68545257131024     -1.69051114596403
