13
Coordinates from ORCA-job run
  C   -0.81163530972583     -0.26469854389872      0.24145635197167
  C   0.64098152756408      0.07538251534785     -0.10124976809946
  Br  -0.74705409265720     -1.42209031105983      1.90938801925565
  H   1.04977667818801      0.67168252470750      0.73164544696319
  H   -1.21336687440797     -0.93881986509661     -0.51358960162332
  N   -1.60215318571401      0.88557263163582      0.38227502658852
  H   -1.29929340880839      1.48146084340097      1.14164427358964
  H   -2.58505052328675      0.67538784651936      0.48407073381829
  C   0.64370350809712      0.92911060539286     -1.29807781842080
  N   0.70066871904932      1.60028439754500     -2.25908781332024
  N   1.39247022846914     -1.13683822896310     -0.39918421918518
  H   1.52947862219840     -1.66415403098776      0.45453901426152
  H   2.30147411103408     -0.89428038454334     -0.77382964579949
