13
Coordinates from ORCA-job run
  C   -0.79747355089279     -0.31259293207416      0.42844059284882
  C   0.61666005618189      0.02454971546592     -0.08563358632675
  Br  -0.57304952933727     -1.27617193663181      2.12989183976226
  H   1.09949574842861      0.66375588342355      0.67222057331170
  H   -1.24593055304740     -1.03074377779785     -0.25980015704575
  N   -1.67988768899984      0.78948740730069      0.63102048274160
  H   -2.04015004454507      1.13229243367671     -0.25044966220502
  H   -1.24150933032204      1.54363189475939      1.14409858844819
  C   0.44878769961981      0.83150367118440     -1.30250489232013
  N   0.28769992953663      1.47888211266360     -2.26858515899235
  N   1.34964386037942     -1.18792863660540     -0.41962569351203
  H   1.53788707969053     -1.70372555564143      0.43171472088960
  H   2.23582632330755     -0.95394027972356     -0.85078764760015
