13
Coordinates from ORCA-job run
  C   -0.66400281417526     -0.29430908538012      0.68049761110685
  C   0.79099388774863     -0.15272922069927      0.23252524958487
  Br  -0.88173680004997      0.70530289931919      2.40543148215589
  H   1.44221046125698     -0.38630794497442      1.07784371965070
  H   -0.83392696816463     -1.33621036849206      0.94670742191275
  N   -1.54361962807127      0.10243728396843     -0.35245804750298
  H   -2.49969734999317     -0.16691459712198     -0.16471833029725
  H   -1.50486896315742      1.10127281909287     -0.52114217352547
  C   1.04659142984970      1.24538708445178     -0.17685933646134
  N   1.23963306222362      2.33462283715679     -0.57282228252241
  N   1.01787229497054     -1.13166946643724     -0.81855055680645
  H   0.40876474493112     -0.92236550776755     -1.60061967188639
  H   1.97978664263110     -1.09751673311643     -1.13383508540876
