13
Coordinates from ORCA-job run
  C   -0.77082615458874     -0.30096510943633      0.34101327311414
  C   0.69504188848102      0.07193460794069     -0.00609677446212
  Br  -0.71116091564776     -1.43868840731312      1.94353261705549
  H   1.09560430261350      0.63704704010222      0.84423641884593
  H   -1.17464848112381     -0.93537679689797     -0.45230634791461
  N   -1.66367375390474      0.78903781086510      0.56976268919874
  H   -1.92845722402609      1.23135941442946     -0.30140570825427
  H   -1.27041557061984      1.47660275647939      1.20026317390227
  C   0.62597327853740      0.98012714948937     -1.16254027271772
  N   0.50203143679217      1.66243867074758     -2.11002205631497
  N   1.61648417555730     -1.00548151499234     -0.30440986023540
  H   1.26731776741261     -1.56929967436554     -1.07077324895958
  H   1.71672925051701     -1.59873594704848      0.50974609674210
