13
Coordinates from ORCA-job run
  C   -0.58818727586602     -0.29932858499283      0.62119826487265
  C   0.85978461800811     -0.04516155581939      0.16840014164567
  Br  -0.85021388451768      0.58772760373012      2.40598180065522
  H   1.53138424730303     -0.26626019066504      1.00202198886759
  H   -0.70509556196995     -1.36023704539268      0.84529591523895
  N   -1.50437847937562      0.09050685446752     -0.38067059141278
  H   -1.50646485717248      1.09453660227052     -0.52148214697814
  H   -2.44594432688628     -0.21936310679549     -0.18198014663398
  C   1.00824467372459      1.37915175361966     -0.16880539366556
  N   1.06852560414588      2.51642545210209     -0.45248532312871
  N   1.25008811988513     -0.85289484239803     -0.97483545542449
  H   1.36320058249768     -1.81780896388549     -0.68899266893068
  H   0.51805654022361     -0.80829397624093     -1.67464638510575
