13
Coordinates from ORCA-job run
  C   -0.67626800318540      0.28928415604145      0.65392969285632
  C   0.68453403386128     -0.14786106889826      0.10956589724237
  Br  -1.29718820858366      1.86735526975584     -0.47239887851026
  H   1.00111990269049     -0.96893795927059      0.76272823313530
  H   -0.58202813195956      0.73736766527617      1.64221569686976
  N   -1.54692872263178     -0.80806599499197      0.66118762965698
  H   -1.57778355113443     -1.24691927245162     -0.25074242205150
  H   -2.47407332255987     -0.57779100375227      0.98927905419855
  C   1.68657085035045      0.92661384557860      0.22966552495455
  N   2.52255462676203      1.74869627118181      0.29989465917159
  N   0.52327795046767     -0.68804469068446     -1.23118130866349
  H   0.38657686459740      0.06946013303327     -1.89071593977953
  H   1.35063571132540     -1.20315735081799     -1.50442783908064
