15

C	0.0	0.0	0.0
C	-0.245277	-0.182151	-1.537305
Br	2.046431	0.0	0.0
H	-0.256139	-1.254924	-1.76075
H	0.600547	0.239284	-2.083952
C	-0.416567	1.374077	0.477293
H	-1.508643	1.418377	0.41662
H	0.020278	2.157228	-0.144392
H	-0.102771	1.511491	1.512576
N	-0.520915	-1.001892	0.851152
H	-1.531443	-0.821831	0.907823
H	-0.396767	-1.92048	0.440373
C	-1.413138	0.453485	-2.160498
N	-2.133241	1.011958	-2.90283
Cl	-3.609916	0.0	0.0
