15

C	0.0	0.0	0.0
C	-0.474015	-0.109704	-1.461394
Br	1.971133	0.0	0.0
H	-1.57241	-0.085093	-1.413498
H	-0.1661	-1.074894	-1.87446
C	-0.442527	1.313451	0.61981
H	-0.084472	1.361102	1.649719
H	-1.535438	1.340191	0.610747
H	-0.048707	2.164719	0.061537
N	-0.475495	-1.090358	0.810318
H	-1.491838	-0.974747	0.869322
H	-0.29022	-1.970849	0.340802
C	0.003337	0.953349	-2.340167
N	0.375195	1.810493	-3.051214
Cl	-3.672774	0.0	0.0
