12
Coordinates from ORCA-job run
  C   0.14456888295522     -0.71141342700590     -0.22052945851647
  C   -1.11853837939191      0.15029926410110     -0.29575160736410
  Cl  0.29894912280449     -1.57458473419988     -1.78336044826892
  H   -1.98568290790822     -0.47203332878210     -0.53016708562292
  H   0.00864348606640     -1.48691523977927      0.53569312453456
  H   -1.01352545765661      0.88400954723631     -1.10031533587388
  C   1.39846370354639      0.09302314536727      0.05515049314970
  H   2.27394458957651     -0.55709396215379      0.06958509288621
  H   1.54467822001680      0.84963165589929     -0.71892380449034
  H   1.31919334284994      0.59011509333146      1.02510389683171
  C   -1.35413148621837      0.84653363589258      0.96799411755554
  N   -1.51656311664064      1.38942835009292      1.99552101517892
