12
Coordinates from ORCA-job run
  C   0.19533308486736     -0.51887048286932     -0.13905791967932
  C   -0.82660226036060      0.56129193866026      0.21384772207919
  Cl  -0.12078973396088     -1.10182759361509     -1.80107082124974
  H   -0.77365034224838      1.36751135751702     -0.52331022012414
  H   0.05307864063611     -1.38331815886129      0.51232777731779
  H   -0.57386013042507      0.98560387309520      1.19128207105228
  C   1.61553288907083      0.00309411717149     -0.03536998495748
  H   1.82405366937991      0.31932951294097      0.99042515769281
  H   2.33111884970454     -0.77284276423695     -0.30884382929374
  H   1.76126563291282      0.85421238645070     -0.70385850835684
  C   -2.19520116446537      0.05211765213496      0.26970654241184
  N   -3.28927913511127     -0.36630183838795      0.33292201310735
