12
Coordinates from ORCA-job run
  C   0.16619915584382     -0.70678205757275     -0.21966590624459
  C   -1.14049035814789      0.09062712533999     -0.22700161798901
  Cl  0.26616327710881     -1.58868125496080     -1.77633087536350
  H   -1.98829451463485     -0.57675433097735     -0.40028550499870
  H   0.11655049120900     -1.47442020181378      0.55495392030717
  H   -1.12170945186120      0.81737391372265     -1.04446906935996
  C   1.39298003455475      0.16308939438467     -0.03525025342355
  H   1.34846119977694      0.67418573414641      0.92959905295393
  H   2.29912757047583     -0.44286511209930     -0.06465999494013
  H   1.45361986554230      0.91098256577493     -0.82892341360489
  C   -1.33304439384130      0.79237055671097      1.04111477154966
  N   -1.45856287602621      1.34087366734437      2.07091889111357
