12
Coordinates from ORCA-job run
  C   0.19997499600134     -0.40755277948725     -0.34723013262865
  C   -0.83041875861510      0.49735795713489      0.32740641568196
  Cl  0.23336045977123     -0.04969196327196     -2.10026755400604
  H   -0.58183276727960      1.54352618870369      0.12801287029408
  H   -0.11637887835826     -1.44893313793092     -0.26123094940566
  H   -0.78469737592494      0.34432366519779      1.41072266577199
  C   1.58266181887550     -0.21579026039310      0.24586852175327
  H   1.57381907232728     -0.47523624210520      1.30816431154968
  H   2.30900936265571     -0.85372873495187     -0.25848959141391
  H   1.90552768101580      0.82191676579959      0.13833347963109
  C   -2.19631532170879      0.23586831689932     -0.12056327855741
  N   -3.29271028876019      0.00894022440503     -0.47072675867040
