13
Coordinates from ORCA-job run
  C   0.68685703206432      0.51614004649050      0.31983517087755
  C   -0.44060736767027     -0.47013819371352      0.05328354405853
  F   0.24115868432290      1.77997520014202      0.21675099062197
  H   -0.04629350401894     -1.48727011087045      0.12051867163057
  H   1.14034475420412      0.34492634102232      1.29568491086854
  N   1.76265624079153      0.26502151655613     -0.71603191621896
  O   2.25091346971770     -0.85873445700418     -0.65804336046360
  O   2.04190120300943      1.16891654006484     -1.48575929156878
  C   -1.07069197547536     -0.23392211269950     -1.23675295256746
  N   -1.52623029896272     -0.04938973949475     -2.30308267115771
  N   -1.44951561337882     -0.34308076885599      1.18805924739173
  O   -0.96191440076893     -0.41182300629725      2.30930787001975
  O   -2.62857822383496     -0.21962125534016      0.89622978650788
