13
Coordinates from ORCA-job run
  C   0.67795673572466      0.25036466481915     -0.64005108050710
  C   -0.46918537294900     -0.55344128302771     -0.04971658245164
  F   1.30159769658873     -0.51844235544155     -1.57049380649791
  H   -0.07623006167332     -1.44470015813621      0.44311696941454
  H   0.37848146774019      1.20229093022605     -1.07222598197857
  N   1.69543705943882      0.55328009334509      0.43150543727674
  O   2.38552141585956      1.54668448302641      0.24001448930269
  O   1.78027884222432     -0.24390163393530      1.36175320313092
  C   -1.43778674268545     -0.90892708113337     -1.07759892809017
  N   -2.20922163142559     -1.18143159508991     -1.91996370819285
  N   -1.17167415257812      0.24365673487768      1.02996277467096
  O   -1.97619024795266     -0.37585923026300      1.70761310355379
  O   -0.87798500831213      1.43142643073268      1.11708411036858
