13
Coordinates from ORCA-job run
  C   0.87119467934344     -0.60046762807659      0.18469909578175
  C   -0.65183229191689     -0.51661147983897      0.10980844491016
  F   1.27681083250599     -0.94131043366257      1.42128094767062
  H   -1.04946276352003     -1.29588533863229      0.76980150559287
  H   1.24935491545254     -1.32898877308001     -0.53741714969575
  N   1.49577847200616      0.72369498318584     -0.20824875468313
  O   2.49612402588440      1.07086358879288      0.39329405518050
  O   0.94224555150788      1.28458967611496     -1.14678588715295
  C   -1.16417483844670     -0.70814083018347     -1.23857987541674
  N   -1.54067849370591     -0.92242950566061     -2.32973531379751
  N   -1.17730451744688      0.78465672468117      0.70184700505761
  O   -2.28299638860781      1.14408766105758      0.32983241204709
  O   -0.46605918305618      1.30494135530206      1.55020351450550
