13
Coordinates from ORCA-job run
  C   0.74264431127693      0.34420901326526      0.41321608045792
  C   -0.50816239465557     -0.39915762342247     -0.03258760422428
  F   0.49666190719603      1.66183756531177      0.51256601508597
  H   -0.27523764556404     -1.46301505877906     -0.12533126116280
  H   1.12371640254487     -0.05065912535015      1.35459846707154
  N   1.80960289478490      0.09778677568442     -0.63247093184329
  O   2.22578655833406      1.05312540797220     -1.26604398385396
  O   2.14266157213130     -1.07887962220739     -0.72849023915913
  C   -1.03920163311966      0.13476844290331     -1.27759554734144
  N   -1.41897100583109      0.55194745783700     -2.30741383680900
  N   -1.53147477679059     -0.29586805586901      1.09104542012701
  O   -2.65095584958919      0.10592584703957      0.81500302278958
  O   -1.11807034071796     -0.66102102438544      2.18450439886190
