12
Coordinates from ORCA-job run
  C   0.98148612159530      0.08356556903272      0.05344672737665
  C   -0.36619609894303      0.27852970804329      0.00917981128374
  H   1.57760586725979      0.98071745249168      0.18451213654230
  N   1.65214073674982     -1.06476084762426     -0.06447248474665
  H   2.65362091079039     -1.06755509483046     -0.00153087610618
  H   1.14666783157280     -1.93446010585544     -0.12157027417466
  N   -1.31419878860722     -0.76791982605309     -0.26452007995363
  O   -0.89133929758932     -1.92640214833845     -0.13888292272246
  O   -2.43716325581481     -0.46992529621319     -0.65083447265313
  N   -0.87917463355045      1.61713895461524      0.25551263503305
  O   -1.95197465962545      1.71109187299325      0.84293401496000
  O   -0.17147473383782      2.55897976173871     -0.10277421483902
