12
Coordinates from ORCA-job run
  C   0.98311227720333      0.13221350325852     -0.13855300808070
  C   -0.35093683671688      0.24945218950096      0.09953708924444
  H   1.54577446156115      1.06111340362263     -0.16421799322824
  N   1.68765255816471     -0.99004681467737     -0.31290217389587
  H   2.67181720205034     -0.94535975060393     -0.49905013044390
  H   1.21636690743863     -1.87943276875145     -0.32955454128487
  N   -0.92530471899580      1.56820674952357      0.32523815284155
  O   -1.51500979890588      1.73145605878148      1.39201040836707
  O   -0.72071636541287      2.43283805686924     -0.52721090120609
  N   -1.28961554990301     -0.82984921820102      0.06657887966087
  O   -0.81799788902807     -1.97203599163290     -0.02464190182004
  O   -2.48514224745565     -0.56055541768973      0.11276611984575
