12
Coordinates from ORCA-job run
  C   0.97240683083136      0.10263987623690      0.12772589993711
  C   -0.37390555361912      0.26792921728783      0.00272373860523
  H   1.53205216271148      1.00499146812010      0.35009945913081
  N   1.68016387986439     -1.02285884689367      0.00804760651690
  H   1.20973095977540     -1.89722329893126     -0.16434375076803
  H   2.68145821193972     -0.99549423373872      0.07275968913198
  N   -1.27273582236510     -0.78171629452235     -0.39051754265431
  O   -0.82658160667282     -1.93488588609235     -0.29893277279279
  O   -2.37290284045838     -0.49048266183952     -0.84203442120671
  N   -0.93629920423418      1.57921838136646      0.30016182054020
  O   -0.23588797187206      2.55727248144786      0.04123070700427
  O   -2.05849904590068      1.61260979755871      0.79307956655533
