12
Coordinates from ORCA-job run
  C   0.80160792202546     -0.45896719700139     -0.34589020962487
  C   -0.44175450179660      0.05011952049142     -0.11939815972645
  H   0.89297443119958     -1.08991415045743     -1.22397905311546
  N   1.91553479861220     -0.25924024637224      0.36243428199361
  H   2.76988912687482     -0.70821055706515      0.08777082818835
  H   1.87291273975461      0.26363756594572      1.22263023751887
  N   -1.53267272988813     -0.38480494982344     -0.97781539956633
  O   -1.24913853189510     -0.65227718621250     -2.14581388145011
  O   -2.64166254125211     -0.49960577982696     -0.46616706542613
  N   -0.73989024750085      0.98941213685260      0.92799919976980
  O   0.10595764118536      1.07970775713815      1.82971844369328
  O   -1.75375810731923      1.67114308633122      0.84751077774544
