12
Coordinates from ORCA-job run
  C   0.97066186845101      0.09947613220402      0.14727673081546
  C   -0.37597070130628      0.26421791123169      0.02186974050197
  H   1.51995129083435      0.98079660847629      0.46193239802169
  N   1.69175956050508     -0.99889450270866     -0.08929733402879
  H   1.22541737130768     -1.86188400203012     -0.31930668705892
  H   2.68468981711318     -0.98581293379263      0.05498359379519
  N   -0.95763181766092      1.53432856555479      0.42609051234283
  O   -0.26124267528493      2.53867234981949      0.27569531985744
  O   -2.07592858934253      1.50753435946471      0.92967259078872
  N   -1.25885676509434     -0.75058766614002     -0.48719511249019
  O   -0.80418099439132     -1.90368369922937     -0.50415068599036
  O   -2.35766836513099     -0.42416312285020     -0.91757106655505
