12
Coordinates from ORCA-job run
  C   0.73270564338193     -0.53494724836477     -0.38700327094739
  C   -0.46038679862122     -0.00888928493489      0.00812857953337
  H   0.66715908122007     -1.41928448299715     -1.01242392947688
  N   1.96152601694151     -0.11099317571144     -0.08265277537706
  H   2.76167309316276     -0.59138736075665     -0.45131203748732
  H   2.08030626307038      0.74261488047028      0.43925495351478
  N   -1.68233782897696     -0.58594713056228     -0.52938700768135
  O   -2.62178605764016      0.17522284990792     -0.73672394383532
  O   -1.66456401547981     -1.79076798006188     -0.78293196355422
  N   -0.58019400071526      1.09278698044729      0.92506376819401
  O   -1.63869591046838      1.26414424661139      1.51617261259974
  O   0.44459451412514      1.76944770595217      1.09381501451763
