12
Coordinates from ORCA-job run
  C   0.96404529694547      0.20238182456906     -0.04931042715588
  C   -0.39384287931614      0.23121910554527      0.05732189907794
  H   1.45909733905630      1.16320085724983      0.04688692535833
  N   1.75078982509922     -0.85195708797214     -0.27669686756036
  H   1.35008064340248     -1.77586403854790     -0.30860628129283
  H   2.74620502422808     -0.73287444041622     -0.32051411150675
  N   -1.03302223038467      1.49145740636051      0.40241394729535
  O   -0.48882018345502      2.52007813394769     -0.00015360913310
  O   -2.03580099695284      1.44089495883382      1.10722914869494
  N   -1.23404402397461     -0.91771732597650     -0.14810964079148
  O   -2.42085614222948     -0.75202942676569     -0.39955527364577
  O   -0.66383167241879     -2.01778996682773     -0.10990570934038
