12
Coordinates from ORCA-job run
  C   0.78301862127595     -0.39004391057381     -0.45598146849486
  C   -0.45520281345649      0.02176201645013     -0.06429059845495
  H   0.81148653086485     -0.97707347150622     -1.36814947445349
  N   1.95707484632884     -0.14357268822117      0.12997897613128
  H   2.80050113797612     -0.52036477598781     -0.26191282163022
  H   1.98241689497379      0.33983601064510      1.01360826970129
  N   -0.68717476322261      0.89861848439577      1.05180189926195
  O   0.25054235612905      1.01062472913953      1.85476198059560
  O   -1.74369190892335      1.51393377419317      1.11770829132612
  N   -1.60922918761563     -0.44833254859152     -0.81427717113948
  O   -2.64197325394914     -0.65875088213597     -0.18647640011296
  O   -1.44776846038139     -0.64663673780719     -2.01877148273030
