12
Coordinates from ORCA-job run
  C   0.98298476988868      0.07753726045216      0.00776639550446
  C   -0.36414919775951      0.28201363181442      0.01087006293661
  H   1.58923258069793      0.97488971225421      0.07662227072090
  N   1.64154950857069     -1.07936469204286     -0.09394609419581
  H   2.64462462449697     -1.08583208433798     -0.06604411094980
  H   1.12887257184829     -1.94670404192168     -0.09200124756142
  N   -0.85654717217725      1.63331006077332      0.22784368000965
  O   -0.15804289589731      2.55500657388824     -0.19485067424824
  O   -1.90359317522523      1.75795926626382      0.85477317497192
  N   -1.32973137811100     -0.76722839568065     -0.17841190047718
  O   -0.90854265715215     -1.92296889306244     -0.02499260976932
  O   -2.46665757918010     -0.47661839840055     -0.52762894694178
