12
Coordinates from ORCA-job run
  C   0.83277573882372     -0.40942491588206     -0.33357158934762
  C   -0.43700332195765      0.04439404186387     -0.13838348618623
  H   0.98791323765896     -0.97840308600127     -1.24445820913380
  N   1.90469984456707     -0.21934627991498      0.43941689156353
  H   1.80221854544640      0.24219007901545      1.32915550575460
  H   2.78380569341287     -0.62875785094792      0.18146754355875
  N   -0.81746592415634      0.90304299506185      0.95106719358804
  O   -1.84929767394408      1.55632863368436      0.86423255254605
  O   -0.01848681425403      0.96155062900771      1.89702641025341
  N   -1.46948863796462     -0.36933312745476     -1.07559082928714
  O   -1.12098837065356     -0.55461556057200     -2.24189750307423
  O   -2.59768231697874     -0.54862555786026     -0.62846448023536
