12
Coordinates from ORCA-job run
  C   0.96921822864243      0.14743040722627      0.10916864437967
  C   -0.39175195773807      0.20726549021018      0.12451528706004
  H   1.47706529203448      0.96606277739922      0.60861782949646
  N   1.74697687723039     -0.80091952898633     -0.41858380210225
  H   2.74532950256923     -0.70891807764686     -0.37594232383398
  H   1.33052126378987     -1.54475225117878     -0.95570115321009
  N   -1.24069576811685     -0.83431951190048     -0.38847049433533
  O   -0.69618459068129     -1.65220763773429     -1.14434461337626
  O   -2.40597441891390     -0.89189380175464     -0.01714563192607
  N   -1.02572641587946      1.39065930092005      0.68415407167010
  O   -0.43684207194306      1.95354682439907      1.60747992271240
  O   -2.07093594099374      1.76904600904659      0.16525226346531
