12
Coordinates from ORCA-job run
  C   0.97656675238641      0.09760695046004      0.10043890022026
  C   -0.37371766510155      0.26624267870118      0.03115858184479
  H   1.54687254415854      0.99273051627721      0.32617006763574
  N   1.67683747031314     -1.02720613836950     -0.06367237450411
  H   1.19729816131824     -1.88712403030898     -0.27815392897678
  H   2.67991302354549     -0.99500133075553     -0.06619893366365
  N   -0.92548758362977      1.56834937021345      0.37220554697000
  O   -0.23152665827800      2.55203195533680      0.11326921760154
  O   -2.01563274182198      1.58959703014409      0.93419990793974
  N   -1.28660579899448     -0.76989692299315     -0.36856574980932
  O   -2.40527642537702     -0.46189157723936     -0.75985990734616
  O   -0.83824107851904     -1.92543850146626     -0.34099132791205
