12
Coordinates from ORCA-job run
  C   0.87868329831620      0.20235615986580     -0.20991163761239
  C   -0.59787951798953      0.03807842595298     -0.11905782222812
  H   1.24693442367908      0.48936234032954     -1.19612462238361
  N   1.67803085826166     -0.78114157339112      0.37079454463027
  H   2.66429793553509     -0.56766463948993      0.32991436376592
  H   1.39193761963730     -1.01200034413881      1.31202130321956
  N   -1.60608592333050     -0.78692461978370     -0.68456813114487
  O   -1.20284552672410     -1.67615149900197     -1.43312263069570
  O   -2.77130548661493     -0.54420687851294     -0.37475161635313
  N   -0.75910632391131      1.20658229384215      0.50825355431773
  O   -1.59386390634682      1.95344742693524      0.92598019274256
  O   0.67020254948787      1.47826290739276      0.56957250174178
