12
Coordinates from ORCA-job run
  C   0.98371374721754      0.06789388551654      0.03033919982008
  C   -0.36139323028401      0.28434278828013      0.01902907372375
  H   1.59724608538377      0.95531273364108      0.14659251598904
  N   1.63291407918537     -1.09100520561764     -0.10379087980580
  H   1.11240128699925     -1.95255450472200     -0.14782692974707
  H   2.63545899592225     -1.10972350784802     -0.06544262232437
  N   -0.84686345059859      1.63103996156408      0.27628874468745
  O   -1.90334968689337      1.74188483792054      0.88985029381321
  O   -0.13365046395444      2.56155373170068     -0.10007785306993
  N   -1.33217549922450     -0.74634662174445     -0.23309799614073
  O   -2.45855207457043     -0.42975318635745     -0.59392469202085
  O   -0.92574978918282     -1.91164491233349     -0.11693885492478
