12
Coordinates from ORCA-job run
  C   0.75697252629183     -0.57227567581197     -0.26958470968061
  C   -0.44359341411229      0.05223932591632     -0.11001787958577
  H   0.77875236494438     -1.35374258119888     -1.02209576944988
  N   1.89910731631784     -0.34184115101889      0.38154804005406
  H   2.73193303193229     -0.83762758534799      0.12160765991551
  H   1.93181331445382      0.36493031135352      1.09892220418709
  N   -1.58753860320820     -0.45064578443650     -0.85476694347467
  O   -1.36069944747186     -0.93328715602206     -1.96467011796444
  O   -2.68369940957026     -0.40108818171689     -0.30633694726439
  N   -0.64453295246940      1.18507457512331      0.75215681197683
  O   -1.61916441359368      1.90477421091992      0.57520685320326
  O   0.24064968648552      1.38448969224008      1.59703079808301
