12
Coordinates from ORCA-job run
  C   0.94776555476397      0.17315562126765     -0.21133934308566
  C   -0.38498556483412      0.24453105294501      0.06271156125113
  H   1.44098448157776      1.12552182510215     -0.37622342521350
  N   1.71035046304929     -0.91747338190745     -0.31486904027319
  H   1.31537240192595     -1.82455611814651     -0.12427035382303
  H   2.68468800514041     -0.82874771778129     -0.53780129616784
  N   -1.23295746305123     -0.90854295349356      0.20159947248103
  O   -0.65168881847672     -1.98758554010804      0.38756003487312
  O   -2.44376710894464     -0.77756211718994      0.07521116229224
  N   -0.98689487736091      1.55848453586076      0.22744696584663
  O   -1.89003752583546      1.66579108845422      1.05060269392501
  O   -0.50982954795431      2.47698370499700     -0.43962843210594
