12
Coordinates from ORCA-job run
  C   0.95524703260123      0.08826749411738      0.22922613020116
  C   -0.38154302940700      0.25621353637295      0.02636801928427
  H   1.47156161797313      0.94043125177367      0.65900127036046
  N   1.69593344460626     -0.99547153652338     -0.01427025391877
  H   1.28097448028292     -1.79079591389668     -0.47302669937146
  H   2.68164947610954     -0.97960822836383      0.17291888275212
  N   -1.25576681209669     -0.79015051199790     -0.43046989410221
  O   -2.46075203556804     -0.68782370678255     -0.23863270126659
  O   -0.70073226269740     -1.77018064396024     -0.94852458074054
  N   -0.95975802808537      1.56612291940015      0.28206361291035
  O   -0.44854971016728      2.23457217605583      1.18106096992973
  O   -1.87926417355129      1.92842316380458     -0.44471475603855
