12
Coordinates from ORCA-job run
  C   0.75070755216769     -0.38910713605725     -0.50788479355717
  C   -0.45587198847431      0.04419735966093     -0.04656891948378
  H   0.72463817432072     -0.91695034930629     -1.45560731366904
  N   1.95283417999047     -0.22689219202854      0.04978728538749
  H   2.02772872199873      0.19765000514195      0.96045051973992
  H   2.76644352719857     -0.61033452682858     -0.39515136394802
  N   -1.65253174926300     -0.33115817197177     -0.78315902115115
  O   -1.53911286406257     -0.45741746817694     -2.00275597929767
  O   -2.67174473017553     -0.54167122708073     -0.13367726179671
  N   -0.61434936918593      0.85349713431438      1.13184274245763
  O   -1.64243450261659      1.50264561624037      1.27598845351576
  O   0.35369304810174      0.87654095609244      1.90573565180276
