12
Coordinates from ORCA-job run
  C   0.94873079205047      0.17296069192695     -0.20718503010259
  C   -0.38523120622984      0.24468403359305      0.06075903998705
  H   1.44429954351617      1.12566215837514     -0.36290605920273
  N   1.70910313717714     -0.91858505875152     -0.32025700746597
  H   1.31527665082386     -1.82436629950197     -0.12122013486641
  H   2.68999158237349     -0.82724922273687     -0.51123990255620
  N   -1.23514622098229     -0.90850145829863      0.18938746652476
  O   -0.65587719922053     -1.98891292615190      0.37298109724038
  O   -2.44512574239437     -0.77560168404456      0.05738562465452
  N   -0.98678592475891      1.55833725804537      0.22779201599794
  O   -0.50428152191720      2.47971074552121     -0.43136434422915
  O   -1.89495389043797      1.66286176202372      1.04586723401839
