12
Coordinates from ORCA-job run
  C   0.74489388698459     -0.62232036859003     -0.22740659932001
  C   -0.42753110758168      0.04847208683940     -0.09924115024318
  H   0.73843585138489     -1.46264062168598     -0.91621785940307
  N   1.90001853156954     -0.40016421244663      0.41645225391394
  H   1.98355983634987      0.41862368259016      0.99740875051625
  H   2.72695476654052     -0.88815823259920      0.12448994387313
  N   -0.65898469550486      1.14696931146326      0.79042510637364
  O   0.32132206018460      1.55016279411508      1.43103646042392
  O   -1.80130393122629      1.57938657024634      0.89805973088405
  N   -1.56590091148425     -0.34951145534768     -0.91359757433643
  O   -1.99533414932368      0.48844399673727     -1.70389407927815
  O   -1.96513013789324     -1.50926355132199     -0.79651498340408
