12
Coordinates from ORCA-job run
  C   0.77093525936749     -0.35583983689291     -0.50239291539843
  C   -0.45806281459521     -0.04455472146968     -0.00351248385504
  H   0.77223511029702     -1.04306362397114     -1.34216036329799
  N   1.96432877741499      0.06137162057742     -0.07316865987425
  H   2.01824153969522      0.75026509185610      0.66010886466486
  H   2.79807603588511     -0.24125967919078     -0.54242226943645
  N   -1.63343502490555     -0.54703446909211     -0.69743593626688
  O   -2.62862420390969      0.17010217370552     -0.71299152218479
  O   -1.52439821877586     -1.63682969899229     -1.26014781994581
  N   -0.66038030037042      0.75910442940533      1.17194172748992
  O   -1.72840392372506      0.68810516780377      1.76645784181089
  O   0.31048776362197      1.43863354626075      1.53572353629398
