12
Coordinates from ORCA-job run
  C   0.97695157813913      0.08888854684849      0.10308979785254
  C   -0.36901083480859      0.27464171608102      0.00530507392410
  H   1.55706511128375      0.98313656140126      0.30613965875241
  N   1.66542074314572     -1.04552243294401     -0.04630721841301
  H   2.66022526104201     -1.04596338499482      0.08568155942223
  H   1.17126450733817     -1.91672896454571     -0.15604694203582
  N   -1.29173499401138     -0.76434898771787     -0.36624543912694
  O   -0.86424564461349     -1.92435124775444     -0.27579790291903
  O   -2.39705674640035     -0.45601864884776     -0.79328564684178
  N   -0.90735782823095      1.59514229390777      0.29167357109043
  O   -2.00779385274931      1.65047818216241      0.83111043136888
  O   -0.19372730013473      2.55964636640366      0.01468305692600
