12
Coordinates from ORCA-job run
  C   0.72637136537104     -0.60677438388330     -0.27870932517605
  C   -0.45164493124191      0.04664895605813     -0.07483577490828
  H   0.67736360961410     -1.45462283591562     -0.95413535888898
  N   1.91797735390365     -0.34535704528439      0.26367844483050
  H   2.03361414468934      0.46916098144225      0.84535821115986
  H   2.71344015421626     -0.90503912163457      0.01688152095722
  N   -1.61127821965798     -0.36040040334508     -0.85287271608345
  O   -2.40349800752908      0.51535836478641     -1.18489651044050
  O   -1.68475024523599     -1.55018324163142     -1.16149239141150
  N   -0.61342851276473      1.12383803194663      0.86440868348400
  O   0.43259291268867      1.66304393234085      1.25387222226739
  O   -1.73675962405336      1.40432676512012      1.26274299420979
