12
Coordinates from ORCA-job run
  C   0.96364817463987      0.18220323975917     -0.10563877949424
  C   -0.38475991691833      0.23882397317739      0.08002195643873
  H   1.47908222273326      1.13651446070043     -0.07100332857694
  N   1.72337387482994     -0.89546290980052     -0.31646285052594
  H   1.29827151088344     -1.80799756286559     -0.35792383126297
  H   2.69989293177966     -0.78569094595614     -0.52029665168394
  N   -0.98191115951699      1.52008854581453      0.42283717883073
  O   -0.45565960632172      2.52527717940919     -0.05561901174170
  O   -1.93312296425916      1.50961969718513      1.19743701870172
  N   -1.25504410341451     -0.89906553708943     -0.04114937323562
  O   -2.45258053613521     -0.71713014606276     -0.22105192540757
  O   -0.70219042830025     -2.00817999427139     -0.01115040204225
