12
Coordinates from ORCA-job run
  C   0.76681358707791     -0.28828453085555     -0.55010474894973
  C   -0.45504662518126      0.04605898287024     -0.04867993604319
  H   0.76672127255240     -0.64611008210166     -1.57452857596596
  N   1.95496213047436     -0.20937123103982      0.05370461278402
  H   2.78300384408841     -0.50111285450743     -0.43229074565532
  H   2.00476830879498      0.05330046793814      1.02513454276830
  N   -1.63139001888469     -0.21257969559514     -0.86406740747743
  O   -2.65998078134309     -0.54120834404514     -0.28193765121585
  O   -1.49222179293446     -0.12893851818960     -2.08471090936088
  N   -0.64949833208244      0.64090542217108      1.24644064009602
  O   0.30193478747092      0.54145062766825      2.03480345399264
  O   -1.68906638003304      1.24588975568664      1.47523672502736
