12
Coordinates from ORCA-job run
  C   0.77972910290565     -0.37141122272185     -0.47648217705912
  C   -0.45566389091251      0.02356545335897     -0.05928731318980
  H   0.80090984748083     -0.92703753597658     -1.40828662886479
  N   1.95874059941843     -0.14091263328898      0.10591791242352
  H   2.79909909717799     -0.50240198204936     -0.30643311282829
  H   1.99101237118226      0.31246841184501      1.00509633776421
  N   -1.61573910932786     -0.42554196680691     -0.81333402104310
  O   -1.46503168343171     -0.58258190079502     -2.02527292454506
  O   -2.64156214267594     -0.66070738236446     -0.18316946112693
  N   -0.67950122989323      0.85986818698452      1.08902891713771
  O   -1.73752217240460      1.46830610490040      1.18677965715897
  O   0.26552921048070      0.94738646691425      1.88644281417269
