12
Coordinates from ORCA-job run
  C   0.96400680429683      0.18580801089675     -0.09641186540733
  C   -0.38853895200028      0.23950785449705      0.05848701365349
  H   1.47326889239022      1.14377959863000     -0.07715846598670
  N   1.72913350970516     -0.89117605889735     -0.28896042437768
  H   1.31687163768373     -1.80966827963653     -0.24985307494230
  H   2.72340791468863     -0.78862453684329     -0.37734032030801
  N   -1.24906497096755     -0.90786458084565     -0.04718160126708
  O   -0.69135808060002     -2.01156638066261      0.03894031927719
  O   -2.44185636958174     -0.74071946629987     -0.26734311686446
  N   -0.99995681690057      1.52697470218877      0.34944150125199
  O   -0.45835488531208      2.52200764008423     -0.13299905667333
  O   -1.97755868340233      1.53254149688853      1.09037909164420
