12
Coordinates from ORCA-job run
  C   0.75810851136120     -0.43717420082517     -0.45524350333165
  C   -0.45018021416181      0.06251652390806     -0.07248377230879
  H   0.75761406547317     -0.99267629024340     -1.38739568471272
  N   1.93565447766151     -0.30894928124986      0.16074189501928
  H   2.75318673361006     -0.74108818138768     -0.22892027815991
  H   1.98133689785541      0.13995041844150      1.06159735563503
  N   -1.62278566997934     -0.28536915026348     -0.85974473487136
  O   -1.45236074880052     -0.45683431187616     -2.06707811055795
  O   -2.68255438419978     -0.42949076464130     -0.25891015237162
  N   -0.63364784511031      0.91554054142267      1.07080439908354
  O   0.29208476657839      0.91997967642462      1.89526504994652
  O   -1.63645659028797      1.61459502029021      1.13936753662964
