12
Coordinates from ORCA-job run
  C   0.98381302745653      0.15390497707957      0.07000339207397
  C   -0.37085049920309      0.24100796087844      0.07572146148040
  H   1.51420908876238      0.95154573575465      0.58118097487777
  N   1.74690755132056     -0.77865376527109     -0.51534938174214
  H   1.30396339979729     -1.58828847342819     -0.92091696429214
  H   2.72259494927376     -0.82995347528669     -0.28066528391572
  N   -1.24935937762799     -0.80551917017126     -0.37299068490596
  O   -2.41535866459794     -0.79675009100003     -0.00088026323644
  O   -0.74071691486281     -1.65752216503530     -1.11453405235643
  N   -0.99936955910075      1.40647194618096      0.67133506880874
  O   -1.99575974350795      1.84547196337560      0.10381157126822
  O   -0.49807325771002      1.85828455692332      1.70228416193974
