12
Coordinates from ORCA-job run
  C   0.88349839186747      0.17990396812080     -0.39987460317181
  C   -0.34553643705287      0.24162927618808      0.18485977242373
  H   1.38368914456998      1.13319999622697     -0.53563422744220
  N   1.53199348308488     -0.89985389070701     -0.84263208828643
  H   2.44397213883500     -0.80345824330544     -1.25004145068237
  H   1.14406566705753     -1.81605880216949     -0.68394642094741
  N   -0.81481307440461      1.52901718480994      0.67260050583273
  O   -1.50371611128488      1.52994180383792      1.68775483472910
  O   -0.44413207842197      2.52787312277219      0.05537221051198
  N   -1.20827770914237     -0.89761319387124      0.34843657690464
  O   -2.40686664822236     -0.71824004269936      0.52224818757768
  O   -0.66487676688581     -2.00634117920337      0.23885670255037
