12
Coordinates from ORCA-job run
  C   0.74866458787139     -0.59534375622745     -0.24063262372480
  C   -0.44711125729310      0.04245748556815     -0.10050612368278
  H   0.74640030202637     -1.44571115730255     -0.91469701775888
  N   1.90739330495229     -0.31569994712181      0.36061441628907
  H   1.98197063205659      0.50095825393906      0.94598882283882
  H   2.72168078581777     -0.86586822885564      0.15779319036830
  N   -1.56083453567710     -0.38621448804990     -0.93231697227501
  O   -2.34821637634056      0.47626994675302     -1.30791876650315
  O   -1.60160317953094     -1.57838539029759     -1.23762028816003
  N   -0.67293357262285      1.11620840902270      0.82880270607783
  O   -1.81922693492801      1.38059865074886      1.16849438336064
  O   0.34381624366815      1.67073022182315      1.27099827316997
