12
Coordinates from ORCA-job run
  C   0.95997777041241      0.06917432694973      0.21533286554123
  C   -0.37187444570345      0.27073057909707      0.01075846721261
  H   1.50852664912986      0.92747456768537      0.58937533577887
  N   1.66167317289995     -1.05170676280653      0.03200235795003
  H   2.64836750008283     -1.05957038779106      0.21437294040950
  H   1.21615193194851     -1.85903698844826     -0.37405816956774
  N   -1.28539074242119     -0.77135348591824     -0.37278377892614
  O   -0.76908849640298     -1.79907408412791     -0.83541915584287
  O   -2.48391730546308     -0.61716802054556     -0.17519054362541
  N   -0.90405158997228      1.61218315785778      0.19333801690932
  O   -0.36239671695733      2.31500060406829      1.04703527051971
  O   -1.81797772755326      1.96134649397933     -0.54676360635911
