13
Coordinates from ORCA-job run
  C   -0.64043887369574     -0.42788072575622      0.51273452436397
  C   0.78945111288488     -0.77141142698908      0.12566067127948
  H   -1.19453107721712     -1.36894440703143      0.58724847029863
  H   0.85271205869153     -1.25948966798848     -0.84603792754850
  H   -0.63227348728542      0.02234136367682      1.50825348792500
  H   1.28211033990735     -1.37429364161495      0.88998601464807
  C   -1.30999052716868      0.50533100389228     -0.49061393446479
  H   -0.81856616135112      1.48025302192536     -0.51475090447889
  H   -2.35573881101401      0.67024328418264     -0.22439314571717
  H   -1.27927937858526      0.08934242434609     -1.50083024951485
  N   1.58192343618929      0.48807732720101      0.01122438286788
  O   1.74105490345691      1.13130741318437      1.04631185843909
  O   1.98356646518740      0.81512403097157     -1.10379324809793
