13
Coordinates from ORCA-job run
  C   -0.50018191957069     -0.66770056301023     -0.39963713949428
  C   0.74684760716458     -0.67414848368554      0.47048033890879
  H   -1.06773813991435     -1.57375954615603     -0.16490744460713
  H   1.39231613658949     -1.52475874308062      0.24643339712503
  H   -0.19435492560516     -0.73928414424186     -1.44614797501829
  H   0.51285254874559     -0.64135639050586      1.53379372650554
  C   -1.36216346157193      0.57084891569977     -0.17796402727534
  H   -2.28205765013945      0.50871934432601     -0.76244666596929
  H   -1.63630856283202      0.67967244478444      0.87440400836058
  H   -0.83836990001001      1.47895113005508     -0.48378755510137
  N   1.55158867775793      0.54938572106034      0.18314256276486
  O   2.02620606674912      0.64004808579857     -0.94690965227098
  O   1.65136352263690      1.39338222895592      1.07154642607190
