13
Coordinates from ORCA-job run
  C   -0.50563344492826     -0.68520770329404     -0.36169934160746
  C   0.95497655580137     -0.28274444664809     -0.49181700445680
  H   -0.81425567693430     -1.11198085746767     -1.32128155751146
  H   1.59694534171444     -1.14418410952265     -0.68197257188847
  H   -0.58236174513829     -1.47908351455200      0.38507282714787
  H   1.11014076680970      0.48437967257713     -1.24936517077876
  C   -1.40499520607599      0.48861364694062      0.01153111121803
  H   -1.30120747932209      1.31005890727691     -0.70188855689759
  H   -1.16284508956725      0.87416238916676      1.00413077031551
  H   -2.45254533946108      0.18178672854261      0.02402771688527
  N   1.41747360839878      0.30721318532562      0.79871956376309
  O   1.44149978551075     -0.44721788475134      1.76863218599226
  O   1.70180792319223      1.50320398640614      0.81491002781851
