11
Coordinates from ORCA-job run
  C   -0.49756038951005     -0.40483092081377      0.47921898678562
  C   0.97426769721735     -0.34503498305888      0.11297000651097
  Cl  -0.69587039317069     -0.63561151804860      2.21532460660961
  H   1.43959164077332      0.49062275721048      0.63850919014356
  H   -1.04021167040752     -1.19027112144451     -0.04236038845361
  H   1.45750304752074     -1.27074073254795      0.43461992320338
  N   -1.17426993928725      0.88814793336163      0.08590310964711
  O   -0.57329899709848      1.92494914113145      0.34021597455266
  O   -2.27469955161421      0.78086407526824     -0.44388127329812
  C   1.13908785725609     -0.18061083805756     -1.32981576731374
  N   1.24646069832071     -0.05748379300055     -2.49170436838744
