11
Coordinates from ORCA-job run
  C   -0.44742896286737     -0.32198478526321      0.65046164052905
  C   0.53710616651604     -0.77607774485991     -0.42050775805956
  Cl  0.33582369933128      0.00142015881280      2.17905489441620
  H   -0.02303509077905     -1.02217788745178     -1.32597980775312
  H   -1.22388479228815     -1.07180827861107      0.79587594924298
  H   1.04543392915028     -1.67784827931470     -0.07133691740713
  N   -1.18024614969708      0.90044961307883      0.11532465015541
  O   -0.96332159517431      1.99933753603250      0.59761663096662
  O   -1.92730311795617      0.63314133765101     -0.82143917354144
  C   1.52744009535158      0.25457957675025     -0.72259323245017
  N   2.31941581841294      1.08196875317526     -0.97647687609884
