11
Coordinates from ORCA-job run
  C   -0.52790810174817     -0.39825562854826      0.45320805818710
  C   0.94564742306738     -0.42295196140344      0.09057558669386
  Cl  -0.74892948777263     -0.71873332528982      2.17187860281695
  H   1.35717505922824     -1.40186838989482      0.34816215520627
  H   -1.12325407487269     -1.10988362324717     -0.11488503343797
  H   1.46972355397466      0.33822477483798      0.67129222535704
  N   -1.10889848219342      0.96152138033884      0.13954073955871
  O   -0.43185953019343      1.93480923489965      0.44734129655542
  O   -2.21757833038530      0.96563311399861     -0.38328011463563
  C   1.13068731105169     -0.17214068007642     -1.33740584859131
  N   1.25519465984369      0.02364510438485     -2.48742766771043
