11
Coordinates from ORCA-job run
  C   -0.52642076776611     -0.38862834688275      0.45402105612831
  C   0.93684570596698     -0.45094602359040      0.05726869468878
  Cl  -0.72029252285011     -0.74506255274422      2.16996591508096
  H   1.32307787538328     -1.44622855019850      0.29017809128147
  H   -1.15671885839916     -1.06836121914803     -0.11562128277974
  H   1.49810971911697      0.28392922388391      0.63654057762891
  N   -1.07793376522199      0.99413815311829      0.19074592795110
  O   -2.23434055733765      1.04176573731159     -0.21370763818233
  O   -0.33588269715512      1.94099832096159      0.42284920255628
  C   1.09508509661108     -0.18458167150656     -1.37087655310867
  N   1.19747077165183      0.02197692879507     -2.52136399124505
