11
Coordinates from ORCA-job run
  C   -0.47452937360560     -0.26315398953151      0.34006574008714
  C   0.77358452487865      0.09827893586493     -0.45005076287712
  Cl  -0.09792740089900     -0.65035266672126      2.01498255164415
  H   1.30030637429605      0.90446510559048      0.06372341975858
  H   -1.03007248023004     -1.09265442525303     -0.09218904893926
  H   0.47775630608543      0.46326844886198     -1.43913323239909
  N   -1.41356292407117      0.91827818785227      0.30951204651939
  O   -0.92900488205188      2.01520736670183      0.56203737979997
  O   -2.58253502872790      0.67506366693967      0.02819608320102
  C   1.64315994539770     -1.06318805785344     -0.60534706881618
  N   2.33182493892776     -2.00421257245192     -0.73279710797857
