11
Coordinates from ORCA-job run
  C   -0.48720958039740     -0.39613040064948      0.50143681675894
  C   0.97753628654595     -0.33479955153024      0.10681923258588
  Cl  -0.65173670339083     -0.57554020641991      2.24670295073073
  H   1.44453774039558      0.51936968185918      0.60042374379288
  H   -1.03191593302335     -1.20137245918641      0.01335004269539
  H   1.47472218695008     -1.24689064193899      0.44559002028179
  N   -1.17949083579971      0.87916215853536      0.07897975936038
  O   -0.59515768163482      1.92872590669729      0.31831215643064
  O   -2.27239698349344      0.74592553937883     -0.46069149785663
  C   1.11598449067736     -0.20829053376341     -1.34255867391898
  N   1.20512701317055     -0.11015949298221     -2.50836455086103
