11
Coordinates from ORCA-job run
  C   -0.44774669977342     -0.31052722929179      0.65501954864324
  C   0.52104135623025     -0.78579668471431     -0.42084790481927
  Cl  0.35208977596004      0.01080511922623      2.17531033615036
  H   1.01659953413825     -1.69465039791380     -0.07161032360288
  H   -1.23431770143233     -1.04747485012510      0.81130815422194
  H   -0.04974290014740     -1.02606775436799     -1.32127402423575
  N   -1.16694152244408      0.91940675217748      0.11813837025827
  O   -0.92782849806226      2.01821256294845      0.59005574092446
  O   -1.92745807383168      0.65730232916526     -0.80919972619723
  C   1.52731574868271      0.22580072188009     -0.73455838860483
  N   2.33798898067991      1.03298943101547     -0.99434178273831
