11
Coordinates from ORCA-job run
  C   -0.39904424787864     -0.28282821221078      0.63331994187633
  C   0.91471358695469     -0.48304550206871     -0.10044017930336
  Cl  -0.15246504795410     -0.34935285943357      2.37735083994319
  H   1.61102399189762      0.30495434034740      0.19148742483894
  H   -1.16034154507808     -1.01019213568387      0.35978480286469
  H   1.33917858800982     -1.44756061469527      0.18831501795389
  N   -0.97933106104434      1.06734483459426      0.28074002230697
  O   -0.20060439691390      2.01261076921946      0.25347120260027
  O   -2.18589343162159      1.09526842892967      0.06473565142148
  C   0.70437286690641     -0.45387277055537     -1.54654321037019
  N   0.50739069672213     -0.45332627844322     -2.70322151413221
