11
Coordinates from ORCA-job run
  C   -0.54035075243942     -0.43925943685044      0.49058143989254
  C   0.67350438878835     -0.67312844462254     -0.40067921480417
  Cl  -0.11013525278186     -0.30495584044281      2.17911014247270
  H   0.32864204071269     -0.81007889476247     -1.42858417431999
  H   -1.26388281699421     -1.24384282228113      0.36689810690834
  H   1.17589042754045     -1.58824775784074     -0.07866043867925
  N   -1.25235227793681      0.80703019722308     -0.01704044650297
  O   -1.77498297477367      0.64041330822986     -1.11538371082957
  O   -1.22671407628873      1.83312631039876      0.64141476447761
  C   1.61462154128855      0.44284010401903     -0.34332400201152
  N   2.37475975288466      1.33510327692943     -0.29533246660372
