11
Coordinates from ORCA-job run
  C   -0.47349467324241     -0.30703636674584      0.63886273443117
  C   0.55219326917455     -0.78426785361522     -0.38218590817721
  Cl  0.24904692567936      0.05032608626158      2.18973764755538
  H   0.02831098523426     -1.04814546530215     -1.30429357945558
  H   -1.25454813359658     -1.05458746509149      0.77046307454724
  H   1.04405047065796     -1.67951123680781      0.00524302516836
  N   -1.18461283087458      0.90230403569471      0.04878370144061
  O   -1.89654082950746      0.61365939539558     -0.90881443192586
  O   -0.98308233781381      2.01232365396064      0.51204118049983
  C   1.55608894192710      0.23839352582844     -0.66612557069539
  N   2.36258821236163      1.05654169042152     -0.90371187338857
