11
Coordinates from ORCA-job run
  C   -0.45073259967342     -0.30015847683365      0.65866299664493
  C   0.55508276793860     -0.78403463453821     -0.37891883638553
  Cl  0.30657258632040      0.10402945040568      2.18105316631352
  H   0.01120294362768     -1.07816697484977     -1.27997700008857
  H   -1.21559612377791     -1.05685895092598      0.82773512784074
  H   1.07246331369044     -1.66174971404136      0.01551877737949
  N   -1.19727431085210      0.88384674264783      0.06097158085903
  O   -1.92958789360561      0.56204929507666     -0.87032384960643
  O   -1.00050450153978      2.00749771021192      0.49234366989540
  C   1.53396682781971      0.24784697980418     -0.71246744663405
  N   2.31440699005202      1.07669857304271     -0.99559818621856
