16

C	0.0	0.0	0.0
C	-0.54027	-0.071348	-1.422397
Cl	1.806597	0.0	0.0
H	-1.639924	-0.060058	-1.245141
H	-0.268647	1.003214	0.356437
N	-0.532509	-1.073982	0.773794
H	-0.351875	-0.880968	1.754431
H	-1.561798	-0.966388	0.634663
N	-0.219937	-1.386831	-2.046786
O	-0.976484	-2.328234	-1.817417
O	0.779016	-1.459435	-2.772976
C	-0.081836	1.059768	-2.314242
H	-0.587979	1.007256	-3.281263
H	0.994094	1.029458	-2.482169
H	-0.349186	2.009007	-1.841942
H	-3.026038	0.0	0.0
