16

C	0.0	0.0	0.0
C	-0.557414	-0.088213	-1.41504
Cl	1.79605	0.0	0.0
H	-1.653562	-0.078911	-1.229999
H	-0.273024	1.00227	0.353436
N	-0.532876	-1.076884	0.773752
H	-0.347102	-0.89316	1.755013
H	-1.561064	-0.97148	0.638707
N	-0.238664	-1.410311	-2.027406
O	0.805271	-1.511596	-2.678085
O	-1.041832	-2.324436	-1.866337
C	-0.117532	1.032503	-2.327378
H	0.954687	1.004676	-2.509577
H	-0.64011	0.962855	-3.283999
H	-0.385109	1.984263	-1.863573
H	-3.050951	0.0	0.0
