16

C	0.0	0.0	0.0
C	-0.423454	-0.214398	-1.473698
Cl	1.792617	0.0	0.0
H	0.46006	-0.048043	-2.097275
H	-0.262756	1.024152	0.266536
N	-0.543588	-1.004709	0.862881
H	-0.329773	-0.731139	1.819292
H	-1.573274	-0.819395	0.727434
N	-1.307518	0.91205	-1.967989
O	-2.067466	0.658679	-2.895361
O	-1.062015	2.044417	-1.560634
C	-1.011981	-1.57195	-1.790915
H	-1.090629	-1.704487	-2.870348
H	-0.361837	-2.340277	-1.366288
H	-2.000893	-1.635213	-1.332351
H	-2.873839	0.0	0.0
