16

C	0.0	0.0	0.0
C	-0.395291	-0.232089	-1.484508
Cl	1.792305	0.0	0.0
H	0.482133	0.007791	-2.095454
H	-0.261021	1.032061	0.244231
N	-0.560041	-0.992151	0.861389
H	-0.374792	-0.70551	1.820913
H	-1.590503	-0.792846	0.691961
N	-1.35689	0.818837	-1.995227
O	-2.148485	0.48738	-2.87088
O	-1.127269	1.981608	-1.666664
C	-0.868028	-1.628147	-1.809845
H	-1.85047	-1.779532	-1.363919
H	-0.159242	-2.342373	-1.387211
H	-0.926775	-1.763592	-2.890819
H	-2.832321	0.0	0.0
