16

C	0.0	0.0	0.0
C	-0.554856	-0.127563	-1.41368
Cl	1.795938	0.0	0.0
H	-1.650273	-0.196725	-1.222896
H	-0.273454	1.014641	0.318018
N	-0.519208	-1.042292	0.82838
H	-1.548549	-0.946234	0.701872
H	-0.321006	-0.807117	1.796166
N	-0.125634	-1.405413	-2.04338
O	0.817915	-1.371395	-2.843016
O	-0.741222	-2.42704	-1.744778
C	-0.224076	1.047808	-2.303653
H	-0.692341	1.937728	-1.874988
H	-0.638378	0.895422	-3.30237
H	0.850537	1.204249	-2.395859
H	-3.027015	0.0	0.0
