13

C	-0.426671	-0.051426	-1.447532
C	0.0	0.0	0.0
Cl	-2.335177	-0.489429	-1.480129
H	1.09403	0.0	0.0
H	-0.019086	-0.921733	-1.95945
H	-0.341837	-0.913019	0.493349
N	-0.179991	1.118576	-2.156183
H	-0.513977	1.101102	-3.107296
H	-0.509891	1.936697	-1.663952
N	-0.45837	1.164718	0.740727
H	-1.410882	1.419805	0.508887
H	0.172301	1.940965	0.590047
H	3.017502	0.0	0.0
