14

C	0.0	0.0	0.0
C	-0.455362	-0.088877	-1.466449
F	1.379141	0.0	0.0
H	-1.565571	-0.084651	-1.311894
C	-0.456082	1.256739	0.6134
N	-0.555005	2.28962	1.164997
C	-0.445846	-1.160417	0.789191
N	-0.585239	-2.10924	1.468453
C	0.010711	-1.347128	-2.059448
N	0.370223	-2.312745	-2.627144
N	0.018079	1.087772	-2.177658
H	-0.60955	1.296369	-2.94017
H	0.948183	0.946691	-2.546758
F	-2.476678	0.0	0.0
