14

C	0.0	0.0	0.0
C	-0.474302	-0.252784	-1.490763
F	1.37802	0.0	0.0
H	-1.253446	-1.008943	-1.417424
C	-0.452762	1.305261	0.490713
N	-0.538299	2.419077	0.858758
C	-0.423034	-1.095127	0.884804
N	-0.546065	-2.015377	1.604958
C	0.650943	-0.766187	-2.291272
N	1.517713	-1.183417	-2.964014
N	-1.091314	0.878487	-2.153073
H	-1.915954	1.022931	-1.564132
H	-0.486118	1.691374	-2.092545
F	-2.375902	0.0	0.0
