14

C	0.0	0.0	0.0
C	-0.410969	-0.003881	-1.509405
F	1.371278	0.0	0.0
H	0.547329	-0.006713	-2.043522
C	-0.426562	1.203394	0.734026
N	-0.549637	2.206701	1.333248
C	-0.441121	-1.208297	0.715608
N	-0.497531	-2.203252	1.339765
C	-1.104309	1.240127	-1.902394
N	-1.578096	2.197285	-2.392634
N	-1.134428	-1.214877	-1.84931
H	-1.996439	-1.093452	-1.298382
H	-1.350447	-1.19326	-2.840107
F	-2.365174	0.0	0.0
