14

C	0.0	0.0	0.0
C	-0.382996	0.046846	-1.544297
F	1.375038	0.0	0.0
H	0.591786	-0.051343	-2.04034
C	-0.446159	1.142073	0.805528
N	-0.543844	2.100364	1.479973
C	-0.440665	-1.272527	0.588275
N	-0.535316	-2.356084	1.035321
C	-0.907038	1.371609	-1.897502
N	-1.242728	2.441822	-2.243369
N	-1.265201	-0.974545	-2.059612
H	-0.820603	-1.878005	-1.933462
H	-2.063258	-0.900481	-1.409143
F	-2.349726	0.0	0.0
