16

C	0.0	0.0	0.0
C	-0.580403	-0.093917	-1.393316
F	1.381196	0.0	0.0
H	-1.669955	0.064905	-1.313498
H	-0.332251	0.970004	0.377335
C	-0.482868	-1.11511	0.901637
H	-1.572768	-1.12716	0.923279
H	-0.10004	-0.932852	1.908209
H	-0.089929	-2.070706	0.551811
N	-0.352545	-1.390637	-2.09118
O	-1.215667	-1.730963	-2.896318
O	0.682794	-2.007	-1.842381
N	0.00845	0.973984	-2.271282
O	-0.09028	2.11738	-1.840914
O	0.528934	0.646551	-3.332628
Cl	-3.622391	0.0	0.0
