16

C	0.0	0.0	0.0
C	-0.218797	0.049677	-1.520172
F	1.389518	0.0	0.0
H	0.501631	-0.635727	-1.961774
H	-0.35692	0.917238	0.464246
C	-0.532668	-1.23441	0.667267
H	-1.624857	-1.190794	0.653315
H	-0.179891	-1.251583	1.701408
H	-0.187141	-2.13409	0.154254
N	0.155226	1.397881	-2.0636
O	0.679405	1.390781	-3.176386
O	-0.092383	2.391687	-1.392262
N	-1.52259	-0.342892	-2.163333
O	-2.152141	0.513752	-2.761116
O	-1.74862	-1.543761	-2.116283
Cl	-3.708665	0.0	0.0
