16

C	0.0	0.0	0.0
C	-0.207374	-0.152928	-1.51409
F	1.39004	0.0	0.0
H	0.486805	-0.921812	-1.847294
H	-0.357169	0.968783	0.34322
C	-0.533094	-1.144558	0.812631
H	-1.62592	-1.107812	0.790764
H	-0.184746	-1.035203	1.842947
H	-0.182061	-2.099231	0.416191
N	0.229845	1.092126	-2.229853
O	0.765266	0.912999	-3.323663
O	0.018817	2.17707	-1.701316
N	-1.522457	-0.567826	-2.113308
O	-1.781637	-1.752518	-1.951639
O	-2.136393	0.250369	-2.778464
Cl	-3.731074	0.0	0.0
