19

C	-0.374637	-0.0029	-1.478698
C	0.0	0.0	0.0
F	0.144386	1.121776	-2.067356
H	1.101745	0.0	0.0
C	0.107006	-1.218927	-2.221592
H	-0.362575	-2.113428	-1.818263
H	-0.131357	-1.127589	-3.283791
H	1.191628	-1.26702	-2.091699
N	-1.888868	0.141169	-1.604584
O	-2.34384	1.285767	-1.615967
O	-2.562092	-0.886865	-1.629483
N	-0.496061	-1.231342	0.629716
H	0.273814	-1.889214	0.676379
H	-0.755745	-1.026271	1.586871
C	-0.502216	1.234893	0.724888
H	-0.27386	2.13981	0.163353
H	-1.584292	1.187994	0.885252
H	0.000626	1.298574	1.69299
Br	3.599863	0.0	0.0
