19

C	-0.48556	0.088137	-1.438612
C	0.0	0.0	0.0
F	-1.840664	0.352442	-1.465074
H	1.093234	0.0	0.0
C	0.24283	1.09097	-2.296358
H	1.317742	0.945056	-2.199134
H	-0.062767	0.985687	-3.339906
H	-0.020212	2.093078	-1.960011
N	-0.329765	-1.283933	-2.065635
O	-1.338839	-1.9204	-2.343338
O	0.828193	-1.634672	-2.247604
N	-0.461087	-1.257625	0.579917
H	0.190073	-1.544063	1.296812
H	-1.374216	-1.145714	0.999714
C	-0.429209	1.232332	0.796528
H	-0.034157	2.156605	0.366907
H	-1.519519	1.305339	0.858565
H	-0.02061	1.143102	1.806882
Br	3.583757	0.0	0.0
