19

C	-0.515728	-0.039458	-1.43611
C	0.0	0.0	0.0
F	-0.104767	-1.220156	-2.00072
H	1.100935	0.0	0.0
C	-2.013133	0.063667	-1.599105
H	-2.368576	1.050555	-1.310504
H	-2.272189	-0.122064	-2.644295
H	-2.465341	-0.697938	-0.964814
N	0.124157	1.061696	-2.274016
O	-0.248434	2.206971	-2.022458
O	0.916038	0.744013	-3.147367
N	-0.507425	-1.240572	0.624014
H	0.059896	-2.001992	0.26439
H	-0.279078	-1.176897	1.610899
C	-0.487242	1.189307	0.809383
H	-0.007038	1.151619	1.791249
H	-0.209998	2.13279	0.343674
H	-1.571506	1.15509	0.951823
Br	3.602798	0.0	0.0
