19

C	-0.441882	0.074738	-1.461303
C	0.0	0.0	0.0
F	-1.722702	0.560703	-1.573609
H	1.097345	0.0	0.0
C	0.490069	0.878243	-2.333814
H	1.509141	0.503741	-2.225593
H	0.156985	0.82763	-3.373591
H	0.473219	1.919096	-2.008835
N	-0.489426	-1.329562	-2.04411
O	-1.494971	-1.675675	-2.654096
O	0.527418	-1.998046	-1.892091
N	-0.564196	-1.20045	0.631254
H	-0.714414	-1.007317	1.614316
H	0.138348	-1.930496	0.58367
C	-0.466519	1.244014	0.742902
H	0.018382	1.267186	1.722226
H	-1.551678	1.231828	0.872191
H	-0.185636	2.159347	0.219761
Br	3.655024	0.0	0.0
