19

C	-0.371663	-0.035913	-1.482619
C	0.0	0.0	0.0
F	0.078089	1.112793	-2.085579
H	1.101962	0.0	0.0
C	0.195059	-1.226404	-2.204463
H	1.278387	-1.193481	-2.070903
H	-0.051743	-1.174309	-3.267
H	-0.211232	-2.140214	-1.780237
N	-1.887494	0.006634	-1.634477
O	-2.425268	1.114209	-1.587128
O	-2.483355	-1.063088	-1.751502
N	-0.497565	-1.22272	0.644144
H	-0.837446	-0.998081	1.570701
H	0.280287	-1.861966	0.76404
C	-0.499894	1.245694	0.706877
H	-0.267629	2.141395	0.132777
H	-1.582026	1.20729	0.867015
H	0.002568	1.319884	1.674704
Br	3.594138	0.0	0.0
