19

C	-0.462853	-0.035882	-1.467778
C	0.0	0.0	0.0
F	0.005593	-1.192584	-2.03688
H	1.095974	0.0	0.0
C	-1.954589	0.023378	-1.715194
H	-2.379522	0.954259	-1.349928
H	-2.434096	-0.822555	-1.221012
H	-2.142942	-0.060624	-2.788014
N	0.165363	1.100059	-2.265372
O	1.075037	0.83563	-3.035224
O	-0.328715	2.214792	-2.085957
N	-0.385387	-1.223725	0.697579
H	-1.369648	-1.431542	0.576335
H	0.159345	-1.995339	0.335328
C	-0.505852	1.202283	0.778072
H	-0.226636	2.143845	0.307832
H	-0.054675	1.154772	1.769442
H	-1.595382	1.176473	0.89657
Br	3.595207	0.0	0.0
