19

C	-0.368514	-0.037648	-1.480287
C	0.0	0.0	0.0
F	0.136205	1.076781	-2.090568
H	1.096533	0.0	0.0
C	0.105645	-1.267303	-2.203895
H	-0.344751	-2.152123	-1.763778
H	1.190576	-1.308756	-2.078359
H	-0.142615	-1.190025	-3.265681
N	-1.885651	0.08927	-1.613352
O	-2.547618	-0.886939	-1.26515
O	-2.355316	1.152747	-2.004728
N	-0.395499	-1.2434	0.652085
H	0.261839	-1.428055	1.39964
H	-1.325758	-1.1672	1.045333
C	-0.504226	1.269141	0.677058
H	-1.595905	1.258022	0.785031
H	-0.219165	2.159768	0.114951
H	-0.059022	1.336748	1.672281
Br	3.566718	0.0	0.0
