19

C	-0.459284	-0.02949	-1.468756
C	0.0	0.0	0.0
F	0.041135	-1.165987	-2.050793
H	1.095993	0.0	0.0
C	-1.951681	-0.006867	-1.720094
H	-2.407558	-0.879284	-1.249865
H	-2.133824	-0.068932	-2.795344
H	-2.404604	0.902609	-1.333561
N	0.140956	1.134099	-2.246702
O	-0.396904	2.228832	-2.066854
O	1.077666	0.910128	-2.997594
N	-0.387703	-1.22617	0.692061
H	-1.374481	-1.427405	0.578591
H	0.149447	-1.998998	0.320242
C	-0.501424	1.201886	0.781932
H	-1.592706	1.192446	0.885015
H	-0.064069	1.138652	1.77855
H	-0.20192	2.143916	0.325433
Br	3.605041	0.0	0.0
