19

C	-0.315589	-0.026542	-1.503535
C	0.0	0.0	0.0
F	0.17342	1.111404	-2.081282
H	1.09687	0.0	0.0
C	0.238992	-1.22148	-2.234374
H	1.315239	-1.23934	-2.043432
H	-0.2183	-2.142473	-1.879682
H	0.056698	-1.113744	-3.306359
N	-1.824557	0.044143	-1.6993
O	-2.326712	1.098018	-2.072824
O	-2.456549	-0.975749	-1.409266
N	-0.406884	-1.192063	0.732724
H	-1.30216	-1.539423	0.413714
H	0.291926	-1.913885	0.616644
C	-0.548714	1.251785	0.662581
H	-0.28333	2.150551	0.104543
H	-0.121736	1.316305	1.663686
H	-1.639355	1.201799	0.759319
Br	3.57504	0.0	0.0
