13

C	-0.49604	0.016806	-1.438748
C	0.0	0.0	0.0
F	-0.035658	-1.110779	-2.095518
H	1.098999	0.0	0.0
H	-0.355009	0.912118	0.488645
C	-1.975295	-0.01034	-1.484564
N	-3.148322	0.015805	-1.524003
C	-0.03379	1.210527	-2.173459
N	0.319445	2.152992	-2.777363
N	-0.566592	-1.183672	0.647026
H	0.099325	-1.939874	0.533807
H	-0.636176	-1.008662	1.640781
Br	3.555348	0.0	0.0
