13

C	-0.533416	-0.046779	-1.42433
C	0.0	0.0	0.0
F	-1.930619	0.032981	-1.384146
H	1.092704	0.0	0.0
H	-0.338904	0.955103	0.420824
C	-0.068203	1.09642	-2.230638
N	0.283959	2.00612	-2.883986
C	-0.192742	-1.308657	-2.100788
N	0.069436	-2.31534	-2.644121
N	-0.491001	-1.168881	0.713
H	0.275901	-1.581587	1.225731
H	-1.229571	-0.932408	1.358406
Br	3.512836	0.0	0.0
