13

C	-0.51622	-0.011968	-1.438036
C	0.0	0.0	0.0
F	-0.100556	-1.157214	-2.09045
H	1.096303	0.0	0.0
H	-0.348118	-0.927987	0.466114
C	-1.996568	-0.012298	-1.435402
N	-3.168982	-0.070893	-1.409337
C	-0.056052	1.166558	-2.195002
N	0.269911	2.097467	-2.831391
N	-0.510787	1.206743	0.638559
H	-1.143264	0.991147	1.395134
H	0.267428	1.736998	1.007169
Br	3.529809	0.0	0.0
