18

C	-0.632338	0.068478	-1.386139
C	0.0	0.0	0.0
Cl	0.042198	1.500831	-2.227098
H	1.091252	0.0	0.0
N	-0.208187	-1.106548	-2.264708
O	-1.068451	-1.607845	-2.984189
O	0.971837	-1.422096	-2.233623
C	-2.135491	0.18652	-1.348882
H	-2.541048	0.341676	-2.348116
H	-2.37209	1.039856	-0.712652
H	-2.553552	-0.730639	-0.933151
N	-0.415765	-1.177375	0.689753
O	-0.730569	-2.190516	0.021261
O	-0.30649	-1.187265	1.938916
N	-0.284382	1.205882	0.749646
H	-0.725379	0.920833	1.617278
H	0.629099	1.585835	1.006362
H	2.358535	0.0	0.0
