18

C	-0.62361	0.008054	-1.395254
C	0.0	0.0	0.0
Cl	-0.008178	1.445382	-2.267317
H	1.096135	0.0	0.0
N	-0.140454	-1.168611	-2.243709
O	1.055519	-1.414025	-2.218699
O	-0.977836	-1.742074	-2.936135
C	-2.132717	0.052466	-1.369073
H	-2.536599	0.167767	-2.374058
H	-2.420051	0.904691	-0.751237
H	-2.508153	-0.876876	-0.940762
N	-0.405323	-1.158759	0.721548
O	-0.647751	-2.209128	0.078143
O	-0.353452	-1.118787	1.974724
N	-0.302394	1.226168	0.705764
H	-0.738008	0.961619	1.582113
H	0.602838	1.629467	0.951154
H	2.350448	0.0	0.0
