18

C	-0.631342	0.038827	-1.386671
C	0.0	0.0	0.0
Cl	0.060877	1.440928	-2.264997
H	1.096364	0.0	0.0
N	-0.216791	-1.16282	-2.232599
O	0.956078	-1.499214	-2.17852
O	-1.075989	-1.662954	-2.954317
C	-2.133246	0.172511	-1.355313
H	-2.362673	1.042268	-0.739151
H	-2.561179	-0.730474	-0.919008
H	-2.534404	0.308672	-2.358997
N	-0.419782	-1.152325	0.721364
O	-0.760162	-2.177689	0.081163
O	-0.289839	-1.135622	1.968725
N	-0.274769	1.227554	0.719018
H	-0.688295	0.963806	1.606514
H	0.642288	1.619214	0.941448
H	2.343233	0.0	0.0
