18

C	-0.432741	-0.041349	-1.471627
C	0.0	0.0	0.0
Cl	-2.211985	-0.277248	-1.626738
H	1.089	0.0	0.0
N	-0.115629	1.367161	-1.995732
O	-0.955073	2.254625	-1.872627
O	1.018249	1.515192	-2.443001
C	0.314258	-1.031109	-2.333866
H	1.37566	-0.955489	-2.083919
H	-0.032954	-2.036564	-2.114095
H	0.151568	-0.804693	-3.389755
N	-0.42869	-1.278176	0.646588
O	-1.194828	-1.23911	1.607594
O	0.057939	-2.315852	0.184873
N	-0.41306	1.11436	0.763862
H	-1.283168	1.528957	0.472881
H	0.336256	1.792394	0.791823
H	2.628275	0.0	0.0
