18

C	-0.494351	-0.055708	-1.441597
C	0.0	0.0	0.0
Cl	-2.260159	-0.40483	-1.508889
H	1.090086	0.0	0.0
N	-0.285524	1.367007	-1.979742
O	-1.234325	2.132425	-2.068114
O	0.877798	1.622572	-2.273476
C	0.267476	-1.001068	-2.341411
H	1.332331	-0.871247	-2.131362
H	0.048165	-0.779413	-3.388839
H	-0.016185	-2.024569	-2.114779
N	-0.364649	-1.26439	0.695509
O	-0.973028	-1.189866	1.772235
O	0.040212	-2.321543	0.200622
N	-0.431378	1.166743	0.679852
H	0.258441	1.38451	1.387548
H	-1.329945	1.032347	1.119093
H	2.571625	0.0	0.0
