18

C	-0.443686	0.025246	-1.460516
C	0.0	0.0	0.0
Cl	-0.327642	-1.520569	-2.337879
H	1.091349	0.0	0.0
N	-1.933285	0.377948	-1.517219
O	-2.654908	-0.167384	-0.686158
O	-2.314993	1.156239	-2.38591
C	0.37702	1.061758	-2.188326
H	0.139334	1.068207	-3.250608
H	0.176366	2.039449	-1.753708
H	1.428243	0.808327	-2.016376
N	-0.405188	-1.206785	0.781236
O	-1.089383	-1.045317	1.799631
O	0.055619	-2.28873	0.419678
N	-0.431823	1.220688	0.609893
H	-1.276176	1.052727	1.145357
H	0.304124	1.5175	1.244491
H	2.629644	0.0	0.0
