18

C	-0.634427	0.05866	-1.384787
C	0.0	0.0	0.0
Cl	0.054138	1.474039	-2.244451
H	1.095685	0.0	0.0
N	-0.222369	-1.13028	-2.249135
O	-1.086566	-1.627699	-2.966802
O	0.952909	-1.460489	-2.211384
C	-2.136068	0.191625	-1.346598
H	-2.562596	-0.716464	-0.919693
H	-2.541	0.340058	-2.346895
H	-2.363202	1.053761	-0.719427
N	-0.418788	-1.163755	0.705839
O	-0.754366	-2.181376	0.051922
O	-0.292237	-1.162841	1.953101
N	-0.274629	1.216543	0.73699
H	0.642443	1.599149	0.974241
H	-0.699806	0.94271	1.615442
H	2.34655	0.0	0.0
