18

C	-0.630554	0.043292	-1.385808
C	0.0	0.0	0.0
Cl	0.081869	1.434734	-2.267491
H	1.098937	0.0	0.0
N	-0.231572	-1.166097	-2.22702
O	0.931417	-1.533138	-2.152651
O	-1.091708	-1.643343	-2.964063
C	-2.130341	0.199176	-1.355367
H	-2.530556	0.33789	-2.359311
H	-2.34548	1.073296	-0.740654
H	-2.570593	-0.696191	-0.915092
N	-0.425884	-1.145261	0.724619
O	-0.789188	-2.167061	0.08997
O	-0.281484	-1.129798	1.970872
N	-0.26747	1.232307	0.718067
H	-0.639732	0.96353	1.622732
H	0.652352	1.638177	0.903689
H	2.336334	0.0	0.0
