18

C	-0.501801	-0.122985	-1.437464
C	0.0	0.0	0.0
Cl	-2.225689	-0.631664	-1.495919
H	1.091343	0.0	0.0
N	-0.424355	1.305266	-1.997249
O	-1.440203	1.975047	-2.111987
O	0.711615	1.669296	-2.277602
C	0.343545	-1.005532	-2.327793
H	1.391817	-0.763705	-2.134177
H	0.168741	-2.04609	-2.070073
H	0.090748	-0.832136	-3.37675
N	-0.331007	-1.22999	0.762339
O	-0.035259	-2.31479	0.253456
O	-0.781088	-1.10254	1.908344
N	-0.426467	1.195918	0.633778
H	-1.302789	1.066795	1.122373
H	0.289109	1.462245	1.301161
H	2.561123	0.0	0.0
