15
Coordinates from ORCA-job run
  C   0.92188381587867      0.55833894679006      0.00800667090356
  C   -0.44721864018044     -0.02855050074595     -0.33819026818316
  Br  0.98498227185551      1.13213086102770      1.87069501839609
  H   -0.40733749475840     -0.27742216362613     -1.40565310031208
  H   1.06071236107954      1.48214651401209     -0.56014837581957
  N   1.93316277652368     -0.45621745439999     -0.19975448083901
  H   2.83193756401425     -0.11876739211746      0.12315384726917
  H   2.00963571664199     -0.64266950188904     -1.19538856999627
  N   -1.45303740578725      1.09219115291019     -0.28136715430490
  O   -1.25371844104521      2.02799539681461     -1.05444884408364
  O   -2.38141548269248      1.00999691457910      0.51599176542888
  C   -0.87451491798450     -1.22206661945914      0.48031646891667
  H   -0.09189966410025     -1.97840607303868      0.42196749635402
  H   -1.02651902319594     -0.94718782030551      1.52183061089592
  H   -1.80765343624918     -1.63251226055185      0.09298891537432
