15
Coordinates from ORCA-job run
  C   1.07367532451743      0.10786673781606     -0.38744201386916
  C   -0.43579916894429     -0.01702916743508     -0.55175417078141
  Br  1.61850902641787      1.85716989858106     -1.26571027028683
  H   -0.67923055029257      0.04615834483824     -1.61214370164263
  H   1.53808006261065     -0.62308412276279     -1.05025245219786
  N   1.53605514123852     -0.06927750086467      0.92567979622874
  H   1.14403138810627      0.61348852974761      1.56038614132793
  H   2.54500745029094     -0.06952128872030      0.97814039861299
  N   -1.15418160046526      1.14654936724279      0.06326141889074
  O   -2.01552775815836      1.69665834396869     -0.61421200065131
  O   -0.86299961372515      1.43739303720977      1.22374452503894
  C   -0.97991442878307     -1.29284158709703      0.07242490775331
  H   -2.05150870989053     -1.37467669579356     -0.12192958487806
  H   -0.47967833083052     -2.15733429600110     -0.36859866699936
  H   -0.79651823209194     -1.30051960072969      1.14540567345397
