15
Coordinates from ORCA-job run
  C   1.06714136259624      0.04316246911013     -0.04743282298963
  C   -0.42288252470161      0.02924588530670     -0.36357429997575
  Br  2.01461714927312     -0.55701400358537     -1.64370860157607
  H   -0.60939608391119      0.68249111359571     -1.21668052807809
  H   1.29841269582653     -0.70366719157630      0.71840863286749
  N   1.49548103564967      1.39315096768454      0.25790888253574
  H   2.50001790398366      1.47053308297800      0.16169512666420
  H   1.26029412173792      1.58941031694588      1.22516393425609
  N   -1.14589935250140      0.67823756128818      0.78474146797911
  O   -2.15260857400383      1.32447141854451      0.51817651845606
  O   -0.70861441467835      0.46725036827673      1.91771150647089
  C   -1.03421093827130     -1.34977911057697     -0.54389017190703
  H   -0.85169459577883     -1.96399098099717      0.34096253290224
  H   -0.60142794048559     -1.84309236145681     -1.41334646090127
  H   -2.11122984473502     -1.26040953553778     -0.69613571670399
