15
Coordinates from ORCA-job run
  C   0.93389495998712      0.51391241030643      0.15521057509508
  C   -0.45249165979764      0.08046119285387     -0.32339087005331
  Br  1.03327533945594      0.50987389904595      2.10252737227382
  H   -0.42944589587854      0.15325219358003     -1.41752399184409
  H   1.08667904485036      1.56175003893604     -0.11724908364627
  N   1.91918072617535     -0.41205176588812     -0.36228872671100
  H   1.98995253034183     -0.28552522291720     -1.36770998293997
  H   2.82663640943573     -0.21143494564500      0.04036967092779
  N   -1.43122850339312      1.15393267565447      0.07660362948387
  O   -1.21938676028626      2.27129030619483     -0.39191370444508
  O   -2.35222771972056      0.85829069176225      0.83078020648433
  C   -0.89751833903535     -1.29291528302144      0.11603517074825
  H   -0.13261925838506     -2.01208353331883     -0.17655933761897
  H   -1.84395891654998     -1.55408245432624     -0.35863656092887
  H   -1.03174195719981     -1.33467020321707      1.19474563317442
