15

C	-0.476368	0.029951	-1.455073
C	0.0	0.0	0.0
Cl	-2.371706	0.175447	-1.387044
H	1.094975	0.0	0.0
C	-0.062579	1.267246	-2.119594
N	0.286172	2.231845	-2.691009
N	-0.049554	-1.088397	-2.174958
H	-0.263866	-1.963222	-1.715287
H	-0.346749	-1.087189	-3.140078
C	-0.445676	-1.261548	0.613145
N	-0.811799	-2.257651	1.119186
N	-0.416464	1.192987	0.703927
H	-1.324032	1.085227	1.137481
H	0.281891	1.419905	1.400997
Br	3.398195	0.0	0.0
