15

C	-0.370793	0.043862	-1.502108
C	0.0	0.0	0.0
Cl	0.001679	-1.545042	-2.236134
H	1.094856	0.0	0.0
C	-1.814527	0.289628	-1.647175
N	-2.967288	0.507152	-1.710817
N	0.373898	1.062317	-2.20261
H	1.362191	0.837185	-2.071807
H	0.208451	1.924962	-1.688106
C	-0.549153	-1.159791	0.702156
N	-1.028727	-2.032935	1.326292
N	-0.401746	1.275818	0.584983
H	-1.304445	1.21297	1.038435
H	0.295021	1.554513	1.264726
Br	3.40708	0.0	0.0
