15

C	-0.316383	-0.049849	-1.500647
C	0.0	0.0	0.0
Cl	-2.090337	-0.337506	-1.771107
H	1.097329	0.0	0.0
C	-0.048797	1.270278	-2.104972
N	0.19507	2.264772	-2.68218
N	0.430461	-1.128872	-2.070596
H	1.402051	-1.048026	-1.763087
H	0.393908	-1.101262	-3.081855
C	-0.45091	-1.234849	0.652365
N	-0.842166	-2.161137	1.260559
N	-0.489295	1.210896	0.620508
H	-1.387304	1.063778	1.06265
H	0.180091	1.520252	1.313337
Br	3.391899	0.0	0.0
