15

C	-0.327383	-0.043235	-1.495661
C	0.0	0.0	0.0
Cl	-2.113669	-0.270294	-1.749323
H	1.097385	0.0	0.0
C	-0.017363	1.264112	-2.106625
N	0.250119	2.244729	-2.697335
N	0.375492	-1.150804	-2.06921
H	0.322174	-1.128537	-3.079517
H	1.353636	-1.094332	-1.77946
C	-0.456168	-1.232558	0.653444
N	-0.855684	-2.154953	1.2623
N	-0.479655	1.214251	0.622596
H	-1.383602	1.076003	1.055362
H	0.187881	1.510997	1.323367
Br	3.389331	0.0	0.0
