15

C	-0.542394	0.082015	-1.440406
C	0.0	0.0	0.0
Cl	0.023069	1.581999	-2.211579
H	1.094465	0.0	0.0
C	-0.038194	-1.04491	-2.24777
N	0.265041	-1.998793	-2.864826
N	-1.997747	0.116707	-1.399371
H	-2.352089	0.285604	-2.33448
H	-2.33147	-0.796116	-1.100247
C	-0.481252	-1.274716	0.567688
N	-0.953977	-2.234525	1.056547
N	-0.422432	1.157035	0.756426
H	0.238039	1.313776	1.506537
H	-1.359237	1.054378	1.1199
Br	3.417489	0.0	0.0
