15

C	-0.329684	-0.029429	-1.503722
C	0.0	0.0	0.0
Cl	-2.119392	-0.209753	-1.719939
H	1.09648	0.0	0.0
C	0.044007	1.259202	-2.102205
N	0.346021	2.285608	-2.585364
N	0.328348	-1.095985	-2.218273
H	0.050098	-1.981361	-1.804716
H	1.331842	-0.982798	-2.062009
C	-0.435186	-1.264722	0.610851
N	-0.815547	-2.246128	1.134724
N	-0.48936	1.187236	0.659644
H	0.168297	1.467024	1.376106
H	-1.402525	1.04147	1.069205
Br	3.381122	0.0	0.0
