15

C	-0.498095	-0.042366	-1.446553
C	0.0	0.0	0.0
Cl	-2.397364	0.078438	-1.350004
H	1.097778	0.0	0.0
C	-0.121971	1.170207	-2.175197
N	0.129945	2.136079	-2.793374
N	-0.069929	-1.186929	-2.121171
H	-0.226823	-2.03981	-1.601401
H	-0.417457	-1.254108	-3.066417
C	-0.435715	-1.229747	0.680967
N	-0.800348	-2.203543	1.22995
N	-0.409709	1.225361	0.651605
H	-1.295427	1.130103	1.12968
H	0.312996	1.50038	1.304569
Br	3.387155	0.0	0.0
