15

C	-0.536715	-0.025216	-1.444461
C	0.0	0.0	0.0
Cl	-0.097257	-1.597675	-2.209769
H	1.094048	0.0	0.0
C	-2.014633	0.016048	-1.40448
N	-3.184377	0.13388	-1.362469
N	0.033169	1.059174	-2.168965
H	0.163613	1.836368	-1.53084
H	-0.535318	1.330842	-2.959544
C	-0.494099	-1.152898	0.759054
N	-0.920955	-2.017755	1.430593
N	-0.373383	1.279058	0.60347
H	0.364309	1.551622	1.242257
H	-1.249126	1.219622	1.108213
Br	3.410452	0.0	0.0
