15

C	-0.329362	0.028221	-1.467819
C	0.0	0.0	0.0
Br	-2.290243	0.024833	-1.850773
H	1.096294	0.0	0.0
H	-0.358952	-0.909884	0.47994
C	0.339908	1.181184	-2.16261
H	-0.044571	2.115218	-1.750929
H	1.409753	1.100347	-1.92405
H	0.177142	1.155492	-3.237752
N	0.142214	-1.297807	-2.072668
O	0.003644	-2.306924	-1.39091
O	0.58859	-1.267847	-3.214176
C	-0.487711	1.177097	0.685659
N	-0.851478	2.141465	1.251102
H	2.666287	0.0	0.0
