15

C	-0.576272	0.063075	-1.399065
C	0.0	0.0	0.0
Br	0.248989	-1.319255	-2.516049
H	1.090094	0.0	0.0
H	-0.302938	0.897199	0.548301
C	-2.083447	-0.079039	-1.495837
H	-2.384555	-1.033715	-1.064605
H	-2.554574	0.729619	-0.925795
H	-2.407837	-0.027201	-2.534692
N	-0.223828	1.413191	-2.030271
O	-0.620124	1.602129	-3.177759
O	0.377196	2.230223	-1.341756
C	-0.496226	-1.172931	0.697331
N	-0.888559	-2.121612	1.270722
H	2.695723	0.0	0.0
