15

C	-0.333228	0.026906	-1.467315
C	0.0	0.0	0.0
Br	-2.295474	0.007565	-1.842181
H	1.095429	0.0	0.0
H	-0.35833	-0.910183	0.48024
C	0.323078	1.18599	-2.165132
H	1.394883	1.114596	-1.932435
H	0.156018	1.158527	-3.239506
H	-0.069442	2.116383	-1.752183
N	0.149885	-1.294653	-2.071765
O	0.628686	-1.257644	-3.199943
O	-0.009609	-2.307681	-1.401586
C	-0.489427	1.176333	0.68639
N	-0.858002	2.138187	1.253428
H	2.667563	0.0	0.0
