15

C	-0.573701	0.002721	-1.401155
C	0.0	0.0	0.0
Br	0.215052	-1.499532	-2.389463
H	1.089975	0.0	0.0
H	-0.285876	-0.952486	0.46135
C	-2.082743	-0.101162	-1.491285
H	-2.404869	-0.148703	-2.530494
H	-2.531375	0.772984	-1.009879
H	-2.409253	-1.000089	-0.96612
N	-0.156173	1.269676	-2.145287
O	0.607792	2.03887	-1.575155
O	-0.636463	1.429914	-3.266878
C	-0.552854	1.081794	0.796882
N	-1.004024	1.957986	1.43896
H	2.696743	0.0	0.0
