15

C	-0.392867	-0.067198	-1.464431
C	0.0	0.0	0.0
Br	0.023297	1.60474	-2.354831
H	1.092921	0.0	0.0
H	-0.305419	-0.940463	0.470536
C	0.364453	-1.193849	-2.138069
H	1.428944	-1.009428	-1.959417
H	0.147336	-1.228715	-3.206918
H	0.085979	-2.141918	-1.673927
N	-1.904048	-0.335034	-1.581643
O	-2.249739	-1.431632	-1.138829
O	-2.662662	0.500888	-2.057
C	-0.575078	1.112891	0.729173
N	-1.025763	2.003641	1.350403
H	2.718646	0.0	0.0
