13

C	0.0	0.0	0.0
C	-0.532494	0.047841	-1.430316
Br	1.958302	0.0	0.0
H	-1.643778	0.076736	-1.251379
H	-0.212231	0.960896	-1.938296
C	-0.310431	1.307243	0.640056
N	-0.460913	2.349964	1.165202
N	-0.573422	-1.129268	0.641812
H	-0.366081	-1.100554	1.636215
H	-1.614596	-0.930402	0.525322
C	-0.155868	-1.117756	-2.211143
N	0.112007	-2.03486	-2.895285
H	-2.890095	0.0	0.0
