13

C	0.0	0.0	0.0
C	-0.490131	0.04771	-1.460081
Br	1.959222	0.0	0.0
H	-0.131523	0.938902	-1.982472
H	-1.601516	0.088286	-1.305811
C	-0.360536	1.282238	0.636668
N	-0.508137	2.344333	1.118219
N	-0.535766	-1.078478	0.764393
H	-0.341938	-1.945112	0.267641
H	-1.572496	-0.884724	0.691716
C	-0.111901	-1.151789	-2.186023
N	0.181413	-2.132676	-2.763926
H	-2.871739	0.0	0.0
