16

C	0.0	0.0	0.0
C	-0.374409	0.010488	-1.491556
F	1.392848	0.0	0.0
H	0.337511	0.726957	-1.92341
N	-0.288437	1.411832	0.594147
O	-0.249634	2.374275	-0.166534
O	-0.441278	1.475183	1.809622
N	-0.50846	-1.035434	0.746116
H	-0.331604	-0.836297	1.725816
H	-1.549415	-0.899487	0.5544
C	-1.698462	0.491541	-1.924832
N	-2.452491	0.902694	-2.732508
N	-0.190897	-1.347694	-2.016372
H	0.7461	-1.654849	-1.774186
H	-0.257839	-1.29267	-3.027616
F	-2.641245	0.0	0.0
