16

C	0.0	0.0	0.0
C	-0.36244	0.070377	-1.494439
F	1.393322	0.0	0.0
H	0.374625	0.781703	-1.893274
N	-0.284626	1.386426	0.648489
O	-0.251696	2.376277	-0.076441
O	-0.421113	1.404657	1.867006
N	-0.504774	-1.067492	0.699618
H	-1.551336	-0.915998	0.525943
H	-0.296106	-0.930187	1.682854
C	-1.66388	0.605328	-1.927695
N	-2.416588	1.074459	-2.703486
N	-0.205967	-1.273439	-2.062915
H	0.686545	-1.644715	-1.755985
H	-0.182923	-1.176656	-3.07255
F	-2.625866	0.0	0.0
