16

C	0.0	0.0	0.0
C	-0.521626	0.234273	-1.429767
F	1.365263	0.0	0.0
H	-1.622044	0.267024	-1.252889
N	-0.333502	1.260269	0.843044
O	-0.975705	2.176449	0.335913
O	0.120437	1.261638	1.980506
N	-0.570344	-1.087997	0.672016
H	-0.331876	-1.938811	0.173077
H	-1.60572	-0.883316	0.556353
C	-0.186746	-0.967228	-2.192161
N	0.083472	-1.921208	-2.822324
N	0.080145	1.400688	-2.095059
H	-0.460673	2.203838	-1.798646
H	-0.042923	1.299951	-3.095616
F	-2.816296	0.0	0.0
