16

C	0.0	0.0	0.0
C	-0.479619	-0.029507	-1.471016
F	1.357259	0.0	0.0
H	-1.566721	0.144395	-1.352094
N	-0.357829	1.379998	0.608787
O	-0.773541	2.270869	-0.127683
O	-0.105493	1.517734	1.798946
N	-0.545552	-0.967684	0.849951
H	-0.290147	-1.883492	0.497113
H	-1.585169	-0.796329	0.7013
C	-0.274559	-1.402678	-1.948201
N	-0.077206	-2.496953	-2.327079
N	0.157224	0.881581	-2.415117
H	1.15954	0.860899	-2.261664
H	-0.168728	1.810352	-2.18373
F	-2.745851	0.0	0.0
