16

C	0.0	0.0	0.0
C	-0.536755	0.017816	-1.425026
F	1.355731	0.0	0.0
H	-1.612368	0.243988	-1.260794
N	-0.295571	1.410874	0.636806
O	0.096121	1.517048	1.801913
O	-0.871854	2.286918	0.008491
N	-0.572649	-1.011851	0.754156
H	-0.313873	-0.88354	1.725512
H	-1.612577	-0.822586	0.610987
C	-0.434161	-1.329927	-1.997515
N	-0.316165	-2.35337	-2.562827
N	0.175334	0.997481	-2.242385
H	0.885053	0.545138	-2.807558
H	-0.482216	1.462229	-2.851748
F	-2.807084	0.0	0.0
