16

C	0.0	0.0	0.0
C	-0.23688	-0.063734	-1.562115
F	1.371545	0.0	0.0
H	0.380619	-0.938806	-1.810997
N	-0.393729	1.359555	0.567187
O	-0.963481	2.151868	-0.174207
O	-0.063985	1.566344	1.730843
N	-0.615675	-0.978397	0.779806
H	-1.64826	-0.742939	0.654712
H	-0.442876	-1.882303	0.351672
C	0.459455	1.06411	-2.222841
N	1.035769	1.90121	-2.811275
N	-1.557709	-0.238152	-2.112582
H	-1.708873	-1.23136	-2.24018
H	-2.25053	0.046462	-1.37926
F	-2.923839	0.0	0.0
