16

C	0.0	0.0	0.0
C	-0.507921	0.050373	-1.467801
F	1.361521	0.0	0.0
H	0.409908	0.139369	-2.061374
N	-0.201763	1.43671	0.657642
O	-0.610283	1.481281	1.812284
O	0.193834	2.400761	0.006914
N	-0.540183	-0.998536	0.772482
H	-1.576388	-0.814764	0.669348
H	-0.261151	-0.853013	1.736125
C	-1.332211	1.225669	-1.826826
N	-1.941833	2.079194	-2.3584
N	-1.192542	-1.189703	-1.825657
H	-2.066309	-1.095561	-1.290563
H	-1.43126	-1.111122	-2.809612
F	-2.746523	0.0	0.0
