16

C	0.0	0.0	0.0
C	-0.468557	-0.08686	-1.493389
F	1.358552	0.0	0.0
H	0.457276	-0.148767	-2.07729
N	-0.298133	1.404008	0.570446
O	-0.888273	1.516952	1.631809
O	0.200649	2.323263	-0.078052
N	-0.505913	-0.950482	0.892905
H	-0.419495	-1.843305	0.415156
H	-1.526141	-0.716353	0.877729
C	-1.195188	1.087945	-2.010769
N	-1.727775	1.945969	-2.612542
N	-1.235526	-1.317692	-1.662903
H	-1.45838	-1.411084	-2.648277
H	-2.104103	-1.077399	-1.142972
F	-2.739246	0.0	0.0
