13
Coordinates from ORCA-job run
  C   -0.86589283904651      0.26799129632497     -0.35452095940100
  C   0.52181707725509      0.67349399884041      0.10543489059744
  Cl  -1.95644426059345      1.75771567130809     -0.22014938224631
  H   0.46584060915824      0.96271651315530      1.16092198737962
  H   -0.87383465226911      0.04650783070061     -1.42252418964317
  H   0.82031021103087      1.56801048277327     -0.44598809488421
  N   -1.35753165552970     -0.85172263114909      0.36022786711720
  H   -2.26570957383433     -1.14427733477723      0.02512550488582
  H   -1.42396600312235     -0.65035242637186      1.35047759590424
  C   1.53852454390997     -0.44548671729797     -0.09710177693495
  H   1.27103196413920     -1.32962070978427      0.48059830129122
  H   1.59099790491030     -0.73752337611542     -1.14936161179647
  H   2.53485667399177     -0.11645259760681      0.20685986773057
