13
Coordinates from ORCA-job run
  C   -0.80580974575724      0.33861513327093      0.04357043764171
  C   0.44941527735645     -0.51160494474767      0.09417725343214
  Cl  -0.76077099610650      1.59244180641335      1.33237547430244
  H   0.32392751137528     -1.31296102421262     -0.64521450366512
  H   -0.82728906842479      0.91800546736307     -0.88862825828918
  H   0.48825626886469     -0.98354829794662      1.07929330298914
  N   -1.97343696635195     -0.48032416329162      0.27113869145608
  H   -2.81788573332922      0.06987433485407      0.17243542875907
  H   -1.99566279890396     -1.22785028244373     -0.41271794108010
  C   1.73188238500907      0.25456530644542     -0.20310697630271
  H   2.58949962868359     -0.42118291762329     -0.20753614557605
  H   1.91386067777041      1.02458519897185      0.54714592635135
  H   1.68401355981417      0.73938438294685     -1.18193269001876
