13
Coordinates from ORCA-job run
  C   -0.80057646105201      0.23648099432398      0.24911144499188
  C   0.43612983464066     -0.25112160456902     -0.48175977522046
  Cl  -0.77217478064990     -0.45044375477099      1.96815598677502
  H   0.33320410448265      0.10253920505111     -1.51235442200516
  H   -0.75939445769736      1.31453993434268      0.41017712442259
  H   0.41380504240556     -1.34609699783625     -0.50793890821757
  N   -1.98570529644332     -0.08873085355766     -0.45777446460603
  H   -2.06705075803461     -1.08940693084351     -0.58852483107001
  H   -2.81131568555486      0.24295750611884      0.02350560878823
  C   1.74957151448221      0.23708193709866      0.11443846329486
  H   1.77612103462766      1.32929558791768      0.15620389572388
  H   1.89546332138143     -0.14398748048297      1.12531300271016
  H   2.59192258741189     -0.09210754279256     -0.49755312558739
