13
Coordinates from ORCA-job run
  C   -0.98467724563555      0.50269898796449     -0.18426837551426
  C   0.42229089359834      0.24440793032727     -0.72302851791812
  Cl  -0.93728579210524      1.92340031905270      0.91966865337555
  H   0.78105511177844      1.15728276497557     -1.20757212689113
  H   -1.63439475265666      0.80246125100969     -1.00930901370138
  H   0.32200394890300     -0.51449707959490     -1.50947557742791
  N   -1.63413090717997     -0.58250297435787      0.50929567553066
  H   -1.06657437650305     -0.90667627009787      1.28193129290862
  H   -1.78959475864007     -1.35235080022607     -0.13091467774582
  C   1.43086814046714     -0.22632413494354      0.31757066064908
  H   1.53843746440722      0.50210801832891      1.12241801317594
  H   2.41132555860889     -0.36572939104431     -0.14189267405964
  H   1.14167671495749     -1.18427862139408      0.75557666761840
