18
Coordinates from ORCA-job run
  C   -0.70459494263110      0.10587758941068      0.38905563441361
  C   0.67628987591455      0.45347069524447     -0.17052584443498
  F   -0.78207417608416      0.75138691127937      1.65461942091123
  H   0.71674391695019      1.54801589683506     -0.20660542423319
  C   -1.83772215246382      0.65985404974293     -0.44404683719366
  H   -1.71214918785074      1.73680337809375     -0.56214731369711
  H   -2.78625411779441      0.47985370022447      0.06922337777024
  H   -1.84932256793390      0.19637395526422     -1.42758042055246
  N   -0.83322448173764     -1.30637839848229      0.54370088210257
  H   -0.23134777375048     -1.63427189670801      1.28896784329172
  H   -1.78735234126486     -1.55244442566857      0.77690054843024
  N   0.73611497312885     -0.03894515866451     -1.54383186532771
  H   0.64729212066946     -1.04931728151944     -1.52104066772236
  H   1.63645806682547      0.18727167974016     -1.94985872902152
  C   1.80670435368516     -0.04194891330735      0.73269039546131
  H   1.67326045954656      0.29273840667160      1.76351524208476
  H   1.86918921162717     -1.13382208957079      0.71325735670784
  H   2.76398876316371      0.34348190141426      0.37170640100946
