18
Coordinates from ORCA-job run
  C   -0.70478637106498      0.11072719888229      0.40674934951706
  C   0.70613144503787      0.37565172430147     -0.13783776476681
  F   -0.80654993877582      0.96660190640859      1.55076953000818
  H   0.81751706872962      1.46965211264437     -0.09158076467880
  C   -1.78874069452066      0.55635043352894     -0.54862773492894
  H   -2.76063207658726      0.49960547129705     -0.05237361473061
  H   -1.79446065484088     -0.08747658016559     -1.42715916141728
  H   -1.62617375799519      1.59461007729631     -0.84580078978710
  N   -0.90232868631026     -1.24046362748304      0.78471414275660
  H   -0.28222327508172     -1.49952672056805      1.54062451197892
  H   -1.85677641662669     -1.38455168152660      1.09016535934675
  N   0.82322439210338     -0.14584685703104     -1.49881059539970
  H   0.43866607110509      0.51633016140374     -2.16162664434436
  H   1.80174231433132     -0.26380680281192     -1.73211643282484
  C   1.77760602367240     -0.25106319725711      0.73983241434974
  H   2.76705391255614      0.10891229133238      0.44548337100817
  H   1.76499820695749     -1.33753965370027      0.62547848111622
  H   1.62573243731013      0.01183374344849      1.78811634279678
