18
Coordinates from ORCA-job run
  C   -0.73977773011465     -0.26856613525693      0.28043298070970
  C   0.63196797849586     -0.09495577180902     -0.38936751641530
  F   -0.43983370833542     -0.69637273435412      1.60048581372085
  H   0.42836724045481      0.22541292025305     -1.41877294620469
  C   -1.53317816259913      1.01304131726985      0.41608067585061
  H   -1.65219066202386      1.50445014342241     -0.55299079999894
  H   -1.04158852690439      1.69892312383988      1.10435493996031
  H   -2.51857989429308      0.77372797114846      0.82079126080284
  N   -1.52086659652229     -1.28687058578994     -0.33506671960197
  H   -2.23765425786571     -0.91468920893878     -0.93895622637693
  H   -0.92044309074646     -1.93721362455447     -0.82608784434294
  N   1.23157873863577     -1.42882086083779     -0.47089055172246
  H   1.44931040106318     -1.74221628134983      0.46873259771370
  H   2.09915967251127     -1.38830456966868     -0.99164291302344
  C   1.51599910140673      0.94259328192007      0.29765764840681
  H   1.09449477071468      1.94914777914606      0.24157462732600
  H   1.65262319995858      0.68160499427358      1.34908346800993
  H   2.49861152616412      0.97010824128621     -0.18141849481408
