18
Coordinates from ORCA-job run
  C   -0.73418923233048     -0.25364498643335      0.19496882227700
  C   0.60544222682434      0.00778412409415     -0.49912103132752
  F   -0.39857711179410     -0.97920449998793      1.39134127101964
  H   0.36533530703985      0.48987235211337     -1.45267185500444
  C   -1.46346867054894      0.98636495802737      0.66066985865588
  H   -2.43912267259002      0.70369217222123      1.06322835694518
  H   -0.90761453943612      1.49263984862882      1.44889867139201
  H   -1.62036816787721      1.66824890311275     -0.17672848492658
  N   -1.54870415186736     -1.03427270399936     -0.65688066262944
  H   -1.00338294533935     -1.81081499397706     -1.01244954892936
  H   -2.36867307065041     -1.36964227510329     -0.16806176774270
  N   1.18360155201535     -1.30241978315624     -0.81201218312185
  H   1.50802492763645     -1.72620721411954      0.05009528679362
  H   1.98364909475353     -1.18862574754079     -1.42202969136707
  C   1.52760011958439      0.91157395872262      0.31481834201717
  H   2.50055228916017      0.98510461277963     -0.17793598098885
  H   1.67826894884066      0.49493824118660      1.31342486107523
  H   1.13162609657926      1.92461303343102      0.41644573586207
