18
Coordinates from ORCA-job run
  C   -0.73975191972820      0.17321586066923      0.46686037269094
  C   0.66426560195339      0.36210813762260     -0.13246782326479
  F   -0.75358500505494      0.91251113518583      1.65281099814968
  H   0.80700931491016      1.44677909039419     -0.25916796389737
  C   -1.82324234914299      0.72911572630249     -0.43196327829917
  H   -1.59492593982661      1.75757022653195     -0.72316033648909
  H   -1.93352920315603      0.11306731894088     -1.32616887223131
  H   -2.76474946103549      0.70956268703803      0.11666511013107
  N   -1.06476494744365     -1.18550448848922      0.83087186012320
  H   -0.47610467377473     -1.46643433154620      1.60711802376349
  H   -0.83636610019995     -1.77687131595983      0.03818264212027
  N   0.70624694005598     -0.37156580658122     -1.40167787222620
  H   1.66933557180969     -0.54421440125953     -1.66441724431387
  H   0.29372370193127      0.18323368976654     -2.14213780152503
  C   1.75199531770751     -0.16186110575899      0.79019073748616
  H   1.71654735491549     -1.25252721418664      0.84191166957752
  H   1.63918492250513      0.24859594526169      1.79389718758638
  H   2.73871087357397      0.12421884606822      0.41565259061815
