18
Coordinates from ORCA-job run
  C   -0.69576768563350      0.24951547652197      0.38629031552701
  C   0.80763755879381      0.47299448164189      0.15873436810421
  F   -1.26826720597969      1.56245471302546      0.37465092727427
  H   1.15585438590385      1.01518704297740      1.04942119554255
  C   -1.40456392170517     -0.51347907270024     -0.70945598946979
  H   -1.07107617827040     -1.55031489626457     -0.73948713629492
  H   -1.22846244211928     -0.04233085901011     -1.67674296043751
  H   -2.48126807954402     -0.49548701973462     -0.52402231031569
  N   -0.91024352682158     -0.36658933072501      1.64774194772673
  H   -0.50649556498547      0.19637118410095      2.38724062253772
  H   -1.90030968394636     -0.47577448109110      1.83096809247663
  N   1.12355636348041      1.31653463207660     -0.98541276659636
  H   0.52245898490141      2.13131915723248     -0.98211425828591
  H   0.96090060266975      0.81108150359748     -1.84837446904635
  C   1.57589220927709     -0.83470502457068      0.05385194309814
  H   1.35710958647461     -1.48926374409437      0.89685786420644
  H   2.64594124870183     -0.62312840418007      0.02418115823194
  H   1.31610334880273     -1.36338535880346     -0.86832854427913
