18
Coordinates from ORCA-job run
  C   -0.70847576879476     -0.19972516363605      0.29498588095779
  C   0.63850257718145      0.05458302630394     -0.40195897100754
  F   -0.43193073918670     -0.54803621456583      1.64639705858334
  H   0.41222856677037      0.69391270999949     -1.26828062692789
  C   -1.58882565495333      1.03126119658569      0.35263674286770
  H   -1.88822975762906      1.33020322558836     -0.65237087266619
  H   -1.07102819108639      1.85853172459833      0.83871187272448
  H   -2.48474531740813      0.80918328693503      0.93747272353879
  N   -1.37822879660135     -1.26745856460533     -0.36014236812789
  H   -2.27157110932791     -1.44492016986331      0.08289122767274
  H   -0.79764509869065     -2.09506449743967     -0.28044881900924
  N   1.21652052931343     -1.22768408711842     -0.81691999803870
  H   0.88231472755717     -1.47174288266972     -1.74080661245231
  H   2.22468912648700     -1.15555275603241     -0.86341398359462
  C   1.62280705309163      0.77589282969437      0.50616119366001
  H   2.50786568997163      1.07485793762204     -0.06241979866486
  H   1.92727818328048      0.11018789179148      1.31424558159812
  H   1.19047398002514      1.67357050681200      0.94925976888630
