18
Coordinates from ORCA-job run
  C   -0.76211637805821      0.36870691283740      0.50784480428468
  C   0.73361962447534      0.44950561547760      0.15134802318782
  F   -1.11858455474442      1.66758631794847      0.87415436191830
  H   1.19135722883160      0.96127209656188      1.00773747765564
  C   -1.64231788922440     -0.02470698792581     -0.65784735324861
  H   -1.40920848152457     -1.02733221974284     -1.02585731120160
  H   -2.68103062472105     -0.00502586111483     -0.32610729534484
  H   -1.51104157600646      0.69729813301435     -1.46233684901795
  N   -1.05913465104797     -0.45680773884130      1.65019384136745
  H   -0.37216453260100     -0.32776588333528      2.38372733689427
  H   -1.09820181095718     -1.43505558952592      1.40062586111262
  N   0.91769712224457      1.30708608298358     -1.02106515038438
  H   1.78123377242084      1.82766487278841     -0.94387829197068
  H   0.98044197270980      0.74066848474371     -1.85913435796033
  C   1.38122483785116     -0.92522505325470     -0.01043469867353
  H   0.93173265727662     -1.46748342015976     -0.84850024772483
  H   1.28904137342512     -1.54384355215548      0.88397064216815
  H   2.44545190965020     -0.80654221029950     -0.22744079306216
