16

C	0.0	0.0	0.0
C	-0.616198	0.048186	-1.377438
Br	1.929936	0.0	0.0
H	-1.696761	0.236694	-1.248626
H	-0.49329	-0.919204	-1.864103
N	-0.412616	1.233526	0.82066
O	-0.072124	1.230708	1.998972
O	-1.052869	2.108091	0.255602
C	-0.515868	-1.219885	0.737423
H	-0.205901	-2.123806	0.209508
H	-1.609839	-1.156128	0.760881
H	-0.112364	-1.233421	1.748137
N	-0.075798	1.042669	-2.346479
O	-0.364989	0.827132	-3.523622
O	0.581135	1.998129	-1.944564
Cl	-3.73604	0.0	0.0
