16

C	0.0	0.0	0.0
C	-0.567033	0.218533	-1.393663
Br	1.943946	0.0	0.0
H	-1.659434	0.098367	-1.308698
H	-0.297882	1.196812	-1.773949
N	-0.365604	1.251965	0.822883
O	-0.465654	1.104945	2.032212
O	-0.463555	2.31464	0.220875
C	-0.504143	-1.230609	0.71131
H	-0.206174	-2.114844	0.151211
H	-0.096781	-1.270751	1.719485
H	-1.595744	-1.164225	0.742829
N	-0.041674	-0.768453	-2.37102
O	-0.318092	-1.955943	-2.208075
O	0.627195	-0.325699	-3.306787
Cl	-3.668637	0.0	0.0
