16

C	0.0	0.0	0.0
C	-0.627774	0.133081	-1.366943
Br	1.929998	0.0	0.0
H	-0.590251	-0.822065	-1.887096
H	-1.684942	0.413679	-1.219203
N	-0.390935	1.197672	0.896751
O	-1.171978	2.018867	0.442344
O	0.089799	1.197458	2.025542
C	-0.541281	-1.236552	0.68809
H	-0.135979	-1.303164	1.697178
H	-0.257608	-2.126713	0.123547
H	-1.63458	-1.147487	0.715118
N	0.016463	1.115493	-2.27895
O	0.475475	2.150838	-1.807478
O	0.018004	0.82051	-3.474726
Cl	-3.781861	0.0	0.0
