16

C	0.0	0.0	0.0
C	-0.570152	0.239348	-1.388472
Br	1.943864	0.0	0.0
H	-1.662427	0.112895	-1.30583
H	-0.305843	1.225388	-1.75355
N	-0.364317	1.239744	0.843679
O	-0.452332	2.312897	0.259006
O	-0.475262	1.07083	2.04899
C	-0.502165	-1.241729	0.69339
H	-1.594056	-1.176871	0.730377
H	-0.090785	-1.299294	1.699197
H	-0.204927	-2.117171	0.119228
N	-0.039944	-0.729483	-2.381866
O	-0.312951	-1.91982	-2.23947
O	0.632436	-0.270721	-3.307985
Cl	-3.666759	0.0	0.0
