15

C	-0.465312	-0.029928	-1.477558
C	0.0	0.0	0.0
Br	0.304881	1.435238	-2.482861
H	1.09514	0.0	0.0
N	-0.014389	-1.326907	-2.171856
O	-0.573653	-1.58074	-3.232906
O	0.86326	-1.978046	-1.627055
C	-1.918693	0.014623	-1.579121
N	-3.095043	0.031127	-1.577103
N	-0.463462	-1.111155	0.793218
H	-1.443792	-1.322826	0.658355
H	0.119177	-1.9172	0.620331
C	-0.482858	1.258564	0.581677
N	-0.915327	2.238576	1.063901
Br	3.40994	0.0	0.0
