15

C	-0.55089	0.017018	-1.432441
C	0.0	0.0	0.0
Br	0.191498	1.482098	-2.45953
H	1.100354	0.0	0.0
N	-0.152745	-1.280794	-2.148296
O	-0.897662	-1.635395	-3.055951
O	0.878794	-1.815587	-1.785407
C	-2.006088	0.098758	-1.43984
N	-3.176189	0.200611	-1.380426
N	-0.486548	-1.220579	0.631837
H	-1.166996	-1.029025	1.354229
H	0.306017	-1.71043	1.028972
C	-0.446835	1.213596	0.687527
N	-0.8438	2.172059	1.240097
Br	3.394424	0.0	0.0
