14
Coordinates from ORCA-job run
  C   0.61865216503920      0.19327370245218      0.24932830481358
  C   -0.67628548227595      0.18791603195845     -0.18546043788579
  C   1.65534243517194     -0.89502810965682      0.11706904801361
  H   2.49190191103774     -0.66752087723383      0.77888021919424
  H   1.25502111703685     -1.87251282481192      0.38671864549529
  H   2.02863008264888     -0.96203524915497     -0.90645123221393
  C   1.00156969265839      1.40587364070869      0.89132682157262
  N   1.26885660268659      2.42294344139650      1.42564775839512
  N   -1.24561747564968     -1.01107451912746     -0.82570230115810
  O   -2.46935853645590     -1.13858755717412     -0.75317789464254
  O   -0.47864288921817     -1.80069747581473     -1.37004270730852
  N   -1.57343948287599      1.21247700370621     -0.13982127926166
  H   -2.54278974531495      0.93312713423364     -0.12008797259947
  H   -1.33084039448893      1.99384565851818      0.45077302758552
