14
Coordinates from ORCA-job run
  C   0.61861125697952      0.18540228442153      0.25449389994987
  C   -0.66855963779827      0.20126414901307     -0.20168568700771
  C   1.61754547518969     -0.94411379595177      0.18709119569021
  H   2.43799888835093     -0.73143770820923      0.87343606224395
  H   2.02415870254888     -1.05141028336460     -0.82035997727206
  H   1.16979974833305     -1.89770572085146      0.46549802799018
  C   1.04030203708943      1.41392235920985      0.83897975482299
  N   1.34854339830334      2.44372995289759      1.32434328269080
  N   -1.26635332844207     -1.00684612917487     -0.79849670686325
  O   -0.51616875396582     -1.83406225571181     -1.30972983411241
  O   -2.49370254845096     -1.09596699309753     -0.73597306538172
  N   -1.53317612850699      1.25531285969327     -0.22075160292218
  H   -2.50968716300734      1.00466069418387     -0.19001400354441
  H   -1.27031194662340      2.05625058694210      0.33416865371573
