14
Coordinates from ORCA-job run
  C   0.65758359135552     -0.13130697871180      0.18895881759564
  C   -0.63851085652022     -0.25006948201965     -0.22887256520934
  C   1.35179264724117      1.09542873844600      0.72266455920921
  H   2.43121136770768      0.95466426183964      0.65954837875402
  H   1.08783325519061      1.27502281012525      1.76784532137270
  H   1.07785126427732      1.98814321525873      0.16246184634559
  C   1.39031992355155     -1.35184516477765      0.13496200075237
  N   1.95097557643607     -2.38632802055357      0.05962634428650
  N   -1.52660695253858      0.92391912904666     -0.26937967381279
  O   -2.45053477381263      0.87748703084845     -1.08272784077678
  O   -1.29649636867127      1.85573297931494      0.49694415221820
  N   -1.28838952780662     -1.38923411196596     -0.60261622642985
  H   -0.70952883227590     -2.20082783428222     -0.74876902544157
  H   -2.04150031413470     -1.25978657256884     -1.25964608886390
