14
Coordinates from ORCA-job run
  C   0.61418468119842      0.14567393284471      0.29111228731084
  C   -0.69341597096513      0.18999204916874     -0.10033025460412
  C   1.59894469156405     -0.98482491574999      0.12562758035371
  H   1.54710858969960     -1.42537730615443     -0.87000752593402
  H   1.40823973673622     -1.78216045465987      0.84626653332798
  H   2.60767166454926     -0.60297115089007      0.28642209156917
  C   1.05854493738938      1.33006415353129      0.94678918093231
  N   1.38820791211539      2.33053144431871      1.47718726944124
  N   -1.29647938358447     -0.94503041800844     -0.82197797735258
  O   -2.25995013845270     -0.68262337646028     -1.54385627249106
  O   -0.81127293256029     -2.06127767688795     -0.65824715547177
  N   -1.60137295440476      1.18120280991585      0.13390513285348
  H   -1.21930568656522      2.06444539327183      0.43864612272871
  H   -2.34110514671975      1.24135551575990     -0.54953701266390
