14
Coordinates from ORCA-job run
  C   0.62158959050674      0.19653848522937      0.24327994669153
  C   -0.68367766412621      0.18583425005959     -0.15839294159933
  C   1.66780447335823     -0.87080318953342      0.04029344871116
  H   1.26851005026838     -1.86866420825265      0.21929421978071
  H   2.49175379986254     -0.69668656979241      0.73339395450125
  H   2.05560720450867     -0.85237883937506     -0.97996513995098
  C   1.00409319657138      1.38990029402471      0.92111887083835
  N   1.27423237892629      2.39087510590367      1.48334652700605
  N   -1.24299356012784     -0.99161029074793     -0.84579637433092
  O   -0.47592766124492     -1.71102481859716     -1.48023535962320
  O   -2.45777370930138     -1.16364987170049     -0.73398593400337
  N   -1.60178624253457      1.18918113735829     -0.04287563480396
  H   -2.55883441494733      0.87272694202341      0.00240476873764
  H   -1.36059744171999      1.92876157340008      0.60011964804507
