14
Coordinates from ORCA-job run
  C   0.60828386402895      0.17598690785882      0.26968407689935
  C   -0.71947454110986      0.10201434231293     -0.03671167252930
  C   1.70173553539921     -0.83685448084305      0.03639829846174
  H   2.19255938279805     -0.65462695811266     -0.92417770193386
  H   2.45775354612713     -0.73377666010246      0.81676044216560
  H   1.32283287522035     -1.85320940118194      0.05133267683485
  C   1.00010882813286      1.43628435589894      0.81062541467374
  N   1.28837280557912      2.49140738894530      1.25153637626007
  N   -1.29743635012355     -1.08214006107005     -0.70574858068131
  O   -2.23542016282810     -0.85780473000196     -1.47173463210134
  O   -0.82860187902594     -2.18889391460246     -0.46267091716305
  N   -1.68747186271917      1.02564779868043      0.24559386595733
  H   -1.35252491453164      1.93395392819010      0.53221186290306
  H   -2.45071712694738      1.04301148402805     -0.41409950974689
