14
Coordinates from ORCA-job run
  C   0.61896751840715      0.18652788857329      0.25335206163387
  C   -0.67313214450274      0.19854610193290     -0.18792858677454
  C   1.63548934077869     -0.92131797146142      0.13192876704051
  H   1.19946336928864     -1.89677363070039      0.34723956898553
  H   2.44697559210303     -0.73769850209130      0.83680943090805
  H   2.05182517618397     -0.96589218470191     -0.87628303215836
  C   1.02204317372097      1.39827087094596      0.88555562632158
  N   1.30846300508028      2.41743029927659      1.40550048118866
  N   -1.25438585091134     -0.99456070978515     -0.82896621836448
  O   -2.47698235917208     -1.11824953929192     -0.74385881447521
  O   -0.49579392840954     -1.77432552882535     -1.39933739498189
  N   -1.55726142585330      1.23802922325510     -0.15538587618390
  H   -2.52563040384323      0.95923441007132     -0.10572456996972
  H   -1.29904106287050      2.01177927280226      0.43909855682990
