14
Coordinates from ORCA-job run
  C   0.55491341592493     -0.07142852717449      0.44317532620738
  C   -0.66135782248540     -0.12443362604457     -0.16470532834506
  C   1.73843600803520      0.39145787300495     -0.37029928116605
  H   1.69377049054431      1.46988104761192     -0.56358279186604
  H   1.76662068002428     -0.12913142645458     -1.33239473516959
  H   2.66923034870996      0.18911826685435      0.15811314789944
  C   0.77274870188237     -0.36038482444944      1.81646063865060
  N   1.09451331158864     -0.54769770666413      2.93505514515227
  N   -1.87060878792196     -0.60694890096790      0.53758350755950
  O   -2.94987518922796     -0.35408384685610     -0.00246963180538
  O   -1.72365998039827     -1.21964448423937      1.58818596124447
  N   -0.90119369321681      0.18493728776075     -1.47370799142076
  H   -0.30343047207902      0.88801284725433     -1.87821887863606
  H   -1.88110701138029      0.28934602036427     -1.69319508830473
