14
Coordinates from ORCA-job run
  C   0.56476948666700     -0.10628758714742      0.42240393391977
  C   -0.65484878302565     -0.13875180491108     -0.17996197410914
  C   1.70316082257972      0.56363142732757     -0.30722485461693
  H   1.58553950589662      1.65366982456888     -0.31799003776105
  H   1.75079499888665      0.21329887552118     -1.34282152833417
  H   2.65262769197175      0.33857606592329      0.17672935149734
  C   0.82376076476205     -0.60560196888629      1.72650627612520
  N   1.17651675014271     -0.95725285669733      2.79507307409815
  N   -1.81859829808519     -0.81140411468852      0.43753915889169
  O   -2.92061389071848     -0.54461095288996     -0.04696896908068
  O   -1.61488108306253     -1.57999151122938      1.36951900733384
  N   -0.93525041842010      0.36813079037352     -1.41724120728477
  H   -1.92304518808223      0.44075787448613     -1.61284492899815
  H   -0.39093235951233      1.16683593824941     -1.70171730168110
