14
Coordinates from ORCA-job run
  C   0.52607013940641      0.07603783524629      0.47549308460942
  C   -0.67210896794098     -0.07566327283148     -0.15115541794864
  C   1.71707734064672      0.49066964828307     -0.35303642165253
  H   1.45860429836516      1.33928483029847     -0.99370376256650
  H   2.54606449716690      0.78469553430119      0.28948105710932
  H   2.06611897120329     -0.32929479224126     -0.99170451837810
  C   0.74584858030770     -0.19440518934627      1.85234784173499
  N   1.07671872174008     -0.39943332943989      2.96516751363650
  N   -1.90400275499115     -0.43487539287929      0.58493321477337
  O   -2.85557573382058     -0.81496978682444     -0.10097780146538
  O   -1.90057247102189     -0.32782392782337      1.80529900634709
  N   -0.89789624157550      0.14188903628009     -1.48104696882773
  H   -1.78445754478226     -0.21554006142732     -1.80606088668466
  H   -0.12088883470390     -0.04057113159578     -2.09603594068715
