14
Coordinates from ORCA-job run
  C   0.53935662228060     -0.04992839213045      0.46581056760556
  C   -0.67724296341601     -0.00161046682660     -0.14140378528142
  C   1.73928301444092      0.45035279875862     -0.30023175189782
  H   2.02114136960196     -0.24347165140387     -1.10110766839848
  H   2.59815841675392      0.55761193189973      0.36102442300263
  H   1.52463892580336      1.42456531857882     -0.74979859785235
  C   0.76574509025332     -0.61549508015197      1.74866915228569
  N   1.09676520629725     -1.07509006807700      2.78276132256240
  N   -1.91649706078972     -0.42449199743675      0.54720512520095
  O   -1.88513465563402     -0.55690199077203      1.76462227103692
  O   -2.90238738272514     -0.60457581870749     -0.17097492741425
  N   -0.91320620034513      0.49146337017693     -1.39384917933907
  H   -1.82772042681024      0.26035778009658     -1.75451615418588
  H   -0.16189995571109      0.38721426599549     -2.05721079732490
