14
Coordinates from ORCA-job run
  C   0.62418305142367      0.23938098624944      0.18960749571247
  C   -0.72104705415456      0.08708092350056      0.01044008976256
  C   1.72290551073802     -0.74687161500267     -0.11978710139319
  H   2.67860416640670     -0.22164528388840     -0.12970361275363
  H   1.76643303265573     -1.53710204229045      0.63209219785517
  H   1.57728088561174     -1.22557030137139     -1.08803601241924
  C   0.99212101015447      1.49389956976089      0.75565374830930
  N   1.25455130700536      2.54724456009791      1.21691253119756
  N   -1.25977076642660     -1.14211301675519     -0.59827776646928
  O   -0.60178687196332     -2.17460162950402     -0.50105975557419
  O   -2.34765341683011     -1.03776008718922     -1.16688718210125
  N   -1.71404896388630      0.94900305591408      0.37564087324796
  H   -1.41917270514764      1.88534545047481      0.61005321022149
  H   -2.55059918558718      0.88570943000365     -0.18464871559574
