14
Coordinates from ORCA-job run
  C   0.52848442433933     -0.01612050260112      0.48248699078527
  C   -0.67331666545514      0.03334186058323     -0.15634222428774
  C   1.77840143678942      0.21798049438964     -0.33044001277279
  H   2.03224411894575     -0.66303016652816     -0.93058196937560
  H   1.64129307483688      1.07042676379306     -1.00237799126614
  H   2.62437275864355      0.42471250585642      0.32525500392830
  C   0.69629992653639     -0.37414290513972      1.84671394018342
  N   0.99061532905682     -0.67508620358550      2.94843679397881
  N   -1.95706798817292     -0.12109971536678      0.56605981914344
  O   -1.93251024059237     -0.16003451703217      1.79016718487922
  O   -2.97070213071594     -0.19330802158713     -0.13233719218553
  N   -0.84507251481734      0.29506143353464     -1.48409338224047
  H   -0.12182602017648     -0.01528261309808     -2.11126308273958
  H   -1.79121550921795      0.17558158678167     -1.81168387803060
