14
Coordinates from ORCA-job run
  C   0.54233618052713     -0.04385178000535      0.46125298298875
  C   -0.67919701006484     -0.01289547258477     -0.13739920974103
  C   1.72926075506573      0.47431051556474     -0.31257170929612
  H   2.58801733101169      0.60512335908286      0.34457586891513
  H   1.49269254526552      1.44057425685414     -0.76883127898431
  H   2.02376952163186     -0.21951874104161     -1.10874971775713
  C   0.78677844017562     -0.59869718796266      1.74571353533438
  N   1.13853234229392     -1.04026482197774      2.78068629922763
  N   -1.90711284869924     -0.45595981272621      0.55902764590671
  O   -1.86259519961068     -0.59773427530789      1.77520959303776
  O   -2.89729541121130     -0.64363550507197     -0.15129099933241
  N   -0.93005381134861      0.47642309537653     -1.38835670736984
  H   -0.18252782933927      0.38174792590983     -2.05725603580580
  H   -1.84360500569752      0.23337844389009     -1.74301026712373
