14
Coordinates from ORCA-job run
  C   0.54653803019770     -0.08736501667462      0.44958161872944
  C   -0.66388303653571     -0.10177210009078     -0.17169029551333
  C   1.75636665405630      0.32097073141140     -0.35441594441835
  H   1.77346346225111     -0.20797239093346     -1.31219233128782
  H   1.75836148800784      1.39859152270207     -0.55636710605888
  H   2.67211856650647      0.08458891890090      0.18589250663304
  C   0.73800294352901     -0.36635638407832      1.82903561573238
  N   1.04015351910335     -0.55202453908227      2.95336769061392
  N   -1.89806218052464     -0.53032848256952      0.52245480211459
  O   -1.78543325290247     -1.13779302700341      1.58028499368817
  O   -2.96114127067331     -0.24185117318270     -0.03148703501180
  N   -0.87792799101528      0.20310699747816     -1.48593333594714
  H   -1.85093240571279      0.33861575185091     -1.71859407933477
  H   -0.25062452628757      0.87958919127165     -1.89093709993945
