14
Coordinates from ORCA-job run
  C   0.62171503902925     -0.12530540140474      0.23841293642358
  C   -0.65007607017640     -0.24629550625094     -0.24828341351392
  C   1.48421861907046      1.10227923218052      0.40139052763668
  H   2.52423173920962      0.78865644553709      0.48734209943392
  H   1.38833930073741      1.78809713762972     -0.43525757500720
  H   1.21009304386000      1.65141560726952      1.30478762282567
  C   1.19349481590670     -1.34692708879002      0.70442816889842
  N   1.69473908938706     -2.34974746331749      1.07528369212306
  N   -1.40265555434755      0.93266570240821     -0.72153026449557
  O   -2.46844280949108      0.70640466431582     -1.29649773893782
  O   -0.94064413627344      2.04830459061425     -0.50091440986046
  N   -1.32208909040976     -1.41320127781191     -0.46785103611354
  H   -1.01660324644767     -2.21233934871146      0.06404089501496
  H   -2.31632074005459     -1.32400729366858     -0.60535150442775
