14
Coordinates from ORCA-job run
  C   0.48292866885791      0.18580096659741      0.46584170371921
  C   -0.66438067862570     -0.12054377689736     -0.19849415609560
  C   1.71956515215577      0.57802678748344     -0.30265324352791
  H   2.39395161939849     -0.27335573896243     -0.44128205602240
  H   1.45482563784369      0.99731756884278     -1.27438265381078
  H   2.27014858386515      1.33609158597401      0.25850191393123
  C   0.65388465379701      0.01822998172303      1.86616300428689
  N   0.97025136682904     -0.11925353152321      2.99366580060709
  N   -1.91787431962212     -0.40644083735288      0.53087997081917
  O   -2.81472241533897     -0.95281493081927     -0.11718858729396
  O   -1.99037691077235     -0.07424639157769      1.70816285441105
  N   -0.81683127056406     -0.14404124546615     -1.55881103187818
  H   -1.70819893999022     -0.51614562609766     -1.85405761430084
  H   -0.03217114783364     -0.50862481192403     -2.07634590484498
