14
Coordinates from ORCA-job run
  C   0.54772341626985     -0.04220729417879      0.45463694898713
  C   -0.67959553981155     -0.03457356151240     -0.13273039213767
  C   1.70783622128761      0.54888227948771     -0.30824712052788
  H   2.01364374776925     -0.09846400145241     -1.13856360292664
  H   1.43582296289834      1.52683434782112     -0.71708664283132
  H   2.56954224565532      0.67689815778704      0.34554967657227
  C   0.82488888912533     -0.63074408448335      1.71714787425272
  N   1.20323724175287     -1.09125487142729      2.73430250923586
  N   -1.88371446038429     -0.55018051591514      0.55536055178917
  O   -2.87441827063481     -0.74172204215387     -0.15321136999530
  O   -1.82077684264153     -0.74470188930858      1.76319070451789
  N   -0.96065524502321      0.49146560893857     -1.36147815906199
  H   -0.21497490186325      0.46047551206114     -2.03816041434760
  H   -1.86755946439992      0.23029235433623     -1.71971056352664
