14
Coordinates from ORCA-job run
  C   0.61281102122233      0.17582153770003      0.25216486739554
  C   -0.70123169895669      0.14730846420778     -0.12983400041982
  C   1.67165519410303     -0.88923299940096      0.12028224145261
  H   1.24406801623690     -1.88705241956057      0.05378607867449
  H   2.33691297157062     -0.83950779944088      0.98171667030000
  H   2.25330288984896     -0.72229422120296     -0.79198583572943
  C   0.99416890017656      1.39927905153034      0.87841335609391
  N   1.24418530508044      2.43469013591327      1.38533301687861
  N   -1.25832104314121     -1.02255174074991     -0.83571560722519
  O   -2.48046377555781     -1.16125741814920     -0.78627779749199
  O   -0.47765163075702     -1.75270170714629     -1.44367115374235
  N   -1.64455056959516      1.07612012496613      0.18579286840197
  H   -2.50584595032777      1.06522687402017     -0.33724065048975
  H   -1.29003962990317      1.97715211731306      0.46723594590140
