14
Coordinates from ORCA-job run
  C   0.55070612581220     -0.05851881050117      0.44894893434369
  C   -0.66085860491949     -0.12662830872586     -0.16637019294070
  C   1.74158595437022      0.38179503271874     -0.36700658011848
  H   1.77582568322678     -0.16185658096167     -1.31607110818259
  H   1.70064542235293      1.45555489068736     -0.58523303708413
  H   2.66736911098756      0.18887153205705      0.17310351617674
  C   0.76068268673798     -0.31882364086432      1.82925877457433
  N   1.07650011224570     -0.48278231391198      2.95325352149916
  N   -1.87512875126399     -0.59230026758314      0.53922799992492
  O   -1.73499820012398     -1.17753208748214      1.60629407568590
  O   -2.94993711670632     -0.35649617060557     -0.01691883412763
  N   -0.89155690007767      0.15188356215716     -1.48394863186167
  H   -1.86968074270691      0.25103191805513     -1.71331697891762
  H   -0.29115477993501      0.84580124496040     -1.90022145897192
