14
Coordinates from ORCA-job run
  C   0.54437806702086     -0.03819846304786      0.45883470330801
  C   -0.67934061014448     -0.02310736002004     -0.13571754341375
  C   1.72256610849358      0.49449284158253     -0.31925028931466
  H   2.58323115359027      0.62900434433930      0.33455448224080
  H   1.47567487251494      1.46104886854755     -0.76900815227157
  H   2.01784829385717     -0.19309075741126     -1.12036966880166
  C   0.79915141089129     -0.58291108725155      1.74547605176867
  N   1.15890291351620     -1.01321295353676      2.78248028459286
  N   -1.89903212442433     -0.48009966882098      0.56510547523929
  O   -2.88750087758002     -0.68608006678579     -0.14263296162035
  O   -1.85013004228678     -0.61728607669101      1.78150783290406
  N   -0.94116730637335      0.46357610680592     -1.38549223368342
  H   -1.85135515431383      0.20658837273299     -1.73882713144485
  H   -0.19322670476152      0.38127589955696     -2.05566084950341
