14
Coordinates from ORCA-job run
  C   0.50504231808847      0.12142466338329      0.48954879208783
  C   -0.66574534468648     -0.07244574715643     -0.17652621856062
  C   1.75500541232263      0.36083622090137     -0.32138552656647
  H   1.55966059594697      1.09044519576617     -1.11313939120336
  H   2.55383763145938      0.74440204073711      0.31242723472281
  H   2.11533020682424     -0.56435544451560     -0.78658350102697
  C   0.64425955709441      0.04816063110054      1.90112169080514
  N   0.91195167778025     -0.00527434256466      3.04798037661167
  N   -1.95360420077014     -0.25307997915309      0.53037740672802
  O   -1.99556326618230     -0.00051897497839      1.72815127100475
  O   -2.90153844756282     -0.64076713449554     -0.15591929537616
  N   -0.80697074614273     -0.05250624222765     -1.53575568588813
  H   -0.01811752206504     -0.38731884210945     -2.06601678754286
  H   -1.70354787210686     -0.38900204468769     -1.85528036579565
