14
Coordinates from ORCA-job run
  C   0.53995516662265      0.00444869684786      0.46662110578365
  C   -0.67441149713483     -0.06964424378583     -0.14336269223156
  C   1.69454759338367      0.58188677191349     -0.31422144430583
  H   2.02960439819236     -0.10582485416498     -1.09962311939311
  H   2.54341944756591      0.77514656875990      0.34047956372304
  H   1.40085433265296      1.52440801164719     -0.78641461921416
  C   0.80874997582432     -0.47172920509784      1.77765265138079
  N   1.18492208127590     -0.83301624095151      2.83495015744398
  N   -1.87682851534051     -0.57527033552094      0.55588837303299
  O   -1.82578663832101     -0.70746933908235      1.77279282255646
  O   -2.85273583711101     -0.82749224761371     -0.15445822426260
  N   -0.94353282723409      0.35730258836936     -1.41224049735677
  H   -0.18728470369519      0.29028498851992     -2.07399597673638
  H   -1.84047297668111      0.05596884015946     -1.76306810042050
