14
Coordinates from ORCA-job run
  C   0.55204451031197      0.05138380350972      0.45089709830695
  C   -0.61874590507402     -0.19380629507562     -0.19322542567167
  C   1.73494608909773      0.57858523132595     -0.33429278975011
  H   2.65633822102184      0.09826056962705      0.00449818188846
  H   1.53757632248186      0.33873331651198     -1.39162719888570
  H   1.87228754925003      1.65942266644492     -0.20532382971668
  C   0.76913151771343     -0.17247316723833      1.85019268323746
  N   1.07443345654551     -0.33310069083368      2.97615688483882
  N   -1.78482034740106     -0.81617661786248      0.48834925423195
  O   -1.78550605288708     -0.83917776008765      1.71735933572679
  O   -2.66454420363986     -1.26566976434526     -0.24480461784222
  N   -0.80387899285030      0.12948889345007     -1.54023556105808
  H   -1.60684740100312     -0.36725463483805     -1.89745814488519
  H   -0.93341476356693      1.13078444941138     -1.68148587042076
