14
Coordinates from ORCA-job run
  C   0.54386691457038     -0.02924306672057      0.46051214338203
  C   -0.67895256541850     -0.02827983119722     -0.13621670871329
  C   1.71936733350399      0.50524814864087     -0.32018090046518
  H   1.46707466345798      1.46645441212622     -0.77834032255924
  H   2.57832640966988      0.65053259187160      0.33368439987333
  H   2.02034910729041     -0.18689195714221     -1.11545472658354
  C   0.80078345875991     -0.56296669737258      1.75137448759471
  N   1.16185061546587     -0.98509892073940      2.79121882539038
  N   -1.89615306021083     -0.49003952338406      0.56610834461723
  O   -2.88170239412570     -0.70956569292566     -0.14172917688091
  O   -1.84842576088748     -0.61706042218084      1.78365820930060
  N   -0.94229559397375      0.44451458427301     -1.39076848432930
  H   -0.19270839249772      0.36414118237268     -2.05916484121982
  H   -1.85038073560443      0.17825519237817     -1.74270124940701
