14
Coordinates from ORCA-job run
  C   0.55430133899638     -0.06582969952884      0.44448560257775
  C   -0.66211009153203     -0.12332005890034     -0.16254717665257
  C   1.73879880774791      0.38544058427081     -0.37433858968351
  H   2.66874611270992      0.18755969430848      0.15710197277944
  H   1.69668432222980      1.46134058092410     -0.58117034597069
  H   1.76610652797946     -0.14693330457992     -1.33002904394609
  C   0.77389052497891     -0.34385261240066      1.81979462947955
  N   1.09615933122603     -0.52299412771415      2.93960588280891
  N   -1.87205679469228     -0.59878353676493      0.54397277823472
  O   -1.72582644814936     -1.19570232208473      1.60367255210211
  O   -2.95060062906775     -0.35508261008256     -0.00164801708311
  N   -0.90128437526213      0.17269293190702     -1.47470356889528
  H   -0.30285228826138      0.87097935489877     -1.88632188209129
  H   -1.88095633890349      0.27348512574694     -1.69687479365993
