14
Coordinates from ORCA-job run
  C   0.55402897795400     -0.06473950500381      0.44449177136686
  C   -0.65619240432632     -0.14128452943022     -0.17266551715812
  C   1.72609500734683      0.46201054964510     -0.34663938324233
  H   1.77680777723720     -0.02768183978381     -1.32392216459064
  H   1.64693538680093      1.54362305110119     -0.50781030938329
  H   2.65958776235100      0.27423785751770      0.18219117824673
  C   0.77546817507731     -0.38945746153098      1.80927011565806
  N   1.10029976985172     -0.60110407845169      2.92265597289427
  N   -1.85165176244716     -0.68648686718608      0.50679716595476
  O   -2.93601945853266     -0.45628707872379     -0.03325938231636
  O   -1.68926300397930     -1.32436641097391      1.54002654798797
  N   -0.89933331251396      0.19960394720703     -1.47327231561604
  H   -0.32471857458657      0.93578046905097     -1.85155445271002
  H   -1.88104434023302      0.27615189656230     -1.69630922709184
