14
Coordinates from ORCA-job run
  C   0.54717482503127     -0.05522776757763      0.45358461650919
  C   -0.66158893360961     -0.12031844722255     -0.16740772035105
  C   1.75019816027225      0.34329349921914     -0.36533501983663
  H   2.66949846706014      0.14286816191286      0.18341098940476
  H   1.77693078718510     -0.22128131162790     -1.30228109791086
  H   1.73377208742402      1.41223614725460     -0.60794941108955
  C   0.74328558231822     -0.27888227698597      1.84244975910111
  N   1.04936162810996     -0.41512775283304      2.97278234149611
  N   -1.88764303324845     -0.54837335280184      0.54204190815415
  O   -1.76381556610552     -1.10849784558202      1.62452792716678
  O   -2.95557698348261     -0.30912510625184     -0.02601705275959
  N   -0.87982426487600      0.12491970832512     -1.49381476340115
  H   -1.85544356639930      0.23337462862659     -1.73073545439808
  H   -0.26732918967947      0.79914171554447     -1.92425702208518
