18

C	0.0	0.0	0.0
C	-0.383554	-0.080061	-1.492419
Br	1.979501	0.0	0.0
H	0.165748	0.746685	-1.973382
C	-0.454161	1.319751	0.596136
H	-0.052922	1.439782	1.607029
H	-0.121531	2.165082	-0.014657
H	-1.549278	1.242411	0.608132
C	-0.468082	-1.190219	0.810997
H	-0.118633	-1.0991	1.843713
H	-0.107679	-2.124427	0.380818
H	-1.561748	-1.122702	0.758486
C	-1.801602	0.160088	-1.881421
N	-2.532168	0.371727	-2.78828
N	-0.009097	-1.382195	-2.066138
H	-0.370424	-1.412521	-3.012556
H	1.002734	-1.424145	-2.11409
F	-2.83479	0.0	0.0
