18

C	0.0	0.0	0.0
C	-0.316516	0.126722	-1.532816
Br	1.969425	0.0	0.0
H	0.453289	-0.456047	-2.05451
C	-0.572224	1.136386	0.817878
H	-0.201207	2.10973	0.493007
H	-1.662487	1.057227	0.68123
H	-0.329071	0.997842	1.875014
C	-0.51421	-1.332899	0.513357
H	-0.191798	-2.159683	-0.122722
H	-0.160356	-1.502324	1.534423
H	-1.607669	-1.251531	0.500395
C	-0.095821	1.5303	-1.967051
N	0.03929	2.619832	-2.390311
N	-1.613899	-0.402825	-1.893866
H	-1.87572	-0.040271	-2.803085
H	-2.362572	-0.168584	-1.174684
F	-3.26407	0.0	0.0
