18

C	0.0	0.0	0.0
C	-0.579123	-0.063917	-1.424643
Br	1.969905	0.0	0.0
H	-1.673809	-0.121936	-1.173453
C	-0.4859	1.267882	0.683346
H	-1.582633	1.189909	0.630628
H	-0.116709	2.168592	0.187108
H	-0.148832	1.287469	1.723005
C	-0.472073	-1.216667	0.782359
H	-0.105259	-1.17432	1.811794
H	-0.126118	-2.147363	0.325768
H	-1.568259	-1.141915	0.75336
C	-0.1641	-1.284207	-2.122464
N	0.159716	-2.260512	-2.691136
N	-0.34135	1.085223	-2.289704
H	-0.941517	1.837466	-1.976439
H	0.624257	1.385984	-2.196795
F	-2.972873	0.0	0.0
