14
Coordinates from ORCA-job run
  C   -0.04052260910873      0.30286138971687      0.40687678210573
  C   1.22166373543146     -0.30638773133895     -0.21348484901879
  Br  0.53720968078132      0.77749535563553      2.31283867347551
  H   2.02122669269286      0.43969207965876     -0.23953766763738
  H   1.57475121048664     -1.13534891504391      0.40348784826425
  N   -0.44607876678398      1.43064905113592     -0.33082266081878
  H   0.27059780032624      2.14204020269661     -0.39546743459156
  H   -1.30081193605516      1.83961478685424      0.02297780948799
  C   -1.17237588647134     -0.69610824193026      0.54146183018139
  H   -1.48864447636874     -1.00841919698150     -0.45719755468506
  H   -2.02117346562411     -0.24136078895457      1.05607859972377
  H   -0.85628372809267     -1.56826006478567      1.11403723061136
  C   0.95747547386579     -0.78639960605012     -1.57069680215248
  N   0.74396627492042     -1.19006832061296     -2.65155180494596
