14
Coordinates from ORCA-job run
  C   -0.14096238441182      0.12632170070314      0.30157059406775
  C   0.77633461173548     -0.70831749891789     -0.59725040667926
  Br  0.82528657495573      0.27197302021464      2.09139679146949
  H   0.22351065548216     -0.93052003900397     -1.51647110119934
  H   1.02933102258819     -1.64923395430304     -0.10493214717786
  N   -0.38649430195342      1.38393626334978     -0.28974990015191
  H   -1.02293829459365      1.94283749703201      0.26403712548268
  H   0.46389027324656      1.91060506699215     -0.45242791138779
  C   -1.44043324073863     -0.60418424875330      0.58208448807168
  H   -1.25164737827834     -1.58098601082687      1.02768314881345
  H   -1.98454928461278     -0.72617243762586     -0.35860262327766
  H   -2.05951338027782     -0.03024123250819      1.27412564411492
  C   2.00156937742200      0.00168714795941     -0.95346432952909
  N   2.96661574943634      0.59129472568798     -1.26699937261707
