14
Coordinates from ORCA-job run
  C   -0.15425313045901      0.07720170845037      0.41884531820053
  C   0.78106940645762     -0.62595322035680     -0.58984779728552
  Br  0.66031467521244     -0.16310321927479      2.19862589381589
  H   0.95115474285869     -1.66633434710431     -0.30172801648998
  H   0.28324094425669     -0.62432369016199     -1.56724258714859
  N   -0.31540567338961      1.49177821369649      0.21625410858139
  H   -0.82450995997601      1.66452437338710     -0.64394087685659
  H   0.57901398459333      1.96761583883880      0.17654209111372
  C   -1.51566867456664     -0.59399391552819      0.41769303266913
  H   -1.98343973928288     -0.46651170284746     -0.56527538720904
  H   -2.15194142060890     -0.12966541130182      1.17045359636491
  H   -1.43050100452229     -1.66104630595770      0.62697697525267
  C   2.05962457130572      0.06489685616996     -0.72377819856045
  N   3.06230127812085      0.66491482199036     -0.83257815244810
