14
Coordinates from ORCA-job run
  C   -0.01597809604383      0.40648688933262      0.29369766706388
  C   1.00008497570587     -0.02585815825212     -0.77061557632476
  Br  0.95558107835604      0.70137313038586      1.97580925898774
  H   1.77486891525326      0.73951817529695     -0.84584723309764
  H   0.48323860721138     -0.07004778219151     -1.73750729996238
  N   -0.52689696914330      1.69997290904891     -0.12330540060956
  H   -1.10426359496590      2.09614353629940      0.61006386164043
  H   -1.11372313631445      1.57058397361495     -0.94318152061579
  C   -1.07535933044751     -0.65690190957346      0.54667570540417
  H   -1.78839868152376     -0.30372874590340      1.29382997556734
  H   -1.61627780431635     -0.84738780085907     -0.38755453902521
  H   -0.63997443594074     -1.59452865317693      0.89538470257588
  C   1.60004415716203     -1.32982564511835     -0.50673971985894
  N   2.06605431500726     -2.38679991890387     -0.30070988174518
