18

C	0.0	0.0	0.0
C	-0.411645	-0.201259	-1.493749
Cl	1.806627	0.0	0.0
H	-1.494241	-0.325706	-1.609693
C	-0.42492	1.354068	0.586255
H	0.173644	2.136164	0.116116
H	-1.488225	1.563605	0.4247
H	-0.209632	1.368768	1.657918
C	-0.406884	-1.120789	0.849352
N	-0.681016	-2.008672	1.564846
N	0.191681	-1.440557	-1.98275
H	-0.385189	-1.819605	-2.723088
H	1.119316	-1.271881	-2.353837
C	-0.063773	1.033917	-2.335266
H	-0.300223	0.81058	-3.376359
H	-0.663957	1.891096	-2.038118
H	0.993835	1.296657	-2.270385
Cl	-3.666305	0.0	0.0
