18

C	0.0	0.0	0.0
C	-0.521512	0.281955	-1.434006
Cl	1.80276	0.0	0.0
H	-1.611956	0.230745	-1.322397
C	-0.508134	0.992671	1.033374
H	-0.075705	1.975531	0.842317
H	-1.600663	1.027774	0.952913
H	-0.226244	0.670754	2.036773
C	-0.376026	-1.369404	0.367313
N	-0.633996	-2.479054	0.653271
N	-0.127888	-0.720351	-2.416738
H	0.861878	-0.923199	-2.334542
H	-0.637222	-1.578172	-2.237771
C	-0.136652	1.666696	-1.934223
H	-0.544128	2.457838	-1.302429
H	-0.550814	1.779977	-2.937235
H	0.949133	1.784623	-1.997599
Cl	-3.771336	0.0	0.0
