18

C	0.0	0.0	0.0
C	-0.407319	0.309887	-1.491204
Cl	1.806333	0.0	0.0
H	0.385694	-0.133251	-2.100806
C	-0.586974	0.947885	1.02447
H	-0.260845	1.969418	0.826407
H	-1.680025	0.886733	0.960985
H	-0.27337	0.666365	2.031272
C	-0.344722	-1.384864	0.342192
N	-0.55723	-2.509486	0.609925
N	-0.436048	1.729248	-1.791726
H	0.387498	2.201606	-1.438152
H	-1.261122	2.146857	-1.376695
C	-1.728446	-0.325688	-1.887406
H	-1.968371	0.007082	-2.9003
H	-1.652637	-1.414213	-1.890794
H	-2.562381	-0.061784	-1.231545
Cl	-4.595149	0.0	0.0
