18

C	0.0	0.0	0.0
C	-0.406292	-0.162755	-1.523733
Cl	1.803541	0.0	0.0
H	0.353534	0.425966	-2.05136
C	-0.520977	1.294759	0.597732
H	-1.612913	1.247399	0.628434
H	-0.133998	1.432441	1.608786
H	-0.200976	2.137409	-0.021724
C	-0.411229	-1.140918	0.816245
N	-0.688952	-2.069668	1.480331
N	-1.691186	0.349756	-1.91334
H	-1.728653	1.354807	-1.79644
H	-2.46653	-0.022869	-1.35707
C	-0.29349	-1.618864	-1.954216
H	-0.398251	-1.669339	-3.039324
H	-1.106793	-2.196584	-1.508692
H	0.65869	-2.066779	-1.6606
Cl	-4.21297	0.0	0.0
