18

C	0.0	0.0	0.0
C	-0.437197	-0.262171	-1.46298
Cl	1.804328	0.0	0.0
H	0.058615	-1.201539	-1.751447
C	-0.548215	1.291412	0.576001
H	-0.28472	2.109295	-0.093054
H	-0.135956	1.467806	1.571256
H	-1.63743	1.210559	0.650284
C	-0.37032	-1.148671	0.832153
N	-0.628666	-2.09142	1.4841
N	0.002613	0.864225	-2.284173
H	0.940731	0.710832	-2.628983
H	-0.618414	0.954407	-3.077566
C	-1.940464	-0.438147	-1.580795
H	-2.492195	0.478898	-1.379094
H	-2.17735	-0.763855	-2.598811
H	-2.346444	-1.179993	-0.893517
Cl	-4.895795	0.0	0.0
