18

C	0.0	0.0	0.0
C	-0.415199	-0.407777	-1.470381
Cl	1.801678	0.0	0.0
H	0.323843	0.114061	-2.091349
C	-0.521997	1.371768	0.386465
H	-0.215882	2.105423	-0.364318
H	-0.128336	1.673039	1.35882
H	-1.613627	1.321875	0.434538
C	-0.405474	-0.999893	0.988148
N	-0.680287	-1.838313	1.764452
N	-1.716104	0.005393	-1.916697
H	-1.796105	1.013463	-1.932121
H	-2.484609	-0.322136	-1.325089
C	-0.266659	-1.909036	-1.674799
H	-1.064249	-2.432065	-1.141805
H	0.697259	-2.282329	-1.320946
H	-0.369682	-2.128316	-2.738425
Cl	-4.283787	0.0	0.0
