18

C	0.0	0.0	0.0
C	-0.414778	0.262591	-1.493506
Cl	1.806326	0.0	0.0
H	0.360982	-0.220114	-2.094972
C	-0.582221	0.982188	0.996886
H	-0.247756	1.994067	0.769584
H	-0.273629	0.725847	2.011242
H	-1.675396	0.931121	0.931901
C	-0.345513	-1.37195	0.385944
N	-0.580571	-2.483165	0.687979
N	-0.413991	1.671108	-1.848233
H	0.423013	2.13617	-1.517113
H	-1.225252	2.120265	-1.440148
C	-1.753687	-0.356304	-1.850642
H	-2.006777	-0.045774	-2.865875
H	-2.572629	-0.061358	-1.189056
H	-1.700354	-1.446542	-1.825301
Cl	-4.63041	0.0	0.0
