15
Coordinates from ORCA-job run
  C   0.88289286635682     -0.11052302414415     -0.29548011189442
  C   -0.56527775406904     -0.54148167944747      0.03436038227470
  Br  2.20463817980263     -1.37650156739675      0.38933644192427
  H   -0.75572312524337     -1.52189918991254     -0.40167368094730
  N   1.14443397048909      1.18108287543804      0.28528047040961
  H   0.54419775032159      1.86285509264838     -0.16954999213972
  H   2.10811448628849      1.44885192874360      0.12110807718201
  C   1.00790491714698     -0.15137329218743     -1.76354255479874
  N   1.12370656859480     -0.12691295571594     -2.93383561064868
  N   -1.45445486610475      0.45460017521568     -0.46845159166299
  H   -1.61534008518488      1.15732440515673      0.24505346947790
  H   -2.33884031628639      0.05954883083250     -0.75349820642562
  N   -0.71999549951256     -0.73145126986705      1.53937267865322
  O   -1.07342779190908      0.24925703484902      2.18785030945575
  O   -0.49182930069036     -1.85237736421236      1.98266991914000
