15
Coordinates from ORCA-job run
  C   0.77873535474448      0.02378985657371     -0.47368597419492
  C   -0.45651268566036     -0.63133652906230      0.18250746005878
  Br  1.49886150919425     -1.36942938708164     -1.74761472131859
  H   -0.16414677045766     -1.59212832186862      0.60794140752873
  N   1.70704299399912      0.44688693431397      0.49871346227817
  H   2.51260425237308      0.90456953684188      0.09310585217402
  H   1.99808285739811     -0.30557654500291      1.11086617134187
  C   0.38305380227610      1.15092603005242     -1.31672276643576
  N   0.05550326160258      2.05991734041264     -1.98578258526423
  N   -1.52707546257093     -0.76915148717662     -0.72401866901889
  H   -1.92959584978655      0.13029282860017     -0.96029728440290
  H   -2.24550088438871     -1.38387695040541     -0.36755812757788
  N   -0.79024241433392      0.23698128460850      1.40294743276526
  O   -0.37078708835843     -0.15040189305233      2.48905801864845
  O   -1.45002287603114      1.24853730224656      1.18854032341791
