15
Coordinates from ORCA-job run
  C   0.77494234393784      0.01253038622917     -0.48027055564293
  C   -0.46553987177582     -0.62389043391226      0.18408962789228
  Br  1.45918732824532     -1.38698510636170     -1.76673837996870
  H   -0.18654049502184     -1.59151767052532      0.60293833874363
  N   1.71904879932501      0.41509724428048      0.48565398379763
  H   2.00287241587968     -0.34518783224033      1.09158059165266
  H   2.52878748498878      0.86050510187620      0.07472178146848
  C   0.39103256459639      1.15033349628277     -1.31451910944422
  N   0.07306699262698      2.06798645702859     -1.97636024589133
  N   -1.54625308846719     -0.73960237969387     -0.71341701421897
  H   -1.93630381844984      0.16714286531578     -0.94256116270641
  H   -2.27124276967322     -1.34499485052210     -0.35438701046551
  N   -0.77357580020419      0.24457799263223      1.41108448635433
  O   -1.41723462986940      1.26856723010323      1.20731234655406
  O   -0.35224745613851     -0.15556250049287      2.49187232187498
