15
Coordinates from ORCA-job run
  C   0.89936782637868     -0.00908438856963     -0.40992562305876
  C   -0.49901993810041     -0.56406895090073     -0.01839739686080
  Br  2.25412133915038     -1.29158624226154      0.22192134586625
  H   -0.67955185213036     -1.51490727903695     -0.51986057664106
  N   1.23957450943968      1.29481450701698      0.06447863083730
  H   1.05031868886985      1.38505041567697      1.05549214941460
  H   0.75867520131396      2.01095230546207     -0.46617187076009
  C   0.94340092388139     -0.01420863243141     -1.87375549904683
  N   0.97414244929552     -0.00005254507102     -3.04884765488869
  N   -1.47949237097217      0.40474026988667     -0.36912043392357
  H   -1.46672156412899      1.17922547021589      0.28581676008027
  H   -2.40731971698723      0.00333244289907     -0.39789352141222
  N   -0.51321738782865     -0.89309582438479      1.46282275940442
  O   -0.69638931294549     -2.05832919021551      1.78982327496656
  O   -0.37788879523617      0.06721764171393      2.22361765602265
