15
Coordinates from ORCA-job run
  C   -0.25841465041899      0.29301723913833      0.10535180894646
  C   1.26227389741252      0.09026897401469      0.14479290538942
  Cl  -0.70440829836910      1.31013644769794      1.52446381566963
  H   1.56956332175693     -0.43013683580074     -0.76923649583347
  H   1.76135857388572      1.06307567295193      0.15633978879656
  C   -1.00512854792785     -1.02543964502113      0.21141860128378
  H   -2.08192146277780     -0.85153503427000      0.17572638025987
  H   -0.76902067548997     -1.53897271576246      1.14442513202767
  H   -0.72925350901549     -1.67422790319434     -0.62585387992627
  C   -0.63419305719697      1.05544334565223     -1.15569723803735
  H   -1.70599652578048      1.25983481448476     -1.16945703454032
  H   -0.38346118550547      0.45976743005861     -2.03865524134626
  H   -0.10321194465212      2.00801087061787     -1.21030294799680
  C   1.71276187287175     -0.68873278369056      1.29544900182241
  N   2.06805219120732     -1.33050987687714      2.21123540348467
