15
Coordinates from ORCA-job run
  C   -0.33157201025553      0.11362107909957      0.20190838566539
  C   1.02696692704391     -0.50270563587597      0.56222097222686
  Cl  -0.82992772321984      1.16424973392204      1.57841889945769
  H   1.29673801401729     -1.23099202537598     -0.21081739619019
  H   0.94545499550360     -1.04028877997292      1.51083605953670
  C   -1.36577365878107     -0.99175753713944      0.05621113134100
  H   -2.35025103140994     -0.56525951706899     -0.14263583040053
  H   -1.42984810693742     -1.59101714865636      0.96673695379851
  H   -1.09592154309300     -1.64528511104489     -0.77884510314631
  C   -0.24592230690142      0.97418319822836     -1.04686378287260
  H   -1.22519038937281      1.39539596707663     -1.28068543030169
  H   0.46012966398171      1.79494005599334     -0.91321162188861
  H   0.08180276377580      0.36362852606928     -1.89420705148073
  C   2.10016358671060      0.48333656815530      0.66441642131630
  N   2.96215081893812      1.27695062659005      0.72651739293821
