15
Coordinates from ORCA-job run
  C   -0.32749588048140      0.11887003245918      0.20498938705146
  C   1.03262733814289     -0.50126155730995      0.55252626920540
  Cl  -0.79672107021235      1.19328652299964      1.57331588745639
  H   1.28628050615155     -1.24080135030657     -0.21527244290806
  H   0.96214761663691     -1.02653124175737      1.50895765568580
  C   -1.37126899960400     -0.98135216757244      0.09266130176471
  H   -1.11965724653312     -1.64914485664990     -0.73680189570143
  H   -2.35604326965032     -0.55104343354949     -0.09642590710429
  H   -1.42430148262224     -1.56635585372252      1.01311970652430
  C   -0.25587978302713      0.95997514727238     -1.05785076128190
  H   -1.23600621303064      1.38344296749292     -1.28378175731267
  H   0.05589577075805      0.33470985330446     -1.90042549430928
  H   0.45671161035729      1.77846856860923     -0.94709442532122
  C   2.11306300812353      0.47940167868656      0.62670683278003
  N   2.98064809499096      1.26833569004387      0.66637564347077
