18

C	0.0	0.0	0.0
C	-0.426555	0.197191	-1.50398
Cl	1.798697	0.0	0.0
H	0.500884	0.438786	-2.030938
C	-0.312701	1.20146	0.809192
N	-0.522607	2.12807	1.501106
N	-0.532629	-1.198979	0.576385
H	-1.550894	-1.149148	0.468488
H	-0.328659	-1.216553	1.570512
C	-1.368709	1.379292	-1.713199
H	-1.599538	1.478785	-2.779437
H	-2.311779	1.236513	-1.181459
H	-0.905993	2.315625	-1.387971
C	-0.984808	-1.086971	-2.111728
H	-1.975566	-1.312562	-1.710382
H	-1.088925	-0.938374	-3.190759
H	-0.32243	-1.937134	-1.939393
Br	-4.169184	0.0	0.0
