18

C	0.0	0.0	0.0
C	-0.492561	0.31645	-1.430012
Cl	1.801626	0.0	0.0
H	-1.578281	0.39952	-1.293254
C	-0.35304	1.120685	0.895805
N	-0.563705	2.020738	1.620039
N	-0.493965	-1.212159	0.593365
H	-1.513867	-1.101381	0.6455
H	-0.2956	-1.984477	-0.032836
C	-0.225255	-0.830814	-2.397156
H	-0.775883	-1.730616	-2.115295
H	-0.574622	-0.547294	-3.393522
H	0.841257	-1.066084	-2.466045
C	0.039239	1.637357	-1.974803
H	-0.105002	2.453234	-1.262257
H	-0.508922	1.895475	-2.88581
H	1.102503	1.575727	-2.221142
Br	-3.754693	0.0	0.0
