18

C	0.0	0.0	0.0
C	-0.474473	0.270385	-1.447085
Cl	1.801632	0.0	0.0
H	-1.564369	0.338601	-1.338944
C	-0.367826	1.139268	0.861744
N	-0.583956	2.062547	1.55478
N	-0.489812	-1.201694	0.61741
H	-1.512412	-1.100406	0.652216
H	-0.272373	-1.98832	0.015627
C	-0.160916	-0.898004	-2.37655
H	-0.464187	-0.63838	-3.393962
H	-0.717492	-1.795293	-2.099551
H	0.908447	-1.129051	-2.392932
C	0.04976	1.583835	-2.017542
H	1.118755	1.529828	-2.240616
H	-0.119276	2.416296	-1.330658
H	-0.482256	1.809486	-2.946101
Br	-3.73369	0.0	0.0
