18

C	0.0	0.0	0.0
C	-0.390613	0.137194	-1.489085
Cl	1.85796	0.0	0.0
H	0.338644	0.837208	-1.909334
C	-0.29571	1.245673	0.735796
N	-0.510686	2.227725	1.345961
N	-0.533528	-1.174236	0.606745
H	-0.430667	-1.133485	1.614222
H	-1.531575	-1.212079	0.398841
C	-1.778505	0.731716	-1.690718
H	-1.96988	0.808937	-2.765359
H	-1.857107	1.734222	-1.264766
H	-2.588619	0.145674	-1.253953
C	-0.24346	-1.202373	-2.206302
H	-0.338339	-1.039844	-3.283786
H	-1.02874	-1.895941	-1.902266
H	0.723924	-1.667544	-2.008142
Br	-4.782546	0.0	0.0
