18

C	0.0	0.0	0.0
C	-0.367604	0.015655	-1.521232
Cl	1.808182	0.0	0.0
H	0.414419	0.604981	-2.009623
C	-0.354055	1.292828	0.609847
N	-0.581832	2.350814	1.065879
N	-0.540776	-1.045762	0.81606
H	-1.536498	-0.86495	0.953542
H	-0.443064	-1.935455	0.342721
C	-1.708193	0.675011	-1.812801
H	-1.920765	0.58029	-2.882967
H	-2.543854	0.23228	-1.266485
H	-1.690531	1.739201	-1.56928
C	-0.323302	-1.402191	-2.084675
H	-1.194931	-1.972872	-1.754886
H	-0.362384	-1.35742	-3.176003
H	0.589939	-1.936299	-1.806919
Br	-4.67598	0.0	0.0
