18

C	0.0	0.0	0.0
C	-0.550193	0.107935	-1.423915
Cl	1.854181	0.0	0.0
H	-1.630123	0.226948	-1.237469
C	-0.329748	1.2095	0.769957
N	-0.528064	2.175801	1.407081
N	-0.501462	-1.129173	0.670923
H	-0.208324	-1.99887	0.25387
H	-0.340111	-1.114465	1.666331
C	-0.344915	-1.180238	-2.211361
H	-0.700249	-1.03478	-3.233861
H	0.71162	-1.465372	-2.256264
H	-0.932972	-1.997294	-1.787691
C	-0.014923	1.321324	-2.172438
H	-0.128859	2.237283	-1.587665
H	-0.584658	1.449158	-3.096825
H	1.041044	1.202819	-2.430928
Br	-4.02228	0.0	0.0
