11

C	0.0	0.0	0.0
C	-0.475697	0.148259	-1.427325
Cl	1.792202	0.0	0.0
H	-0.151953	1.130723	-1.804871
H	-0.344192	0.822596	0.62291
H	-0.333096	-0.950861	0.407219
H	-1.566443	0.13484	-1.379996
N	-0.008533	-0.97053	-2.248456
H	0.931496	-0.794143	-2.579565
H	-0.611583	-1.065361	-3.053941
Br	-3.80761	0.0	0.0
