11

C	0.0	0.0	0.0
C	-0.490528	-0.155394	-1.431849
Cl	1.789559	0.0	0.0
H	0.014697	-1.016443	-1.881441
H	-0.343974	0.936413	0.434365
H	-0.332005	-0.828113	0.623759
H	-1.559913	-0.361783	-1.373598
N	-0.2923	1.0105	-2.287639
H	0.630128	1.400442	-2.130312
H	-0.977534	1.709135	-2.025453
Br	-3.740763	0.0	0.0
