9
Coordinates from ORCA-job run
  C   0.30221120959321     -0.49937988048474     -0.06187104315632
  C   -0.99458202645997      0.28166669195436      0.08919012635511
  Cl  0.64255929408677     -1.44468612708097      1.42043486068498
  H   -1.81857455657569     -0.40661822180247      0.27928884502346
  H   0.22388261027828     -1.22620363348955     -0.87242710776174
  H   -0.92013222226416      0.98261762835177      0.92062764532077
  H   -1.19886913184453      0.83773864142737     -0.82838520039672
  C   1.43436598878429      0.38061721938210     -0.34471410335056
  N   2.33013883440179      1.09424768174212     -0.60214402271898
