14

C	-0.264584	-0.007971	-1.484285
C	0.0	0.0	0.0
Cl	-0.086294	1.656313	-2.149055
H	1.09076	0.0	0.0
H	-0.366181	-0.939925	0.428079
H	-0.466055	0.845877	0.501343
C	0.719444	-0.917969	-2.180583
H	1.699466	-0.637992	-1.768665
H	0.669702	-0.83428	-3.265281
H	0.510185	-1.951263	-1.889788
N	-1.713329	-0.370243	-1.815904
O	-2.58914	0.131669	-1.118143
O	-1.923135	-1.14037	-2.752416
F	2.722954	0.0	0.0
