15

C	0.0	0.0	0.0
C	-0.311419	-0.237535	-1.507124
Cl	1.830374	0.0	0.0
H	0.206179	-1.144731	-1.818018
H	-0.298432	-0.912779	0.519397
N	-0.568919	1.113986	0.663417
H	-0.534	1.931408	0.068314
H	-1.542656	0.900131	0.877076
N	0.345245	0.845865	-2.336636
O	1.093198	0.506226	-3.247117
O	0.039185	2.009358	-2.073214
N	-1.668297	-0.281962	-1.923289
H	-2.273107	0.367638	-1.427257
H	-2.071577	-1.190557	-1.742113
Cl	-4.067246	0.0	0.0
