15

C	0.0	0.0	0.0
C	-0.526216	-0.234116	-1.412833
Cl	1.777583	0.0	0.0
H	-1.600257	-0.438127	-1.293996
H	-0.287822	-0.856759	0.610107
N	-0.511664	1.271082	0.451261
H	-0.244773	1.402707	1.420371
H	-1.533892	1.17075	0.426331
N	0.026445	-1.53628	-1.95902
O	0.090694	-2.482203	-1.174995
O	0.283511	-1.596748	-3.156815
N	-0.201907	0.85031	-2.283539
H	-0.943937	0.985808	-2.955751
H	-0.133744	1.680563	-1.704623
Cl	-3.559581	0.0	0.0
