15

C	0.0	0.0	0.0
C	-0.499649	-0.212716	-1.433621
Cl	1.833266	0.0	0.0
H	-1.561113	-0.464173	-1.333217
H	-0.252696	-0.884294	0.589589
N	-0.502117	1.247285	0.488445
H	-1.524918	1.159609	0.427613
H	-0.273564	1.322033	1.474282
N	0.169113	-1.458816	-1.963202
O	-0.077418	-2.496239	-1.348577
O	0.92366	-1.371058	-2.925504
N	-0.332245	0.871036	-2.339499
H	-1.080654	1.530364	-2.166951
H	0.550095	1.339538	-2.168705
Cl	-3.518147	0.0	0.0
