15

C	0.0	0.0	0.0
C	-0.385912	-0.415262	-1.478124
Cl	1.797671	0.0	0.0
H	0.492987	-0.885093	-1.926121
H	-0.293189	-0.854893	0.611521
N	-0.560935	1.17059	0.578526
H	-0.416437	1.964235	-0.032504
H	-1.563339	1.011443	0.694917
N	-0.560572	0.849831	-2.308762
O	0.307446	1.713663	-2.156594
O	-1.507425	0.937385	-3.076112
N	-1.506507	-1.260813	-1.673306
H	-2.34051	-0.909094	-1.190599
H	-1.288222	-2.189271	-1.337072
Cl	-3.855604	0.0	0.0
