15

C	0.0	0.0	0.0
C	-0.429209	-0.638086	-1.341386
Cl	1.77994	0.0	0.0
H	0.36739	-1.290884	-1.698618
H	-0.273721	-0.731039	0.767254
N	-0.551879	1.310237	0.168397
H	-1.553188	1.265315	-0.029657
H	-0.448078	1.596415	1.134639
N	-0.403724	0.485975	-2.407098
O	-1.449357	1.082298	-2.638268
O	0.675161	0.689244	-2.965797
N	-1.638896	-1.338045	-1.229428
H	-2.428118	-0.812094	-0.83249
H	-1.931027	-1.731148	-2.113818
Cl	-4.189451	0.0	0.0
