17

C	0.0	0.0	0.0
C	-0.622599	0.164392	-1.397922
F	1.377972	0.0	0.0
H	-1.594936	0.655302	-1.238357
C	-0.366004	1.154199	0.858278
N	-0.540006	2.034357	1.616576
C	-0.472615	-1.281627	0.655222
H	-0.033541	-1.341933	1.652455
H	-1.562361	-1.273224	0.724788
H	-0.13848	-2.118384	0.043735
N	-0.758712	-1.088589	-2.099358
H	-1.730849	-1.363517	-1.982508
H	-0.594078	-0.914771	-3.082494
N	0.204761	1.137054	-2.19948
O	0.591996	2.143067	-1.615272
O	0.408734	0.892498	-3.388901
Br	-3.801295	0.0	0.0
