17

C	0.0	0.0	0.0
C	-0.36771	-0.198972	-1.500468
F	1.387941	0.0	0.0
H	0.098936	0.623832	-2.043871
C	-0.40722	1.372633	0.359112
N	-0.646614	2.483728	0.654482
C	-0.563784	-0.998849	0.979595
H	-0.177982	-0.77207	1.975655
H	-1.654526	-0.910076	0.990306
H	-0.275482	-2.009136	0.693482
N	-1.718775	-0.349088	-1.885565
H	-2.277404	-0.898359	-1.239035
H	-2.19335	0.543755	-1.93013
N	0.404093	-1.415339	-1.974667
O	-0.008898	-2.512613	-1.608129
O	1.373448	-1.226415	-2.705636
Br	-4.352111	0.0	0.0
