17

C	0.0	0.0	0.0
C	-0.365837	0.134577	-1.503683
F	1.387101	0.0	0.0
H	0.188638	0.999921	-1.870804
C	-0.40807	1.265934	0.64234
N	-0.649839	2.287811	1.168014
C	-0.561368	-1.184331	0.747903
H	-0.242332	-2.112095	0.277139
H	-0.204876	-1.150311	1.779493
H	-1.653879	-1.12544	0.746928
N	-1.717572	0.194273	-1.892837
H	-2.390493	-0.26925	-1.28017
H	-2.033923	1.148638	-1.985071
N	0.315295	-1.027856	-2.219354
O	1.303695	-0.769441	-2.904439
O	-0.186192	-2.140315	-2.08311
Br	-4.372872	0.0	0.0
