17

C	0.0	0.0	0.0
C	-0.51821	0.099144	-1.4332
F	1.392517	0.0	0.0
H	-1.609833	0.203745	-1.366107
C	-0.383383	1.172076	0.812525
N	-0.551904	2.07432	1.54501
C	-0.486869	-1.270311	0.66403
H	-1.579353	-1.260802	0.680472
H	-0.09636	-1.304273	1.683399
H	-0.126079	-2.124429	0.092545
N	-0.120653	-1.031723	-2.19449
H	0.863532	-0.96015	-2.421815
H	-0.654317	-1.079901	-3.051796
N	0.011092	1.409727	-2.03072
O	0.983509	1.337357	-2.784871
O	-0.562291	2.445803	-1.71066
Br	-3.812439	0.0	0.0
