16

C	0.0	0.0	0.0
C	-0.398574	0.152893	-1.520752
Br	1.963007	0.0	0.0
H	0.512186	-0.063628	-2.084758
N	-0.498047	1.062879	0.811997
H	-0.24291	0.882293	1.777942
H	-1.526815	0.981094	0.73748
C	-0.323994	-1.355022	0.489055
N	-0.522766	-2.430352	0.922112
C	-0.832873	1.57413	-1.874564
H	-0.080716	2.286265	-1.533331
H	-0.93351	1.648728	-2.960722
H	-1.792159	1.794136	-1.412487
C	-1.339623	-0.852148	-2.032375
N	-1.906455	-1.643667	-2.691587
Cl	-3.34414	0.0	0.0
