16

C	0.0	0.0	0.0
C	-0.497068	-0.235926	-1.451731
Br	1.966708	0.0	0.0
H	-1.594109	-0.165174	-1.337436
N	-0.478559	1.202514	0.61489
H	-1.501603	1.099412	0.655323
H	-0.259275	1.988116	0.008695
C	-0.371758	-1.153594	0.830507
N	-0.590019	-2.083171	1.5155
C	-0.135213	-1.586963	-2.061601
H	0.944357	-1.70608	-2.160096
H	-0.591498	-1.673185	-3.05052
H	-0.531948	-2.387309	-1.435401
C	-0.053331	0.866505	-2.299165
N	0.299853	1.739985	-3.00152
Cl	-3.465792	0.0	0.0
