16

C	0.0	0.0	0.0
C	-0.525894	-0.434854	-1.365958
Cl	1.803875	0.0	0.0
H	-0.123873	0.273158	-2.099613
H	-1.612893	-0.29831	-1.312406
C	-0.501147	1.387225	0.36717
H	-1.594655	1.34372	0.40352
H	-0.10239	1.701261	1.333907
H	-0.182161	2.096803	-0.400264
C	-0.368131	-0.972579	1.038633
N	-0.57957	-1.764974	1.879724
C	-0.198016	-1.868869	-1.754449
H	-0.662446	-2.569523	-1.057908
H	-0.5963	-2.080953	-2.749592
H	0.878709	-2.052379	-1.770718
Br	-3.937829	0.0	0.0
