16

C	0.0	0.0	0.0
C	-0.516881	-0.300127	-1.40696
Cl	1.805036	0.0	0.0
H	-1.585652	-0.512078	-1.288369
H	-0.015452	-1.206224	-1.761582
C	-0.489592	1.326353	0.55971
H	-0.103865	2.146508	-0.048207
H	-1.583818	1.316507	0.537277
H	-0.137651	1.455487	1.584902
C	-0.363362	-1.100644	0.902476
N	-0.571667	-1.991861	1.638792
C	-0.327657	0.851301	-2.386913
H	-0.517635	0.504293	-3.405608
H	0.687329	1.257598	-2.35445
H	-1.039705	1.650798	-2.176795
Br	-3.900903	0.0	0.0
