16

C	0.0	0.0	0.0
C	-0.493711	-0.342588	-1.405789
Cl	1.804992	0.0	0.0
H	-1.556996	-0.578608	-1.296157
H	0.038794	-1.240322	-1.735399
C	-0.470501	1.35344	0.512332
H	-1.563819	1.358641	0.504732
H	-0.099323	1.518047	1.525512
H	-0.080704	2.14211	-0.133044
C	-0.371202	-1.063733	0.941071
N	-0.574691	-1.925491	1.71287
C	-0.317287	0.796784	-2.40308
H	-1.063245	1.572656	-2.225516
H	0.680842	1.240636	-2.349314
H	-0.463338	0.42698	-3.42095
Br	-3.829286	0.0	0.0
