12

C	-0.407591	-0.210413	-1.450919
C	0.0	0.0	0.0
F	-1.777251	-0.48662	-1.483866
H	1.092894	0.0	0.0
H	-0.261425	0.70145	-2.03343
H	-0.332545	-0.872668	0.571025
N	0.310565	-1.279386	-2.069835
H	0.625071	-1.937663	-1.370159
H	1.141786	-0.908475	-2.509718
C	-0.56584	1.198919	0.598263
N	-1.030491	2.159627	1.085251
Br	3.516503	0.0	0.0
