12

C	-0.345534	-0.031078	-1.486872
C	0.0	0.0	0.0
F	-1.729225	-0.055491	-1.641956
H	1.093653	0.0	0.0
H	0.020241	0.894092	-1.940294
H	-0.366982	0.910979	0.479411
N	0.21375	-1.137165	-2.208015
H	0.002667	-1.997667	-1.710975
H	1.224933	-1.029696	-2.198254
C	-0.518874	-1.173525	0.689877
N	-0.931413	-2.136939	1.218752
Br	3.511474	0.0	0.0
