12

C	-0.531406	-0.078641	-1.419968
C	0.0	0.0	0.0
F	-0.096789	1.059406	-2.118168
H	1.091991	0.0	0.0
H	-0.0828	-0.934859	-1.928623
H	-0.325211	-0.896173	0.535967
N	-1.952871	-0.191843	-1.453198
H	-2.27078	-0.231766	-2.414597
H	-2.365624	0.625944	-1.016216
C	-0.539619	1.170685	0.684588
N	-1.046154	2.092523	1.20616
Br	3.57327	0.0	0.0
