12

C	-0.433357	0.037769	-1.466668
C	0.0	0.0	0.0
F	-0.272619	-1.245396	-1.984843
H	1.094855	0.0	0.0
H	-1.498242	0.269834	-1.567484
H	-0.307472	0.937546	0.47447
N	0.325357	0.96024	-2.235871
H	-0.137688	1.851398	-2.322573
H	1.270758	1.064496	-1.881925
C	-0.567128	-1.11425	0.745375
N	-1.075643	-1.980903	1.351412
Br	3.603361	0.0	0.0
