14
Coordinates from ORCA-job run
  C   0.86024120880063     -0.20468280297999     -0.68550465413993
  C   -0.59912082846691      0.11929699676829     -0.44509959204922
  Br  1.00601243863140     -1.76938895967451     -1.77746589865960
  H   -1.12597295891847      0.18649266617631     -1.39629992296628
  H   1.31266855685081      0.63273376517187     -1.21819219680407
  N   1.64592716191135     -0.31866744766204      0.61658168294163
  O   1.44771921237137      0.62698921215192      1.37021153830169
  O   2.41229092072449     -1.24827790778537      0.77675387500979
  N   -0.77893544792605      1.47715229837684      0.20992587119041
  O   -0.29053788685787      2.39540315270167     -0.43229093902439
  O   -1.40246906200529      1.53531431291112      1.25560640657574
  N   -1.31550731764708     -0.90428435639754      0.37493923467136
  O   -2.51398093939432     -1.01316567456542      0.14118843822511
  O   -0.65933505807407     -1.51391525519315      1.21164615672776
