14
Coordinates from ORCA-job run
  C   0.66739870767489     -0.30067599212226     -0.67844319313453
  C   -0.38613328871010     -0.24513548123977      0.39857929958011
  Br  1.03273823443832     -2.12929582516605     -1.14199047271607
  H   -0.12001275843928     -0.77898846192109      1.30626069774244
  H   0.36776332398195      0.24279736064643     -1.57063684403571
  N   1.93447192041097      0.33680130068899     -0.17019811969607
  O   2.10527169634537      0.33204103792950      1.04497822390395
  O   2.68658303791530      0.78400976737696     -1.02288352541544
  N   -1.67594247030729     -0.80497010905146     -0.12763688883937
  O   -2.19186263810082     -1.70537115341151      0.52227566720221
  O   -2.09198111019578     -0.29114811052967     -1.16187547630411
  N   -0.69134583354247      1.18189210247782      0.77705952028918
  O   -0.26834452761171      2.06286952515768      0.03647324207281
  O   -1.36860429385935      1.31617403916442      1.78803786935059
