14
Coordinates from ORCA-job run
  C   0.67400099266468     -0.33758278199179     -0.65358488899855
  C   -0.41208928625695     -0.22189869092258      0.38551668324368
  Br  0.95768771728886     -2.18522924395956     -1.10025061325587
  H   -0.20464142218506     -0.76247526853033      1.30450464234548
  H   0.43539564709630      0.21669300486946     -1.55744166312409
  N   1.95501110832810      0.23298370621360     -0.10248914947472
  O   2.08335341897540      0.22297521215532      1.11781676507175
  O   2.75895620852189      0.63640160923614     -0.92928882570936
  N   -1.71005232431849     -0.71828405310819     -0.18180715777505
  O   -2.29434983158727     -1.58581869189334      0.45479601270323
  O   -2.06287981296628     -0.19161269955177     -1.23295100524937
  N   -0.65693150577989      1.22170111051655      0.74642190414759
  O   -1.37043036512755      1.39680266544588      1.72566247501203
  O   -0.15403054465373      2.07534412152060      0.02409482106324
