16

C	0.0	0.0	0.0
C	-0.355215	0.103363	-1.565154
Br	1.951297	0.0	0.0
H	0.51271	0.544472	-2.04898
C	-0.345832	1.312254	0.586545
N	-0.57957	2.354625	1.079077
N	-0.604077	-1.122809	0.617119
H	-0.412992	-1.095687	1.614119
H	-1.636498	-0.915832	0.466837
N	-1.538605	0.758939	-1.979248
H	-1.373895	1.757245	-1.916855
H	-2.294866	0.493713	-1.293898
N	-0.370308	-1.31955	-2.081497
O	-1.432238	-1.92469	-2.072824
O	0.704071	-1.764625	-2.494453
F	-2.886437	0.0	0.0
