16

C	0.0	0.0	0.0
C	-0.537714	0.062567	-1.439234
Br	1.947589	0.0	0.0
H	-1.625154	0.226764	-1.263376
C	-0.3609	1.198177	0.786571
N	-0.584217	2.063239	1.5509
N	-0.557483	-1.198212	0.571873
H	-0.298925	-1.234639	1.552827
H	-1.593476	-0.957433	0.494927
N	-0.190581	-1.14248	-2.150878
H	-0.236397	-1.88661	-1.460867
H	-0.900828	-1.316803	-2.850108
N	-0.0437	1.242017	-2.222197
O	-0.144142	1.151861	-3.445118
O	0.330887	2.247827	-1.622593
F	-2.777406	0.0	0.0
