16

C	0.0	0.0	0.0
C	-0.537902	0.078756	-1.436156
Br	1.94753	0.0	0.0
H	-1.628949	0.215306	-1.252048
C	-0.36644	1.18346	0.804514
N	-0.600514	2.043383	1.571114
N	-0.551665	-1.211466	0.552184
H	-0.286395	-1.267	1.530827
H	-1.587005	-0.972571	0.484915
N	-0.160224	-1.104217	-2.173576
H	-0.195214	-1.863817	-1.500126
H	-0.864697	-1.277731	-2.878856
N	-0.073237	1.28094	-2.198869
O	-0.223088	1.223463	-3.419219
O	0.331812	2.268628	-1.589153
F	-2.770837	0.0	0.0
