16

C	0.0	0.0	0.0
C	-0.531805	0.107182	-1.468427
Br	1.959139	0.0	0.0
H	-1.621346	0.033314	-1.29042
C	-0.394254	1.20644	0.742418
N	-0.648235	2.191092	1.330979
N	-0.533005	-1.148873	0.66693
H	-1.566907	-0.924201	0.592108
H	-0.329335	-1.962074	0.091699
N	-0.028709	-0.866765	-2.387625
H	0.950332	-1.070395	-2.222353
H	-0.583339	-1.70856	-2.346074
N	-0.300157	1.46406	-2.079152
O	0.861116	1.834775	-2.24996
O	-1.295323	2.101515	-2.417861
F	-2.749802	0.0	0.0
