16

C	0.0	0.0	0.0
C	-0.244765	-0.05005	-1.577228
Br	1.959336	0.0	0.0
H	0.392102	0.713711	-2.027646
C	-0.381875	1.367452	0.392019
N	-0.612179	2.486587	0.664092
N	-0.639544	-0.937309	0.83957
H	-0.509801	-1.857228	0.433299
H	-1.656233	-0.678995	0.746396
N	-1.570104	0.001296	-2.039971
H	-1.713921	0.849982	-2.566159
H	-2.279725	-0.057236	-1.242075
N	0.381337	-1.346357	-2.125114
O	1.040645	-1.246891	-3.157705
O	0.114294	-2.411007	-1.569053
F	-2.996529	0.0	0.0
