16

C	0.0	0.0	0.0
C	-0.529493	0.260849	-1.443307
Br	1.952869	0.0	0.0
H	-1.593818	0.478645	-1.25107
C	-0.33473	1.114848	0.912543
N	-0.523628	1.925202	1.74391
N	-0.564562	-1.24509	0.417949
H	-1.603531	-0.979439	0.359098
H	-0.324097	-1.391118	1.393964
N	-0.389022	-0.834994	-2.34412
H	0.557068	-1.199716	-2.302532
H	-1.013196	-1.556651	-2.004623
N	0.131479	1.474407	-2.015014
O	0.96587	1.325845	-2.90578
O	-0.197091	2.557736	-1.530224
F	-2.76006	0.0	0.0
