16

C	0.0	0.0	0.0
C	-0.347913	0.249523	-1.520374
Br	2.011301	0.0	0.0
H	0.545041	0.598774	-2.037324
C	-0.298423	1.218889	0.777929
N	-0.46613	2.124765	1.509256
N	-0.605244	-1.179769	0.49354
H	-1.638138	-0.941605	0.365407
H	-0.418798	-1.248604	1.488675
N	-1.421151	1.128507	-1.702226
H	-2.231865	0.779224	-1.132598
H	-1.634033	1.224667	-2.686675
N	-0.525167	-1.159182	-2.152126
O	0.507812	-1.790897	-2.366401
O	-1.656329	-1.524117	-2.450313
F	-2.870542	0.0	0.0
