19

C	-0.483472	-0.063252	-1.460792
C	0.0	0.0	0.0
Br	0.035632	1.74814	-2.287561
H	1.089356	0.0	0.0
C	0.268792	-1.081953	-2.298224
H	1.343679	-0.965957	-2.145323
H	-0.030394	-2.084183	-1.98835
H	0.028765	-0.943513	-3.355755
N	-1.882761	-0.268161	-1.531327
H	-2.192302	-0.301158	-2.49451
H	-2.396238	0.454717	-1.04186
N	-0.442696	-1.291759	0.640001
O	-1.406646	-1.259766	1.406823
O	0.174655	-2.312318	0.346792
C	-0.498922	1.159805	0.839525
H	-0.046935	2.080565	0.475042
H	-0.174078	1.007888	1.870185
H	-1.586834	1.25422	0.843403
Br	3.526902	0.0	0.0
