15

C	-0.456011	0.095631	-1.463146
C	0.0	0.0	0.0
Cl	-0.252902	-1.570581	-2.135636
H	1.08893	0.0	0.0
H	-0.402462	-0.886717	0.482603
C	-1.883997	0.41663	-1.564614
N	-3.025664	0.684959	-1.65091
C	0.39566	1.041559	-2.301138
H	1.444384	0.777519	-2.148779
H	0.126093	0.95114	-3.355324
H	0.237379	2.064031	-1.963222
N	-0.483629	1.153517	0.800568
O	-0.984798	0.903114	1.894886
O	-0.343584	2.282791	0.336272
Cl	3.309707	0.0	0.0
