15

C	-0.579333	-0.020588	-1.418311
C	0.0	0.0	0.0
Cl	0.188137	1.21104	-2.469724
H	1.088245	0.0	0.0
H	-0.370048	-0.87872	0.529684
C	-0.284006	-1.336463	-1.993728
N	-0.141379	-2.405674	-2.459612
C	-2.091122	0.197959	-1.437518
H	-2.32211	1.20072	-1.075886
H	-2.57985	-0.535678	-0.791619
H	-2.469411	0.095636	-2.455295
N	-0.535648	1.162942	0.746296
O	-1.398322	0.933139	1.600923
O	-0.124827	2.280653	0.447138
Cl	3.293976	0.0	0.0
