15

C	-0.462107	0.05976	-1.452858
C	0.0	0.0	0.0
Cl	-0.169463	-1.528921	-2.239648
H	1.08844	0.0	0.0
H	-0.35787	0.891954	0.52378
C	-1.881781	0.38645	-1.611898
N	-2.984614	0.744614	-1.801493
C	0.396671	1.106288	-2.163116
H	1.448785	0.846805	-2.024735
H	0.21484	2.088637	-1.718619
H	0.145348	1.142339	-3.224138
N	-0.565918	-1.15567	0.744628
O	0.165922	-1.742998	1.532848
O	-1.754159	-1.416072	0.546506
Cl	3.352828	0.0	0.0
