15

C	-0.443032	-0.339226	-1.423213
C	0.0	0.0	0.0
Cl	-2.214359	-0.738018	-1.4556
H	1.101705	0.0	0.0
H	-0.400636	0.955621	0.329476
C	-0.297231	0.886273	-2.214949
N	-0.192204	1.858131	-2.865855
C	0.352123	-1.465125	-2.07208
H	1.414835	-1.220315	-1.981789
H	0.069117	-1.562823	-3.121263
H	0.161732	-2.396748	-1.545504
N	-0.449771	-0.997176	1.000719
O	-0.268868	-2.188103	0.758619
O	-0.954528	-0.558905	2.033868
Cl	3.274421	0.0	0.0
