15

C	-0.461212	0.200023	-1.448416
C	0.0	0.0	0.0
Cl	-0.282286	-1.422932	-2.225974
H	1.100287	0.0	0.0
H	-0.388798	-0.9206	0.428508
C	-1.88432	0.541998	-1.531861
N	-3.024485	0.815293	-1.607321
C	0.409567	1.182734	-2.218681
H	0.274168	2.181225	-1.805844
H	0.137281	1.178472	-3.275463
H	1.451495	0.88375	-2.091843
N	-0.447735	1.092526	0.901111
O	-0.602152	2.219814	0.429095
O	-0.606864	0.797074	2.083407
Cl	3.291771	0.0	0.0
