15

C	-0.463368	0.162785	-1.432045
C	0.0	0.0	0.0
Cl	-2.268631	-0.014118	-1.512235
H	1.100597	0.0	0.0
H	-0.352311	-0.954656	0.3887
C	-0.134767	1.449729	-2.048136
N	0.119375	2.408644	-2.677187
C	0.180447	-0.952925	-2.252956
H	-0.128812	-1.922082	-1.857262
H	1.266547	-0.85856	-2.164021
H	-0.123783	-0.878322	-3.297848
N	-0.503408	1.030749	0.934706
O	-0.642211	2.179051	0.519277
O	-0.721009	0.663739	2.088469
Cl	3.259879	0.0	0.0
