15

C	-0.591425	-0.068836	-1.405123
C	0.0	0.0	0.0
Cl	-0.138725	1.496411	-2.18027
H	1.089615	0.0	0.0
H	-0.355916	0.900321	0.499868
C	-0.034954	-1.137315	-2.238389
N	0.306505	-1.975799	-2.986644
C	-2.114839	-0.163537	-1.404665
H	-2.495429	-0.081203	-2.423546
H	-2.52762	0.65154	-0.805887
H	-2.424204	-1.12238	-0.986727
N	-0.446122	-1.137392	0.842179
O	-0.603144	-2.233126	0.301197
O	-0.598818	-0.915432	2.041149
Cl	3.258889	0.0	0.0
