16

C	-0.432491	-0.150229	-1.458552
C	0.0	0.0	0.0
Br	0.069869	1.657383	-2.262884
H	1.086339	0.0	0.0
H	-0.463283	0.873211	0.453397
C	0.456172	-1.148675	-2.17909
H	1.487409	-0.939269	-1.885578
H	0.19487	-2.153576	-1.8376
H	0.32664	-1.089449	-3.26374
N	-1.831693	-0.330161	-1.602724
H	-2.094482	-0.918705	-2.379579
H	-2.298796	-0.587209	-0.744211
N	-0.526875	-1.167435	0.741296
O	0.021313	-2.259105	0.604521
O	-1.540989	-0.999574	1.440008
F	2.595249	0.0	0.0
