16

C	-0.376772	-0.094047	-1.48846
C	0.0	0.0	0.0
Br	-0.282224	1.8038	-2.101916
H	1.092273	0.0	0.0
H	-0.419254	0.866245	0.506479
C	0.683952	-0.865549	-2.252518
H	1.66013	-0.538306	-1.884444
H	0.576879	-1.925681	-2.006785
H	0.565684	-0.725303	-3.327727
N	-1.710518	-0.547815	-1.82927
H	-2.387402	-0.059568	-1.251149
H	-1.746949	-1.532824	-1.585967
N	-0.443222	-1.171641	0.764827
O	-0.692095	-1.010607	1.962328
O	-0.507983	-2.273491	0.202663
F	2.584377	0.0	0.0
