16

C	-0.105994	0.026274	-1.513675
C	0.0	0.0	0.0
Br	-2.003469	-0.243774	-2.138717
H	1.093986	0.0	0.0
H	-0.401044	-0.927787	0.395961
C	0.413361	1.300029	-2.160514
H	-0.19529	2.17419	-1.945274
H	1.41847	1.433324	-1.747609
H	0.470285	1.15054	-3.242977
N	0.667021	-1.139928	-1.893312
H	0.830195	-1.112766	-2.894644
H	1.570888	-1.00786	-1.411297
N	-0.58433	1.094975	0.769101
O	-1.150426	0.790835	1.824501
O	-0.453829	2.256533	0.37992
F	2.616238	0.0	0.0
