15

C	-0.44869	0.040417	-1.444932
C	0.0	0.0	0.0
F	0.197776	-0.905255	-2.157908
H	1.102171	0.0	0.0
N	-1.948896	-0.298781	-1.54034
O	-2.263073	-1.370217	-2.035193
O	-2.703508	0.540275	-1.056854
C	-0.274995	1.351871	-2.084297
N	-0.126795	2.393584	-2.607134
N	-0.345745	-1.292372	0.569433
H	0.515958	-1.675891	0.953042
H	-1.032527	-1.209498	1.306832
C	-0.462685	1.142842	0.762673
N	-0.76293	2.052643	1.44727
H	2.534066	0.0	0.0
