15

C	-0.459362	-0.000541	-1.442217
C	0.0	0.0	0.0
F	0.248799	-0.896621	-2.159149
H	1.09497	0.0	0.0
N	-1.932472	-0.459787	-1.51906
O	-2.728639	0.250079	-0.914786
O	-2.181104	-1.482407	-2.136823
C	-0.405422	1.315172	-2.094586
N	-0.380024	2.36389	-2.623598
N	-0.344407	-1.282248	0.598174
H	-1.033331	-1.180361	1.330434
H	0.515595	-1.652178	0.998668
C	-0.469006	1.155648	0.741133
N	-0.800297	2.062194	1.415025
H	2.552647	0.0	0.0
