15

C	-0.441202	-0.00389	-1.447591
C	0.0	0.0	0.0
F	0.267101	-0.911575	-2.149454
H	1.095661	0.0	0.0
N	-1.918991	-0.445437	-1.548074
O	-2.175918	-1.435529	-2.217325
O	-2.711735	0.246536	-0.91862
C	-0.362231	1.307947	-2.106485
N	-0.30849	2.353363	-2.639845
N	-0.354603	-1.278956	0.598355
H	-1.058817	-1.172821	1.313808
H	0.495272	-1.646658	1.017293
C	-0.468	1.162375	0.730887
N	-0.784915	2.084117	1.390902
H	2.555739	0.0	0.0
