15

C	-0.465457	0.007017	-1.439753
C	0.0	0.0	0.0
F	0.255951	-0.867355	-2.169545
H	1.095841	0.0	0.0
N	-1.931765	-0.479248	-1.516092
O	-2.169993	-1.475838	-2.180184
O	-2.732332	0.185789	-0.867871
C	-0.441569	1.328949	-2.080148
N	-0.451358	2.381753	-2.599441
N	-0.339323	-1.286223	0.591542
H	-1.046782	-1.196507	1.308975
H	0.517519	-1.649084	1.003977
C	-0.467452	1.151577	0.749659
N	-0.805802	2.048409	1.433085
H	2.554599	0.0	0.0
