15

C	-0.398641	0.012422	-1.4565
C	0.0	0.0	0.0
F	-0.198207	-1.20099	-2.034393
H	1.096914	0.0	0.0
N	-1.910658	0.278302	-1.665664
O	-2.252933	0.797494	-2.724778
O	-2.659493	-0.113175	-0.777228
C	0.329513	1.0394	-2.218126
N	0.909194	1.852599	-2.836384
N	-0.390389	-1.210017	0.682236
H	-1.212122	-1.078072	1.254198
H	0.400724	-1.494926	1.252104
C	-0.421711	1.250144	0.616917
N	-0.744709	2.251004	1.145858
H	2.560834	0.0	0.0
