17

C	-0.287925	0.127994	-1.493138
C	0.0	0.0	0.0
Br	-0.005062	-1.797822	-2.267778
H	1.092618	0.0	0.0
H	-0.41594	-0.926166	0.405777
N	-1.602016	0.552408	-1.817877
H	-2.284268	-0.06566	-1.394725
H	-1.744534	0.555915	-2.820994
C	0.792899	0.953647	-2.16564
H	1.753192	0.637326	-1.736081
H	0.773891	0.858111	-3.254384
H	0.622471	2.002299	-1.898499
C	-0.487607	1.215888	0.785342
H	-0.021733	2.128982	0.406061
H	-1.574026	1.354218	0.759427
H	-0.173656	1.109483	1.828469
F	2.758644	0.0	0.0
