12
Coordinates from ORCA-job run
  C   0.74214135633482      0.38701431873856      0.29928231607817
  C   0.07655129595826     -0.77643355468801     -0.47865349539510
  Cl  2.51991308008905      0.15532870096868      0.29164661455683
  H   0.38574082062063     -1.70381150440302      0.01162448705422
  H   0.50247588732128     -0.76906599758397     -1.48594868438437
  C   0.26302163187792      0.38787380470653      1.68151970498610
  N   -0.12759374741230      0.33076820214476      2.78783962421811
  C   0.41986398080375      1.65673078866237     -0.35203276078444
  N   0.15845994794322      2.64766221503202     -0.92609126526989
  N   -1.35086990370203     -0.57601021263259     -0.46337080398812
  H   -1.84939175389496     -1.31003176648112      0.01426285538894
  H   -1.74131259593963     -0.43102499446420     -1.38107859246044
