12
Coordinates from ORCA-job run
  C   0.74576880844534      0.37783242441990      0.30233668293940
  C   0.05442944885502     -0.83402363156334     -0.37218660468665
  Cl  2.50096022370009      0.04350472607282      0.44955104488490
  H   0.26803505605642     -1.70763869408054      0.25004478036311
  H   0.54393514852003     -0.98108189872178     -1.33918885958559
  C   0.18133492514281      0.58206035690053      1.63648778156422
  N   -0.28114994059623      0.68898834616469      2.71091625402901
  C   0.55105602010892      1.57121608740362     -0.52114221121497
  N   0.39294987929060      2.49462011041379     -1.22975369931366
  N   -1.35447042793854     -0.55018597060447     -0.48363072644988
  H   -1.93092480256634     -1.19337845067469      0.03552422867254
  H   -1.67292433901811     -0.49091340573052     -1.43795867120243
