18

C	0.0	0.0	0.0
C	-0.637468	-0.07068	-1.388648
Br	1.931938	0.0	0.0
H	-1.751961	-0.044719	-1.041966
C	-0.466089	1.241998	0.73972
H	-0.056398	1.263222	1.747637
H	-1.559919	1.161303	0.744504
H	-0.130845	2.125719	0.195191
N	-0.38803	-1.229072	0.829439
O	-0.37438	-2.318979	0.2674
O	-0.611955	-1.062038	2.020595
C	-0.328181	-1.25819	-2.30486
H	0.74168	-1.487322	-2.329452
H	-0.647494	-1.008117	-3.320019
H	-0.868526	-2.142225	-1.978534
C	-0.324209	1.161822	-2.094303
N	-0.090195	2.133012	-2.716832
F	-2.849853	0.0	0.0
