18

C	0.0	0.0	0.0
C	-0.469476	-0.357706	-1.439241
Br	1.949922	0.0	0.0
H	0.370304	-0.864178	-1.927172
C	-0.425334	1.326129	0.592895
H	-0.072244	2.139194	-0.042709
H	-1.518215	1.265501	0.6326
H	0.016876	1.437857	1.581821
N	-0.34264	-1.137368	0.956514
O	-0.585608	-0.857678	2.122221
O	-0.252429	-2.272844	0.501482
C	-0.822774	0.902593	-2.230297
H	-1.060194	0.623047	-3.259817
H	-1.705298	1.331321	-1.759416
H	0.007726	1.61379	-2.247675
C	-1.58869	-1.304674	-1.563871
N	-2.268236	-2.150921	-2.021572
F	-2.587414	0.0	0.0
