18

C	0.0	0.0	0.0
C	-0.26322	0.128159	-1.545962
Br	1.949531	0.0	0.0
H	0.277447	1.05302	-1.784871
C	-0.621917	1.1067	0.79538
H	-0.295167	1.060392	1.834151
H	-1.720754	0.898123	0.684889
H	-0.336875	2.068217	0.36012
N	-0.449942	-1.338115	0.550675
O	-0.44432	-1.450861	1.770868
O	-0.740672	-2.216997	-0.24966
C	-1.673909	0.279222	-2.119465
H	-1.550223	0.448119	-3.196951
H	-2.278374	-0.59513	-1.911094
H	-2.206697	1.09404	-1.642996
C	0.424827	-0.916181	-2.322794
N	0.921751	-1.687508	-3.056809
F	-2.993127	0.0	0.0
