18

C	0.0	0.0	0.0
C	-0.655299	-0.110549	-1.373576
Br	1.931868	0.0	0.0
H	-1.771394	-0.068945	-1.004963
C	-0.467325	1.255167	0.716203
H	-0.042714	1.307031	1.716814
H	-0.149208	2.126596	0.142949
H	-1.558798	1.169439	0.738408
N	-0.370265	-1.214938	0.863589
O	-0.304756	-2.323623	0.341517
O	-0.62943	-1.014667	2.042064
C	-0.371919	-1.330758	-2.253618
H	-0.9135	-2.197106	-1.885482
H	0.694561	-1.570983	-2.290868
H	-0.711514	-1.113514	-3.269593
C	-0.351409	1.097153	-2.121608
N	-0.12682	2.047223	-2.779788
F	-2.870067	0.0	0.0
