18

C	0.0	0.0	0.0
C	-0.600725	-0.062751	-1.411674
Br	1.938964	0.0	0.0
H	-1.712485	-0.022236	-1.10378
C	-0.461803	1.252008	0.72325
H	-0.06292	1.277106	1.735539
H	-0.11049	2.127752	0.176347
H	-1.556432	1.175602	0.714748
N	-0.41212	-1.219136	0.821967
O	-0.435517	-2.305654	0.254769
O	-0.615032	-1.051517	2.01644
C	-0.277626	-1.256821	-2.316675
H	-0.549564	-1.000918	-3.344076
H	0.787797	-1.504395	-2.297219
H	-0.846636	-2.129913	-2.011212
C	-0.223053	1.160349	-2.105517
N	0.101377	2.12146	-2.700674
F	-2.813356	0.0	0.0
