12
Coordinates from ORCA-job run
  C   0.85907712220920     -0.42156983478814     -0.44864561023910
  C   -0.54867511953507      0.16227217767300     -0.25800102706967
  Cl  1.07150081994260     -0.87518998143913     -2.15312540103533
  H   -1.31099899709844     -0.57801136769460     -0.50740568265309
  H   1.59896617922660      0.34346431197505     -0.20775827542039
  C   1.03972028256501     -1.57814306467284      0.42217791224735
  N   1.16434597509509     -2.50224127248411      1.13664994652434
  C   -0.72953418831233      1.38612594361151     -1.02813872066479
  N   -0.87492476897559      2.37331563221258     -1.64747829027462
  N   -0.72149994281380      0.48705019013222      1.21399235922964
  O   -1.68654589505954     -0.01224095787300      1.77639293208827
  O   0.13656853275624      1.21516822334747      1.69933985726738
