12
Coordinates from ORCA-job run
  C   0.52251963289363     -0.88342707732676     -0.00475714719754
  C   -0.36880209056575      0.33933645634859     -0.24760141030679
  Cl  1.05045653585186     -0.93073748949089      1.68937693911157
  H   -0.71859625153661      0.31895497600121     -1.28552170839737
  H   -0.07934349167834     -1.77618334286995     -0.18578809126678
  C   1.66144362174704     -0.85331517012402     -0.91396275990377
  N   2.55969998948439     -0.82720136010840     -1.67055204863388
  C   0.30137029592657      1.59767865503931      0.03958957640059
  N   0.86963043367431      2.60686848927337      0.23339626105426
  N   -1.62902224697208      0.18233422318655      0.59360828452133
  O   -2.20412192526224     -0.88854129097172      0.44529064400377
  O   -1.96623450356279      1.11523293104271      1.30592146061461
