14

C	-0.416533	-0.055657	-1.481421
C	0.0	0.0	0.0
F	-0.087151	1.170027	-2.053535
H	1.097062	0.0	0.0
H	-1.504346	-0.154312	-1.583874
C	0.329327	-1.154234	-2.202544
H	0.128526	-1.090648	-3.274905
H	0.010443	-2.134768	-1.84166
H	1.397171	-1.033052	-2.005474
C	-0.460712	-1.196836	0.684555
N	-0.833812	-2.183198	1.205601
C	-0.509298	1.192058	0.658005
N	-0.896941	2.166715	1.189258
H	2.605689	0.0	0.0
