14

C	-0.297379	-0.023786	-1.494004
C	0.0	0.0	0.0
F	-1.671189	-0.141243	-1.746422
H	1.097297	0.0	0.0
H	0.176514	-0.926914	-1.891438
C	0.24562	1.207015	-2.176344
H	0.10694	1.129518	-3.258647
H	1.312025	1.282269	-1.938442
H	-0.27459	2.098026	-1.81774
C	-0.483984	-1.195489	0.668421
N	-0.852035	-2.188123	1.179906
C	-0.49092	1.202838	0.648658
N	-0.865017	2.201384	1.145343
H	2.566336	0.0	0.0
