14

C	-0.298603	-0.009219	-1.493448
C	0.0	0.0	0.0
F	-1.673705	-0.114234	-1.745164
H	1.097297	0.0	0.0
H	0.165971	-0.913711	-1.898706
C	0.254105	1.221561	-2.166517
H	-0.265168	2.113481	-1.808876
H	1.317722	1.292666	-1.917531
H	0.127372	1.148672	-3.24947
C	-0.485642	-1.200427	0.658613
N	-0.849488	-2.197955	1.163509
C	-0.489661	1.197849	0.659598
N	-0.871799	2.188741	1.164918
H	2.569947	0.0	0.0
