13

C	-0.525506	0.029147	-1.419456
C	0.0	0.0	0.0
F	-1.931009	-0.018993	-1.421914
H	1.092745	0.0	0.0
H	-0.345817	-0.941787	0.446754
C	-0.14549	1.266603	-2.119457
N	0.118889	2.261508	-2.685394
C	-0.066712	-1.140114	-2.194714
N	0.283264	-2.071482	-2.818619
N	-0.450228	1.198055	0.693182
H	0.349436	1.574762	1.189184
H	-1.182065	0.995312	1.357495
H	2.817092	0.0	0.0
