13

C	-0.502622	0.079239	-1.435111
C	0.0	0.0	0.0
F	0.015875	-0.957206	-2.187133
H	1.098954	0.0	0.0
H	-0.341534	0.897778	0.530047
C	-1.978305	-0.035033	-1.482633
N	-3.150552	-0.095259	-1.513622
C	-0.126844	1.358029	-2.075606
N	0.138727	2.375578	-2.597298
N	-0.478005	-1.247668	0.586308
H	-1.049681	-1.072556	1.399596
H	0.342388	-1.76559	0.883617
H	2.832657	0.0	0.0
