13

C	-0.526842	0.055097	-1.416407
C	0.0	0.0	0.0
F	-1.93034	-0.000418	-1.422817
H	1.092656	0.0	0.0
H	-0.344704	-0.948357	0.431232
C	-0.151285	1.310177	-2.092056
N	0.123423	2.30551	-2.649843
C	-0.062352	-1.095505	-2.216105
N	0.268896	-2.032722	-2.84142
N	-0.445475	1.186865	0.715379
H	0.360515	1.564077	1.1966
H	-1.171427	0.977051	1.383819
H	2.820189	0.0	0.0
