13

C	-0.520225	0.046439	-1.418698
C	0.0	0.0	0.0
F	-1.925037	-0.00819	-1.430462
H	1.092782	0.0	0.0
H	-0.342939	-0.948399	0.433974
C	-0.143816	1.298171	-2.100104
N	0.119237	2.287991	-2.673551
C	-0.057048	-1.110823	-2.208812
N	0.239542	-2.062704	-2.828967
N	-0.451458	1.188468	0.706255
H	0.341758	1.557309	1.216931
H	-1.19904	0.986475	1.353253
H	2.820889	0.0	0.0
