13

C	-0.51765	-0.032023	-1.420375
C	0.0	0.0	0.0
F	-1.922489	0.033933	-1.436402
H	1.092787	0.0	0.0
H	-0.341052	0.945007	0.441737
C	-0.041765	1.124771	-2.203414
N	0.290988	2.063828	-2.824698
C	-0.149106	-1.281957	-2.109312
N	0.110037	-2.277999	-2.672414
N	-0.453192	-1.19281	0.69803
H	-1.178167	-0.985548	1.369759
H	0.347629	-1.581847	1.183411
H	2.823041	0.0	0.0
