13

C	-0.521781	0.045763	-1.417651
C	0.0	0.0	0.0
F	-1.925803	-0.011716	-1.428055
H	1.092711	0.0	0.0
H	-0.342691	-0.947966	0.435188
C	-0.147779	1.296811	-2.101664
N	0.116522	2.284262	-2.678142
C	-0.057424	-1.111059	-2.207846
N	0.233865	-2.063203	-2.830198
N	-0.451616	1.189667	0.707081
H	-1.195319	0.982043	1.35692
H	0.343747	1.553919	1.219421
H	2.820764	0.0	0.0
