13

C	-0.506843	-0.055355	-1.433705
C	0.0	0.0	0.0
F	-0.010319	1.009861	-2.1577
H	1.098922	0.0	0.0
H	-0.343617	-0.90286	0.517271
C	-0.103447	-1.307094	-2.108403
N	0.192242	-2.30214	-2.65702
C	-1.984314	0.030041	-1.476269
N	-3.157999	0.061036	-1.508601
N	-0.49114	1.234518	0.609079
H	-0.958239	1.03439	1.482985
H	0.325226	1.797751	0.823955
H	2.835432	0.0	0.0
