14

C	0.0	0.0	0.0
C	-0.615481	0.002299	-1.36663
Br	1.953336	0.0	0.0
H	-0.38682	0.895634	-1.946234
H	-0.282032	-0.923884	0.50349
H	-1.729765	-0.073207	-1.123039
C	-0.497879	1.206061	0.770942
H	-0.174553	2.132604	0.287236
H	-1.595501	1.131712	0.764972
H	-0.123893	1.197647	1.796933
N	-0.218885	-1.152672	-2.182383
O	0.001789	-0.96438	-3.384145
O	-0.175284	-2.25591	-1.633713
H	-3.114059	0.0	0.0
