12

C	0.0	0.0	0.0
C	-0.510656	0.060877	-1.450934
Cl	1.788124	0.0	0.0
H	-0.199931	1.011985	-1.890199
H	-1.627912	0.034566	-1.233892
C	-0.466783	1.181232	0.734709
N	-0.60658	2.190476	1.320935
C	-0.438962	-1.226099	0.678055
N	-0.622655	-2.216702	1.282282
C	-0.041861	-1.047374	-2.257957
N	0.299932	-1.938781	-2.943935
F	-2.535831	0.0	0.0
