12

C	0.0	0.0	0.0
C	-0.516169	0.141054	-1.438661
Cl	1.78828	0.0	0.0
H	-0.229853	1.125052	-1.818621
H	-1.635078	0.082459	-1.21798
C	-0.448868	1.133927	0.820923
N	-0.630169	2.058799	1.526366
C	-0.42942	-1.257256	0.624476
N	-0.586471	-2.250961	1.232004
C	-0.025537	-0.89963	-2.320225
N	0.343092	-1.732683	-3.063299
F	-2.542643	0.0	0.0
