12

C	0.0	0.0	0.0
C	-0.284938	0.537218	-1.433795
Cl	1.791607	0.0	0.0
H	0.334634	1.430322	-1.557251
H	0.115394	-0.211765	-2.125127
C	-0.451543	0.922647	1.040424
N	-0.564592	1.726224	1.892061
C	-0.473141	-1.367126	0.198013
N	-0.570279	-2.532409	0.326997
C	-1.647619	0.881758	-1.845252
N	-2.466356	1.333448	-2.562207
F	-2.287613	0.0	0.0
