12

C	0.0	0.0	0.0
C	-0.465615	0.076193	-1.470674
Cl	1.788078	0.0	0.0
H	-1.57603	0.067921	-1.319679
H	-0.109982	1.01907	-1.894115
C	-0.478726	1.176239	0.731163
N	-0.608967	2.175105	1.33717
C	-0.461439	-1.226297	0.655887
N	-0.645557	-2.237479	1.228018
C	0.019874	-1.036901	-2.268508
N	0.385283	-1.917931	-2.954716
F	-2.484753	0.0	0.0
