12

C	0.0	0.0	0.0
C	-0.467392	-0.085751	-1.468037
Cl	1.788229	0.0	0.0
H	-0.130628	-1.040902	-1.879285
H	-1.578203	-0.06111	-1.31389
C	-0.446497	1.241583	0.640441
N	-0.606812	2.256952	1.20922
C	-0.472687	-1.174311	0.738383
N	-0.591463	-2.190717	1.318483
C	0.032902	1.009372	-2.279037
N	0.397587	1.885581	-2.972473
F	-2.482899	0.0	0.0
