12

C	0.0	0.0	0.0
C	-0.485454	0.116072	-1.458375
Cl	1.788308	0.0	0.0
H	-1.599114	0.089943	-1.275899
H	-0.153782	1.079001	-1.859161
C	-0.484126	1.149415	0.77946
N	-0.748638	2.030587	1.512625
C	-0.452426	-1.250465	0.632462
N	-0.624723	-2.272621	1.188915
C	-0.002828	-0.964078	-2.294689
N	0.365317	-1.827195	-3.004788
F	-2.508326	0.0	0.0
