12

C	0.0	0.0	0.0
C	-0.466514	0.108633	-1.46849
Cl	1.78817	0.0	0.0
H	-1.578315	0.078025	-1.316162
H	-0.12406	1.069974	-1.863247
C	-0.465927	1.166211	0.761762
N	-0.731102	2.074246	1.457384
C	-0.470231	-1.228273	0.648318
N	-0.686844	-2.217186	1.24943
C	0.046867	-0.972115	-2.294121
N	0.429884	-1.839049	-2.989312
F	-2.493905	0.0	0.0
