12

C	0.0	0.0	0.0
C	-0.280362	-0.259315	-1.50887
Cl	1.791249	0.0	0.0
H	0.216349	-1.20421	-1.755482
H	0.258454	0.518367	-2.059621
C	-0.470864	1.307945	0.444414
N	-0.553906	2.423867	0.808902
C	-0.455218	-1.090937	0.856692
N	-0.582529	-2.018004	1.568699
C	-1.655027	-0.313733	-2.013231
N	-2.48971	-0.430923	-2.837256
F	-2.291212	0.0	0.0
