18

C	-0.415493	0.001308	-1.454144
C	0.0	0.0	0.0
F	0.30199	0.853249	-2.178775
H	1.095819	0.0	0.0
N	-0.29235	-1.373107	-2.104467
O	0.771878	-1.623678	-2.648852
O	-1.261285	-2.120403	-1.984326
N	-1.883282	0.376317	-1.675406
O	-2.668494	0.188787	-0.755152
O	-2.15853	0.81622	-2.785203
C	-0.445634	-1.213518	0.804471
H	-0.043838	-1.095323	1.812835
H	-0.02391	-2.135983	0.400514
H	-1.531038	-1.307046	0.852468
N	-0.417947	1.298904	0.524125
H	0.355978	1.698289	1.037884
H	-1.216713	1.197911	1.135996
Cl	3.353484	0.0	0.0
