18

C	-0.396561	-0.008185	-1.474264
C	0.0	0.0	0.0
F	-0.160477	1.177482	-2.054481
H	1.094873	0.0	0.0
N	0.266777	-1.05885	-2.352874
O	0.138421	-0.868829	-3.559082
O	0.840196	-1.990776	-1.80749
N	-1.884656	-0.286717	-1.625962
O	-2.62937	0.682042	-1.510035
O	-2.226267	-1.457393	-1.759769
C	-0.53187	-1.195149	0.770654
H	-1.619258	-1.136732	0.894264
H	-0.276489	-2.139909	0.295988
H	-0.07549	-1.162062	1.759651
N	-0.427429	1.230673	0.647491
H	-1.398218	1.440563	0.443353
H	0.145702	1.998313	0.321838
Cl	3.366187	0.0	0.0
