18

C	-0.534572	-0.016473	-1.413223
C	0.0	0.0	0.0
F	-1.880283	-0.032237	-1.4331
H	1.090182	0.0	0.0
N	-0.082155	1.207165	-2.199768
O	-0.954607	1.963708	-2.604593
O	1.127364	1.301239	-2.350247
N	-0.071588	-1.193723	-2.259151
O	0.973769	-1.74098	-1.933302
O	-0.788822	-1.470958	-3.21889
C	-0.49564	-1.224689	0.763443
H	-0.098477	-2.14752	0.337518
H	-0.134627	-1.155596	1.791255
H	-1.58946	-1.27224	0.775546
N	-0.438607	1.279889	0.549442
H	0.260819	1.608483	1.202639
H	-1.326454	1.187436	1.028033
Cl	3.440368	0.0	0.0
