18

C	-0.433126	-0.009099	-1.446683
C	0.0	0.0	0.0
F	0.068849	1.049169	-2.094929
H	1.099396	0.0	0.0
N	-0.033014	-1.225168	-2.268745
O	-0.386473	-1.17535	-3.44234
O	0.597835	-2.122005	-1.731078
N	-1.945576	0.044594	-1.597428
O	-2.449324	1.085177	-1.985921
O	-2.528528	-0.989462	-1.283329
C	-0.523194	-1.133347	0.863063
H	-0.332534	-2.111072	0.428389
H	0.011692	-1.083054	1.815408
H	-1.593672	-1.016001	1.048597
N	-0.518425	1.280487	0.520945
H	0.1161	2.01511	0.226449
H	-0.440718	1.236323	1.530557
Cl	3.367842	0.0	0.0
