18

C	0.0	0.0	0.0
C	-0.484176	-0.040991	-1.44013
F	1.411922	0.0	0.0
H	-1.579902	0.040578	-1.381049
H	-0.095861	0.853934	-1.94371
C	-0.47055	1.278497	0.659632
H	-0.114543	2.149087	0.099072
H	-1.568382	1.258117	0.666971
H	-0.088284	1.340348	1.683712
C	-0.472013	-1.200693	0.791611
H	-0.064555	-2.1286	0.381751
H	-1.569301	-1.208807	0.747281
H	-0.144787	-1.112655	1.832638
C	-0.069433	-1.288703	-2.214042
H	-0.61232	-2.168744	-1.862928
H	1.003095	-1.477966	-2.112824
H	-0.294819	-1.17221	-3.278723
H	-3.447747	0.0	0.0
