15
Coordinates from ORCA-job run
  C   -0.80568087034167     -0.20427501953712     -0.53634382055539
  C   0.70988595248609     -0.00807624726392     -0.39588760720173
  Cl  -1.11758871912465     -1.20559944527349     -1.99018476679961
  H   1.17184789307089     -1.00230871548947     -0.38268892411424
  H   -1.27357866678508      0.76321098358926     -0.73621655824576
  C   -1.43845305607616     -0.86471599116611      0.67426965334423
  H   -0.93654178493014     -1.80770291619595      0.90430017163128
  H   -2.48989850962268     -1.07697231920982      0.47773382834776
  H   -1.38354269848159     -0.20899793280174      1.54530954366884
  C   1.08951680638331      0.75333819506621      0.88053521004324
  H   0.55236559023887      1.70319213894474      0.93796325967474
  H   0.85972001817231      0.16284092992372      1.76748579823589
  H   2.15881187278618      0.96977189619931      0.88415336310193
  C   1.23589792935857      0.70638727262661     -1.56297933922613
  N   1.66523824286573      1.32090717058777     -2.46644981190507
