15
Coordinates from ORCA-job run
  C   -0.85611475779064     -0.13007756154661     -0.47328410705724
  C   0.67213553777986      0.01105292055789     -0.46097758655077
  Cl  -1.33769325300195     -0.98331226096590     -1.97436079838607
  H   1.09826229774608     -0.99119687635492     -0.58789263826121
  H   -1.30516607365909      0.86430373735957     -0.53995910744018
  C   -1.39746148860969     -0.88211440780665      0.72813023895267
  H   -0.91210635979539     -1.85650439698073      0.82321138151330
  H   -1.23735618954119     -0.31229187671096      1.64542017250834
  H   -2.46977754440090     -1.04487336164899      0.61478832422450
  C   1.19602077233796      0.63239932553915      0.83993193821317
  H   0.69767484049349      1.58363450287031      1.04223017519164
  H   1.03275079486163     -0.03855621356327      1.68339086516670
  H   2.26728713396911      0.82300349668227      0.76012048595170
  C   1.10929894615754      0.82192600796902     -1.60135802098472
  N   1.44124534345318      1.50260696459981     -2.49839132304183
