15
Coordinates from ORCA-job run
  C   -0.65692560951091     -0.63029615860561     -0.57772744928919
  C   0.70737959322068      0.08328738172614     -0.58864995613865
  Cl  -0.37787784740159     -2.39587219508168     -0.42517005606496
  H   1.31273401463812     -0.38491718619781     -1.37286561544089
  H   -1.11714178024564     -0.49842540154453     -1.55933386334046
  C   -1.60053810353536     -0.15814398919370      0.51046941104410
  H   -1.20890951748025     -0.38981261193306      1.50143007634179
  H   -2.56740700720609     -0.65210425665766      0.40621326466791
  H   -1.75399872358079      0.92136886138532      0.42949863051196
  C   1.47052781613248      0.01697899698793      0.73687095504096
  H   0.95123133714754      0.56920613800193      1.52084101528930
  H   1.58876641739282     -1.02079218403665      1.04991732738013
  H   2.46184002379244      0.45666403965811      0.61568961348302
  C   0.48917187352145      1.47935580174457     -0.97989147225325
  N   0.30314751311511      2.60250276374670     -1.26829188123177
