16

C	-0.527539	-0.011608	-1.442043
C	0.0	0.0	0.0
Br	0.05012	1.692729	-2.25539
H	1.093618	0.0	0.0
H	-0.335672	0.90206	0.521035
C	0.114369	-1.143536	-2.228951
H	-0.213651	-2.099529	-1.805514
H	1.202679	-1.082915	-2.151164
H	-0.184228	-1.104918	-3.279376
C	-2.047643	-0.041651	-1.506336
H	-2.413977	-0.973657	-1.064199
H	-2.39039	0.015516	-2.541906
H	-2.475225	0.79876	-0.953293
C	-0.492151	-1.171383	0.721066
N	-0.909061	-2.126397	1.263715
Br	3.548184	0.0	0.0
