16

C	-0.350896	0.008716	-1.487759
C	0.0	0.0	0.0
Br	-2.325436	0.145424	-1.709884
H	1.096893	0.0	0.0
H	-0.342414	0.918914	0.483838
C	0.280847	1.233538	-2.128282
H	1.362859	1.176171	-1.966797
H	-0.093814	2.152737	-1.671741
H	0.068594	1.263931	-3.199437
C	0.1193	-1.270995	-2.155972
H	-0.371118	-2.147155	-1.727937
H	1.199152	-1.352921	-1.989568
H	-0.082565	-1.242944	-3.229183
C	-0.518632	-1.152927	0.721984
N	-0.948954	-2.082587	1.296283
Br	3.519553	0.0	0.0
