16

C	-0.350428	-0.003398	-1.48791
C	0.0	0.0	0.0
Br	-2.325145	0.130223	-1.711769
H	1.096886	0.0	0.0
H	-0.342768	0.922605	0.476472
C	0.280872	1.216845	-2.137899
H	0.069727	1.238463	-3.20967
H	1.363003	1.162151	-1.974801
H	-0.094965	2.13929	-1.688962
C	0.120873	-1.288283	-2.145519
H	-0.369168	-2.161224	-1.710292
H	1.200868	-1.367909	-1.977995
H	-0.080615	-1.269501	-3.219148
C	-0.518035	-1.146966	0.732035
N	-0.93987	-2.068079	1.32596
Br	3.518874	0.0	0.0
