18

C	0.0	0.0	0.0
C	-0.484614	0.014037	-1.455372
F	1.400904	0.0	0.0
H	-1.580044	-0.029379	-1.394999
N	-0.467229	1.158035	0.679454
H	0.084829	1.958307	0.409395
H	-0.403195	0.99145	1.674542
N	-0.481531	-1.134422	0.725462
H	-0.246848	-1.993545	0.247349
H	-1.502296	-1.040761	0.752924
C	0.089437	-1.098528	-2.318059
H	-0.175718	-2.071621	-1.902428
H	1.177571	-1.02109	-2.369346
H	-0.330486	-1.041397	-3.322403
N	-0.195045	1.302905	-2.175831
O	-0.807442	1.475457	-3.228951
O	0.639081	2.089977	-1.726047
Br	-3.83668	0.0	0.0
