13

C	-0.479723	-0.07926	-1.444898
C	0.0	0.0	0.0
F	-0.243747	1.149365	-2.064702
H	1.093838	0.0	0.0
H	-1.565461	-0.231571	-1.488195
H	-0.310778	-0.909596	0.52613
C	0.268725	-1.152178	-2.203215
H	0.04451	-2.139512	-1.789042
H	-0.021721	-1.139153	-3.256063
H	1.342333	-0.973553	-2.113373
C	-0.556772	1.151056	0.699066
N	-1.053555	2.055443	1.257943
Br	3.58623	0.0	0.0
