13

C	-0.486921	-0.070711	-1.446374
C	0.0	0.0	0.0
F	-0.234902	1.175627	-2.025794
H	1.093784	0.0	0.0
H	-1.573692	-0.20729	-1.486732
H	-0.347807	0.929952	0.457093
C	0.240366	-1.129737	-2.241172
H	0.005999	-2.122079	-1.848914
H	-0.057954	-1.087823	-3.291263
H	1.31692	-0.963725	-2.154995
C	-0.511072	-1.135135	0.757669
N	-0.949451	-2.066152	1.322996
Br	3.588883	0.0	0.0
