13

C	-0.425311	0.013841	-1.456738
C	0.0	0.0	0.0
F	-1.823256	0.131508	-1.544472
H	1.093913	0.0	0.0
H	-0.168264	-0.942348	-1.921679
H	-0.333487	0.92356	0.48335
C	0.217605	1.160599	-2.201007
H	-0.083464	1.14889	-3.251353
H	1.305127	1.078708	-2.125082
H	-0.094177	2.110521	-1.759443
C	-0.541068	-1.142263	0.726039
N	-0.997181	-2.061383	1.296175
Br	3.555535	0.0	0.0
