13

C	-0.487389	-0.064483	-1.447058
C	0.0	0.0	0.0
F	-0.281916	1.197151	-2.011881
H	1.093809	0.0	0.0
H	-1.568826	-0.239413	-1.486341
H	-0.350868	0.926528	0.461621
C	0.272468	-1.089795	-2.253967
H	1.341535	-0.885543	-2.175686
H	-0.037644	-1.051748	-3.30046
H	0.081836	-2.092769	-1.865617
C	-0.507719	-1.141383	0.751335
N	-0.945734	-2.077129	1.309025
Br	3.578349	0.0	0.0
