13

C	-0.509285	0.005462	-1.438798
C	0.0	0.0	0.0
F	-0.16927	-1.228042	-1.995907
H	1.093035	0.0	0.0
H	0.029622	0.767598	-2.009369
H	-0.345587	-0.915543	0.490163
C	-2.00671	0.174051	-1.576767
H	-2.325681	1.151244	-1.210045
H	-2.521683	-0.601486	-1.003483
H	-2.293882	0.078309	-2.626304
C	-0.495552	1.158305	0.734482
N	-0.914368	2.104691	1.289216
Br	3.563939	0.0	0.0
