12

C	-0.190196	0.273211	-1.510244
C	0.0	0.0	0.0
Br	-0.517475	-1.476924	-2.486686
H	1.093908	0.0	0.0
H	-1.103381	0.819834	-1.754399
H	-0.294728	0.922994	0.516534
N	0.964506	0.910979	-2.023932
H	0.828793	1.903006	-2.139307
H	1.78775	0.683025	-1.431554
C	-0.675618	-1.122063	0.604832
N	-1.238974	-2.023446	1.107477
F	2.65292	0.0	0.0
