12

C	-0.334656	0.031791	-1.451837
C	0.0	0.0	0.0
Br	-2.368963	0.865129	-1.701646
H	1.094645	0.0	0.0
H	0.189538	0.829974	-1.96793
H	-0.318863	0.920954	0.489044
N	-0.234834	-1.172392	-2.107887
H	-0.447859	-1.13273	-3.09157
H	-0.702525	-1.936997	-1.641777
C	-0.562777	-1.149721	0.670509
N	-0.984758	-2.114605	1.194951
F	2.520411	0.0	0.0
