12

C	-0.037406	-0.011745	-1.525932
C	0.0	0.0	0.0
Br	-1.855198	-0.254165	-2.291099
H	1.096319	0.0	0.0
H	0.263642	0.98131	-1.861513
H	-0.434491	0.898675	0.440702
N	0.878635	-0.9743	-2.093763
H	0.58529	-1.901508	-1.799164
H	1.755486	-0.772452	-1.579036
C	-0.525405	-1.204296	0.603339
N	-0.94077	-2.191295	1.088812
F	2.620229	0.0	0.0
