16
Coordinates from ORCA-job run
  C   0.66577742704064      0.52022698471207     -0.25396052001337
  C   -0.77955831441391      0.35205031270134      0.20552991899997
  F   0.84063229524174      1.74667317180272     -0.74651221936574
  H   -1.15397115795236      1.32755859082537      0.51560545583193
  N   1.10527941352746     -0.49444694763898     -1.29134160370691
  O   0.57718176780952     -1.59435380838638     -1.20184561547707
  O   1.95761811731361     -0.11409059922582     -2.07592519261643
  N   1.61198292670231      0.40224329419332      0.94128934342088
  O   1.28942736907816      1.13006980415097      1.87056065505865
  O   2.58906712351057     -0.31878155123144      0.83564043559784
  N   -0.98719685624273     -0.58016427884676      1.35782692195116
  O   -0.16440252957122     -1.47046379934413      1.53335836911077
  O   -2.00408175508076     -0.35776779188838      2.00378263750784
  N   -1.64661987433495     -0.09789331602748     -0.95548568002731
  O   -1.44882768155864      0.54006543359735     -1.98041159664971
  O   -2.45330827106944     -0.98892549939377     -0.76111130962250
