16
Coordinates from ORCA-job run
  C   0.79326295796904      0.01302093644426      0.30098760373053
  C   -0.70844413525706      0.18168381680745      0.45157533493081
  F   1.30076978716657     -0.30958440540298      1.49097329831424
  H   -0.89227261569542      0.99874915518716      1.15024311041292
  N   1.43226593615250      1.34837022510752     -0.10291002959344
  O   2.09358429017997      1.37636799028567     -1.12741239891065
  O   1.22813857875121      2.24245357879107      0.70359963182969
  N   1.21027958742772     -1.01491447417036     -0.72711246394034
  O   2.18594587482731     -1.68892834524867     -0.45032210474600
  O   0.53467848162585     -1.01806900614654     -1.74552127996772
  N   -1.32595207956213     -1.05519098436767      1.01943644485792
  O   -0.80458255278386     -2.12433312012484      0.72202870879497
  O   -2.31862477057211     -0.86884049747625      1.71177855530476
  N   -1.41167539385436      0.53823619367432     -0.83765859953078
  O   -0.99064324172020      1.56067247139327     -1.35784945337510
  O   -2.32573070465504     -0.17969353475340     -1.20283635811180
