16
Coordinates from ORCA-job run
  C   0.61284506479038      0.44656540941895     -0.40641981647313
  C   -0.73579965694897     -0.26315792010436     -0.34439923755910
  F   0.53056057510115      1.51400160161074     -1.19840081157857
  H   -0.97342735067021     -0.67175817348783     -1.32598866035220
  N   1.66939190355790     -0.48588782250476     -0.97914027716782
  O   2.61980492666702      0.06220164789852     -1.51139590577033
  O   1.45652445204780     -1.68422425562056     -0.83996304734854
  N   1.11487631296028      0.93792599440812      0.94882328029580
  O   0.38284236145803      1.78059231036538      1.44539270132090
  O   2.17070510014532      0.49199656577601      1.36265658429033
  N   -1.85315561624381      0.71089746010060     -0.00113409299095
  O   -2.17751915389045      1.44513374614262     -0.92227026651529
  O   -2.32111287947388      0.65154255480662      1.12494459589512
  N   -0.79903360943655     -1.38181860093667      0.64307840344460
  O   -0.12265660957022     -1.27428150663569      1.65727846632615
  O   -1.57684582049380     -2.27972901123769      0.34893808418304
