16
Coordinates from ORCA-job run
  C   0.62088700470295      0.55662276280228     -0.21261027782964
  C   -0.77484935487851      0.20660327572334      0.29317191236348
  F   0.57688382685267      1.67336308680379     -0.93675069212754
  H   -1.10620838456208      0.97147775202929      0.99467456152574
  N   1.24547964821704     -0.52012775143228     -1.09614367889026
  O   2.28507615404441     -1.03391623376361     -0.72178196240490
  O   0.61755873315378     -0.70636738331714     -2.12743904781159
  N   1.55945180336625      0.79171797088670      0.96109903925218
  O   2.51631979035774      1.51191094877024      0.73151301942322
  O   1.25824701153910      0.22959214353654      2.00703448910869
  N   -0.86756758883466     -1.11531322653425      0.98197879075627
  O   -1.73333293023812     -1.18255285726817      1.84434953908846
  O   -0.12237432003932     -2.00463250805511      0.59281903779987
  N   -1.78488217645099      0.19892046893113     -0.84474599056427
  O   -2.10511216623284      1.31079809850327     -1.23715735964342
  O   -2.18457705099742     -0.88809654761601     -1.23101138004630
