13

C	0.0	0.0	0.0
C	-0.427703	-0.090764	-1.459651
Br	1.928529	0.0	0.0
H	0.439961	-0.021134	-2.12138
H	-0.351063	0.92346	0.441621
H	-0.360961	-0.856603	0.554503
N	-1.239194	1.108668	-1.934845
O	-0.851818	2.164412	-1.44565
O	-2.031852	0.985779	-2.846931
N	-0.996739	-1.43684	-1.848039
O	-1.296545	-1.56282	-3.030832
O	-0.976972	-2.335302	-1.018024
Cl	-3.041847	0.0	0.0
