12
Coordinates from ORCA-job run
  C   0.73415034048920     -0.51799988849294     -0.22777287195682
  C   -0.74454743754096     -0.52171392223750      0.08910579377928
  F   1.24693229848919     -1.75345915365359     -0.01701651072908
  H   -0.94031470401757     -0.49749771793632      1.15860509824006
  H   0.93654540854007     -0.19621225475950     -1.24916119341875
  H   -1.18750389069115     -1.41322544052410     -0.35861169462696
  N   1.44949932019445      0.46117704803427      0.67536355588619
  O   2.53575359196796      0.13629787580769      1.12730271369265
  O   0.86269275275097      1.52803262428723      0.83014959414377
  N   -1.44664808881411      0.64895670181225     -0.51883833614324
  O   -1.11442992632888      0.96031691936879     -1.65830532985533
  O   -2.33212966503916      1.16732720829372      0.14817918098824
