12
Coordinates from ORCA-job run
  C   0.67198080687720     -0.63466115863769      0.16076574769661
  C   -0.79522999266266     -0.37503663735192      0.37788486882148
  F   1.14162246008264     -1.33825931201801      1.23257926642222
  H   -1.33679320179254     -1.31993764187276      0.44155928769089
  H   0.91165460721361     -1.16112722768704     -0.75920487715728
  H   -0.95687939713964      0.20561808288696      1.28291641802890
  N   1.45093188700167      0.65693161066969      0.12179077986534
  O   0.99449820440606      1.60660141747767      0.75205748725133
  O   2.50944339328007      0.62188204133537     -0.49514970353711
  N   -1.38188927097605      0.39550680881251     -0.75572013594566
  O   -0.68068181396755      0.54980556635265     -1.75471771180022
  O   -2.52865768232280      0.79367645003258     -0.60476142733650
