12
Coordinates from ORCA-job run
  C   0.46705074400510     -0.31009733468844      0.51613214511862
  C   -0.46311043762788      0.34128022643692     -0.47565559224640
  F   0.15667395708037      0.07017523556456      1.77403168725805
  H   -0.50789232085219      1.41863011488198     -0.32252371950671
  H   0.46909885229889     -1.39635731940578      0.44292880882677
  H   -0.16986755934801      0.09756049110746     -1.49643425372399
  N   1.87290247824824      0.14773194658265      0.18864549736146
  O   2.29088885710510     -0.25273314432638     -0.89298235702809
  O   2.45296831851267      0.85623904801410      0.99623332701300
  N   -1.84831844832356     -0.19003442322221     -0.28003562337797
  O   -1.95401725300462     -1.40367789706136     -0.12865807854528
  O   -2.76537718809411      0.62128305611650     -0.32368184114947
