12
Coordinates from ORCA-job run
  C   0.45403890741565     -0.26425904725004      0.55208002464434
  C   -0.45240502793662      0.29824234559956     -0.51333085861151
  F   0.09058419086292      0.19229858054234      1.76974611970375
  H   -0.11751077104991     -0.00639817638172     -1.50450707533530
  H   0.48067131834105     -1.35263905436294      0.55266654628887
  H   -0.52468482215699      1.38210196223376     -0.43505741993726
  N   1.86133931624534      0.20193602884166      0.24362184469395
  O   2.39703293576260      0.97692194814288      1.02021580723049
  O   2.32667708987382     -0.26178677426883     -0.79249676270155
  N   -1.83269659436787     -0.25005809203422     -0.33039620247006
  O   -1.91921010003332     -1.45296676209928     -0.10115190301663
  O   -2.76383644295667      0.53560704103685     -0.46039012048908
