12
Coordinates from ORCA-job run
  C   0.50257250280308      0.34951840644438      0.45402650701353
  C   -0.48533130620415     -0.30543364255294     -0.47772803178297
  F   0.51680932073569      1.68607046569719      0.26284338394452
  H   -0.32019082166407      0.00701577530386     -1.50788084446286
  H   0.30976553843093      0.12284777521850      1.50129252649842
  H   -0.44524811252968     -1.39006557566292     -0.38101437421976
  N   1.87104585749259     -0.21514963849147      0.13532648920531
  O   2.71026307235588      0.53495494427840     -0.33762327499952
  O   1.99239075424095     -1.40872775495525      0.39168098990981
  N   -1.87228007251741      0.11585745863956     -0.10645873781742
  O   -2.14521003717184      0.11144999504620      1.09042053425090
  O   -2.63258669597197      0.39466179103448     -1.02588516753996
