12
Coordinates from ORCA-job run
  C   0.71671797331865     -0.63255215205604     -0.02948197861163
  C   -0.79308730645103     -0.54382901177394      0.01506091180327
  F   1.10264556862491     -1.76734359041272      0.60165155807839
  H   -1.21880362473918     -1.41501013168385     -0.48222149508669
  H   1.12443799063926     -0.59471125671569     -1.03779385732007
  H   -1.14118661244992     -0.45926489952123      1.04278398664361
  N   1.28435260326008      0.55061223980732      0.71655670956721
  O   1.62510310075314      1.50109005081578      0.01791077146141
  O   1.30831000728592      0.47341486551323      1.93741801652075
  N   -1.23407943711106      0.66501995048238     -0.73845928355220
  O   -1.01331201067504      0.65366619255983     -1.94654635743891
  O   -1.76209825245573      1.56890774298493     -0.09787898206514
