12
Coordinates from ORCA-job run
  C   0.55549182149505     -0.37465059674966      0.36447055750653
  C   -0.55224454705922      0.39026070404231     -0.31438716352640
  F   0.31166422880269     -0.48269273654235      1.68809974019410
  H   -0.32273461076400      0.54765969895561     -1.36797512370762
  H   0.71611943686036     -1.36044774213509     -0.06867915985242
  H   -0.74532424572017      1.33394032033802      0.19390497856937
  N   1.83787650181830      0.40309937945095      0.15480379689407
  O   2.21142361001723      0.44797678851289     -1.01288343094428
  O   2.37265994408177      0.90909579561811      1.12885566945539
  N   -1.81607292289028     -0.40844977529306     -0.25676510627123
  O   -2.84654707957413      0.20181790089698      0.00203673571072
  O   -1.72131213706759     -1.60560973709471     -0.51148149402824
