14
Coordinates from ORCA-job run
  C   0.77398672721131     -0.22154917649892     -0.37834376508153
  C   -0.70903130004170      0.15647523378561     -0.46901064547838
  H   1.32054611912629      0.39746686226306     -1.09561222056459
  H   -1.02241851802636     -0.17292185925826     -1.46663063022204
  C   1.00479019010475     -1.63608584735690     -0.64472463178570
  N   1.14609854791189     -2.77497145760445     -0.89419829294224
  N   1.38647708871471      0.12181792477970      0.97008534050278
  O   0.67360080173894      0.68715983184628      1.79113673689778
  O   2.56364929711377     -0.17858470926906      1.10299641988542
  N   -0.85268525774840      1.60104937700266     -0.42036508225233
  H   -0.80991923492385      1.91888092553192      0.53975183263148
  H   -1.74844625320950      1.86967453554249     -0.80799950466210
  C   -1.51619835774762     -0.60003866128533      0.50740157920579
  N   -2.20944985022425     -1.16937297947881      1.26551286386566
