14
Coordinates from ORCA-job run
  C   0.77000855726613     -0.34235930064118     -0.29997365588186
  C   -0.51178984511905      0.49275246019424     -0.44464366059042
  H   1.26566265507058     -0.47648051629434     -1.26543628181074
  H   -0.20887475695784      1.45338040250745     -0.86858302111069
  C   0.49139416220257     -1.63221430727873      0.31743380195836
  N   0.21962923338279     -2.67971984853153      0.77809932203994
  N   1.73493970640782      0.45936304582025      0.55747860056621
  O   1.92431324291542      1.60734417020153      0.17978964542938
  O   2.25668124902495     -0.09892627024811      1.51108560519288
  N   -1.05504688299363      0.73293641213714      0.87804947586471
  H   -1.50037709637342     -0.10056196971679      1.25173065244056
  H   -1.73842260730746      1.47945908709850      0.85422118450085
  C   -1.43028296012512     -0.17847867860784     -1.38394363951550
  N   -2.21883465739375     -0.71749468664061     -2.06530802908367
