14
Coordinates from ORCA-job run
  C   0.72292680984909     -0.32108562731587     -0.41312229100222
  C   -0.55626109264540      0.52732287657872     -0.31916588096773
  H   1.08915121846694     -0.36065307496355     -1.44324894304142
  H   -0.28917297728293      1.52523695045530     -0.67697943721505
  C   0.50965033281879     -1.66168443343450      0.11516289488486
  N   0.26478022660238     -2.73715518111185      0.51850216953570
  N   1.79517765251466      0.40484859994720      0.37990048890462
  O   2.01984597013555      1.54635076383745     -0.00219038291555
  O   2.33986982671062     -0.18805753455943      1.29814249270046
  N   -0.94152099532047      0.62533225632511      1.07271245234552
  H   -1.57636707922598      1.39981501291063      1.21633312301998
  H   -1.39363961495203     -0.22451433031674      1.39086321176272
  C   -1.57353784031349     -0.03888189990510     -1.22524742024447
  N   -2.40990243735774     -0.49587437844738     -1.91266247776742
