14
Coordinates from ORCA-job run
  C   0.80689927059790     -0.26104593723642     -0.28288142429049
  C   -0.48623578145842      0.56728407205848     -0.36511771802582
  H   1.39434415662913     -0.15737531230505     -1.19983689345984
  H   -0.17889533058927      1.60287536886188     -0.53168369582363
  C   0.52481704871935     -1.66419015086859     -0.00988611774847
  N   0.23110057870441     -2.78847921344473      0.15900266264070
  N   1.65018691825853      0.34668239694529      0.82229381955894
  O   1.92741696761586      1.52725816705640      0.65323837945115
  O   1.98883369079224     -0.36745483652372      1.75350006106896
  N   -1.16151597105217      0.49276439571631      0.91367033119788
  H   -1.64337639616770     -0.39255361451828      1.02445615640022
  H   -1.83789205314819      1.23918208337674      1.00829685414267
  C   -1.27601981500239      0.11557136775798     -1.52643685509091
  N   -1.94066328389926     -0.26051878687629     -2.41961556002136
