14
Coordinates from ORCA-job run
  C   0.72980941635619      0.07304653472842     -0.07189048913534
  C   -0.82044790438099     -0.00953566573611      0.04751263456308
  H   1.08006006927347      1.09845098099184      0.06427053873370
  H   -1.07809164576312     -1.07327091915725      0.03130843645359
  C   1.14642661978003     -0.45974170613078     -1.36186085039536
  N   1.42181299756407     -0.87335724843683     -2.42616541711946
  N   1.35029844659310     -0.74170478273938      1.03743734526167
  O   2.01688320524457     -0.13078841373981      1.86426461844384
  O   1.09330991357786     -1.94084115944737      1.02540396344984
  N   -1.54911675975815      0.65893638213612     -1.00233417718922
  H   -1.31716766196486      1.64213896907985     -1.06297155922331
  H   -1.39661577614258      0.21332265000065     -1.89816483493701
  C   -1.20241005364974      0.53910117155479      1.35524507470951
  N   -1.47375086672984      1.00324320689585      2.39894471638447
