14
Coordinates from ORCA-job run
  C   0.72570276939359     -0.25810721718075     -0.45214173086302
  C   -0.54741070587338      0.57845671011729     -0.24063490611863
  H   1.11103665697403     -0.13943016417593     -1.46918265923843
  H   -0.26643533832801      1.61866584106034     -0.42492129276786
  C   0.49027407351194     -1.66005153052692     -0.13602940919922
  N   0.21480541771796     -2.77177294741221      0.12538243054229
  N   1.79521712695649      0.32328910529600      0.46028718072671
  O   2.02218877223773      1.51267639264387      0.27720647602562
  O   2.33636336392964     -0.41836919582246      1.26539005246221
  N   -0.95521284903051      0.44748983342577      1.14261997415844
  H   -1.42262474733980     -0.43676352980705      1.30661424951494
  H   -1.58361135912701      1.19581153146845      1.40411702804248
  C   -1.55187186161111      0.17671029284488     -1.24348596926214
  N   -2.36842131941158     -0.16760512193128     -2.01522142402339
