14
Coordinates from ORCA-job run
  C   0.84010915220047     -0.11521758922273     -0.56051095954710
  C   -0.60088480303392      0.23487569893679     -0.14117278115180
  F   0.80836376608177     -0.72862291418738     -1.80415444426293
  H   -0.93837336769001      1.00107055138357     -0.85556700788088
  C   1.64809139077071      1.10837797924907     -0.66269201219586
  N   2.27720024447077      2.09101595366941     -0.79223289091503
  C   1.43871106450306     -1.04320335115705      0.41144032272811
  N   1.91372739439415     -1.77230468036650      1.19938752553501
  N   -0.52530841409115      0.82964389354084      1.16468717104346
  H   -1.26037123592627      1.50239527914109      1.32564501785562
  H   -0.55632365669858      0.10883497998897      1.87636136984135
  N   -1.36207027786595     -1.00003802318160     -0.16548981416748
  H   -1.36082691267595     -1.40753614723284     -1.09349623496016
  H   -2.32204434443911     -0.81029163056165      0.09679473807768
