14
Coordinates from ORCA-job run
  C   0.88313831297767     -0.28850350379160     -0.22721385256140
  C   -0.45032029866594      0.35964453933389      0.18279126130887
  F   0.60598868896247     -1.60119793599252     -0.59676703974269
  H   -0.22778265352646      1.39149785007692      0.47215590130093
  C   1.48357603798409      0.40539771296834     -1.37601554619922
  N   1.99746272439985      0.96872249990061     -2.26856378087060
  C   1.83500113501076     -0.30763648225679      0.89320082176457
  N   2.62317917263851     -0.29847600494948      1.76308476406310
  N   -0.90838874954768     -0.34382684815371      1.36465144533185
  H   -1.21293738711935     -1.27977158140344      1.12475665868636
  H   -1.68172220837769      0.14676049587185      1.79459673926217
  N   -1.27556761254633      0.40097175404931     -1.00820991600581
  H   -1.58129591233856     -0.53107965636575     -1.26103094946765
  H   -2.09233124985134      0.97849716071238     -0.85743650687047
