14
Coordinates from ORCA-job run
  C   0.89629569932126     -0.32420759295392     -0.24523262722815
  C   -0.45759525507854      0.23913827941091      0.24958386756883
  F   0.74384344345641     -1.65694173934365     -0.55179124811552
  H   -0.24750833300066      1.23790679476624      0.66114500250076
  C   1.34255439985672      0.39531278087162     -1.45061099122745
  N   1.64822036774799      1.01360004194048     -2.40097759159627
  C   1.90747577561610     -0.18809371570252      0.81512906128273
  N   2.72017634385134     -0.04631226135968      1.65018417234412
  N   -0.87162827357911     -0.60747026951638      1.33369449066227
  H   -1.24400727706025     -1.47553104146701      0.96908275856004
  H   -1.56163266479018     -0.15571561510219      1.91713311208999
  N   -1.37934339016683      0.23073930598052     -0.87581800549097
  H   -1.17386187959722      0.97030220064047     -1.53849394616935
  H   -2.32198895657704      0.36827283183512     -0.53402805518104
