14
Coordinates from ORCA-job run
  C   0.82301621680612     -0.44444933687152     -0.39915877870728
  C   -0.58848008188752     -0.23613321082888      0.18335413265484
  F   0.73552880990010     -1.29036478714973     -1.49458917487860
  H   -0.89418221626504     -1.21786989655761      0.57575655660782
  C   1.38427879208282      0.84310249716355     -0.83672033260271
  N   1.82805894871934      1.87760871302554     -1.16980524148536
  C   1.69676988956224     -1.06761230198432      0.60524909290534
  N   2.37734810614635     -1.61177532631141      1.39188634381584
  N   -1.41907569107841      0.27786617743774     -0.88956298309890
  H   -1.45827471153646     -0.37683849557620     -1.66224181545819
  H   -2.36160422494322      0.42175861465170     -0.54737068936450
  N   -0.45688871039363      0.67562476936222      1.28627494593277
  H   -0.51656034663074      1.63147640438650      0.95469915427492
  H   -1.15093478048193      0.51760617925242      2.00222878940402
