14
Coordinates from ORCA-job run
  C   0.92190846060110      0.20566711147899     -0.14693341159045
  C   -0.50631390413337     -0.32610302897430      0.06069810892750
  F   0.87043055125470      1.58926913533598     -0.00640308781876
  H   -0.46076435183739     -1.41400937917629     -0.05072423523852
  C   1.84504622131083     -0.33386023209768      0.86225330793277
  N   2.60598783371633     -0.78180383127199      1.63575331596955
  C   1.41933998166557     -0.11035635912244     -1.49393676404862
  N   1.84970057234054     -0.38452203571613     -2.55111245951555
  N   -1.30753845522843      0.19841510951067     -1.02779510182023
  H   -2.21344010799372     -0.25181595150245     -1.05281020035498
  H   -1.44613063738057      1.19584125080542     -0.91674818401524
  N   -0.86244428205045     -0.03521651026079      1.43562398912686
  H   -1.71762118637577     -0.51213549276244      1.69097812074487
  H   -0.99816069588937      0.96063021375343      1.56315660170079
