14
Coordinates from ORCA-job run
  C   0.92897066521378      0.11645619350979     -0.19455309238881
  C   -0.53554935700655     -0.27218795680293      0.06981042781393
  F   1.04680251104862      1.47822311037508      0.06678258501225
  H   -0.62320159712341     -1.34385829000032     -0.13491067857619
  C   1.84482254119946     -0.61259735722109      0.69507353157428
  N   2.59632361876239     -1.21141686091696      1.36936137490958
  C   1.30140715120517     -0.12579780187216     -1.59593153573018
  N   1.62919667491360     -0.34928039974352     -2.70072159552862
  N   -1.33672806315505      0.43391284261027     -0.91060915251694
  H   -2.28580303467217      0.08357459742285     -0.91520760542211
  H   -1.35941493452367      1.42509216827482     -0.70283316606807
  N   -0.76967400477203     -0.07018867467895      1.48631922929913
  H   -1.65767610999797     -0.46974973661787      1.76140369300516
  H   -0.77947606109217      0.91881816566100      1.70601598461658
