14
Coordinates from ORCA-job run
  C   0.99989329407336     -0.18001585788838      0.05234577096263
  C   -0.50846332775657     -0.20545114768213      0.36744147464033
  F   1.70248490761792     -0.04350989913586      1.24061881143951
  H   -0.67533531161111     -1.13272285119338      0.93624754338119
  C   1.40443418663478     -1.43913879419654     -0.58852146477389
  N   1.73456525722396     -2.46390702617233     -1.05634702903578
  C   1.31461263847439      0.96314354062756     -0.81814185605921
  N   1.55093999715559      1.87444174994266     -1.51951447151536
  N   -1.19858330443350     -0.30973258899421     -0.88851115767100
  H   -1.35286806529000      0.61314758424968     -1.27738703938649
  H   -2.07801123940489     -0.79837208222225     -0.80623020015799
  N   -0.81179726569133      1.01656207448372      1.08860189656836
  H   -0.28434668090438      1.06802215112156      1.95249868068352
  H   -1.79852508608823      1.03753314705990      1.31689904092417
