14
Coordinates from ORCA-job run
  C   0.90935648526155      0.29139444578235     -0.23842222960117
  C   -0.51032812273600     -0.25826507993625      0.03943890565460
  F   0.84350202884666      1.65930812266706     -0.37379868516622
  H   -0.44419598515738     -1.35290090746490     -0.05251556892143
  C   1.81414095416129     -0.03507195213675      0.87702664539076
  N   2.48620747159276     -0.33804881259975      1.79103674675819
  C   1.43085553716961     -0.28965549062177     -1.48571542859627
  N   1.85744707082557     -0.78082446319762     -2.46276401323943
  N   -1.34318097225131      0.22527455528623     -1.02619255195125
  H   -1.57223220953884      1.19899579686334     -0.86878468518870
  H   -2.19053632744556     -0.31821502940920     -1.11308359266986
  N   -0.91938285441263      0.21361388234375      1.35361196663766
  H   -0.44713743947828     -0.28702921503176      2.09852122831412
  H   -1.91551563683745      0.07042414745527      1.46164126257900
