14
Coordinates from ORCA-job run
  C   0.85230298741713     -0.39715378640276     -0.38493288038782
  C   -0.58173512722981     -0.26621963374146      0.16355857999398
  F   0.83216689715927     -1.22268504354880     -1.49947474691145
  H   -0.85113639207422     -1.26873888771487      0.52910979729267
  C   1.36465178129447      0.92350878350553     -0.78157938584061
  N   1.76806994847918      1.98464940451553     -1.08050472559807
  C   1.72841873055241     -1.00180174781353      0.62858420098612
  N   2.41508950811121     -1.53277769491161      1.41907374351227
  N   -1.40761010203218      0.23096765728379     -0.92075280732081
  H   -2.36545667250405      0.31877551881976     -0.60268849672785
  H   -1.39206856168732     -0.40638766305046     -1.70869204799484
  N   -0.52096651751111      0.62779208637584      1.28739461470243
  H   -1.22698196958331      0.42375852719258      1.97981671856466
  H   -0.61674451039169      1.58631247949046      0.97208743572934
