14
Coordinates from ORCA-job run
  C   0.80377437719488      0.04032121306823     -0.56268186402141
  C   -0.66032427849307      0.29058181931902     -0.09735028591343
  F   0.79499824847659     -0.06202134121300     -1.94325173338241
  H   -0.98604923794954      1.17693157766837     -0.66363486423514
  C   1.66646817607462      1.16471958413541     -0.17539385664280
  N   2.28561463291423      2.10506233979905      0.15996388108708
  C   1.30475003178288     -1.21802502299291      0.00386203756856
  N   1.66036536305696     -2.25464432823023      0.42552979541976
  N   -0.63128507421095      0.43878963488163      1.33809918092349
  H   -1.57965605989381      0.35822647818911      1.68379113977480
  H   -0.26189044519760      1.33984640215330      1.61596279482422
  N   -1.54745566328863     -0.79066949405737     -0.41775112730959
  H   -1.25382309978908     -1.64305741979998      0.04755202308440
  H   -1.59748697067746     -0.94706144292064     -1.41569712117754
