14
Coordinates from ORCA-job run
  C   0.92293631609119      0.20319615652525     -0.27440087724025
  C   -0.53555313896046     -0.19825438663808      0.05262247965026
  F   1.01843780478239      1.57563803002194     -0.29270490675284
  H   -0.60983989633272     -1.28039901729542     -0.13322165177890
  C   1.84289933122807     -0.32685505881053      0.74661014890672
  N   2.52499301539470     -0.78996949067439      1.58282936941801
  C   1.29623148621767     -0.32202323494074     -1.59735020927095
  N   1.60676361542496     -0.76997486905847     -2.63695531980489
  N   -1.36180993264984      0.47339718144672     -0.91179177070582
  H   -2.27210930697242      0.04158888898717     -0.98749242067595
  H   -1.46323209327412      1.44816335118626     -0.65720677669639
  N   -0.80894221681111      0.19971632540323      1.42484996291496
  H   -1.80686290502978      0.15930519147619      1.58933694189925
  H   -0.35491207910850     -0.41252906762915      2.09387503013681
