14
Coordinates from ORCA-job run
  C   0.81005585060753     -0.38779742044125     -0.38628386171361
  C   -0.64931022088705     -0.29810451558201      0.13766241155509
  F   0.85027344810760     -1.28947666545514     -1.43637309356376
  H   -0.88820084561345     -1.31305486065732      0.49324732077972
  C   1.26340872151918      0.92921099921188     -0.85587447693134
  N   1.62873315302234      1.99504964486213     -1.18619190594309
  C   1.68989439054588     -0.87005953410356      0.68955274707591
  N   2.33225035286143     -1.26004410207126      1.59215715380793
  N   -1.45008638298752      0.17227694177238     -0.96695862662542
  H   -2.39128306068832      0.33435568563567     -0.63057194090288
  H   -1.47751161575389     -0.50917892872523     -1.71448808699612
  N   -0.82342155837433      0.61545820971000      1.22908806925845
  H   -0.55340808005204      1.55582024133809      0.96595352190986
  H   -0.34139415230737      0.32554430450561      2.06908076828929
