14
Coordinates from ORCA-job run
  C   0.80589582458981     -0.09171961991780     -0.54569431160695
  C   -0.67664721749508      0.19558122729955     -0.18265615203410
  F   0.85622891623758     -0.61316773295399     -1.82745984728397
  H   -1.01021833293433      0.94656373625832     -0.91640613758686
  C   1.57250623121767      1.16338730010464     -0.51173419084316
  N   2.12126901622904      2.20084297109617     -0.46750276151947
  C   1.38196269870020     -1.05993581222398      0.39837652314828
  N   1.84291199323923     -1.79945542768070      1.18528131830838
  N   -0.86228700886443      0.73571792792204      1.13260702350938
  H   -0.50948805076503      0.10332769820802      1.84115610358572
  H   -0.46157086952407      1.65730200796131      1.24257751469894
  N   -1.36341780051892     -1.07225605111749     -0.24282341006240
  H   -2.31227810617081     -0.93524675559048      0.08303278769130
  H   -1.38586729394087     -1.43094146936561     -1.18875446000508
