14
Coordinates from ORCA-job run
  C   0.89440959183008     -0.40141132442268     -0.41000637265589
  C   -0.57488920313927     -0.34752493487612      0.07817805693147
  F   1.02024464178468     -1.40588922735828     -1.33954103411182
  H   -0.82855531326575     -1.39053831500524      0.31843247311144
  C   1.26093718969252      0.88308115465539     -1.02456741328283
  N   1.52103159781513      1.90954537296596     -1.53126952083145
  C   1.79388237877655     -0.69709787643521      0.71909689415345
  N   2.45553972025981     -0.96194907126454      1.65250559363365
  N   -1.38614847049066      0.06566213971816     -1.03098159307881
  H   -2.32498410528094     -0.30081368788613     -0.97041834081225
  H   -1.41190824235401      1.07652965416776     -1.09842099538593
  N   -0.62439080065088      0.57835828912953      1.19759993782025
  H   -0.20621886204306      0.18791947332692      2.03485915888349
  H   -1.58895012293420      0.80612835328446      1.40353315562523
