14
Coordinates from ORCA-job run
  C   0.85824945893766     -0.35116924125526     -0.41699054773463
  C   -0.55584542145045     -0.29829234098834      0.19325804738380
  F   0.84120404745569     -1.19753194275191     -1.51559063829624
  H   -0.74616947591510     -1.30839657978833      0.58658284534972
  C   1.26934810230759      0.99079235209241     -0.85779735024916
  N   1.59396082203873      2.06784477351911     -1.19340288144618
  C   1.81294420513146     -0.88090072458946      0.56706921879896
  N   2.56204168587564     -1.35320270745927      1.33775089221062
  N   -1.45794137365529      0.12621794869794     -0.86093077477774
  H   -2.40417690284864      0.16265553657109     -0.50099590554865
  H   -1.43874046411706     -0.52516959097816     -1.63720721228903
  N   -0.50178246923573      0.61888450535153      1.29831485948259
  H   -0.67100865286437      1.56370579282142      0.97285333222559
  H   -1.16108356166014      0.38456221875724      2.02608611489034
