14
Coordinates from ORCA-job run
  C   0.98691673444204     -0.15618278996501      0.18865933849753
  C   -0.54813102564356     -0.28603598191962      0.22998857856940
  F   1.47822508881874     -0.23043719902127      1.48356003039851
  H   -0.74883924792838     -1.31108828052926      0.57668186386154
  C   1.56535535022224     -1.25695181723180     -0.59506655421978
  N   2.02715839077643     -2.16589844824307     -1.17707738541350
  C   1.36922329971450      1.14083822307510     -0.39069800020786
  N   1.66315765794260      2.17239676293270     -0.86771766107087
  N   -1.01602552471259     -0.16220475636830     -1.12317814329663
  H   -1.86518249603416     -0.68325994322037     -1.28641900589124
  H   -1.16351918411441      0.81443150839991     -1.35049619709523
  N   -1.03990393375834      0.76160148452808      1.10521407887783
  H   -2.04932296311311      0.70257641320301      1.16774172649074
  H   -0.65811214661202      0.66121482435989      2.03880733049958
