14
Coordinates from ORCA-job run
  C   0.84343483800777     -0.34569377183159     -0.37457854161595
  C   -0.45571721456349      0.31173880685635      0.15124978838565
  F   0.53308556611614     -1.55360734589401     -0.95578664052427
  H   -0.19266527954006      1.34474960296471      0.42453007410085
  C   1.46628389472976      0.52749258562397     -1.38197673228166
  N   1.97691670295270      1.24686350681910     -2.15636118593382
  C   1.78634147943250     -0.57618296945253      0.73319982986709
  N   2.49641389958952     -0.71722161696573      1.65774862680998
  N   -0.94831444602566     -0.49885137418176      1.25443541858643
  H   -0.39502094618448     -0.36887878817182      2.09470461980652
  H   -1.90173971767128     -0.23015852846864      1.46249933316312
  N   -1.35760716243337      0.36568830784830     -0.96533838794337
  H   -2.09368555896150      1.04207047353378     -0.81780644024455
  H   -1.75872605544854     -0.55000888868013     -1.12651976217602
