14
Coordinates from ORCA-job run
  C   0.83753246002716     -0.27955654794938     -0.19432529563513
  C   -0.50390786631204      0.34150327680604      0.27897587423223
  F   0.58134235080644     -1.59537209379462     -0.56033902200063
  H   -0.28381416030070      1.36996411373543      0.58348459842133
  C   1.33510799425526      0.44005147744175     -1.37633647306148
  N   1.67963500027620      1.05474417052049     -2.31587043240489
  C   1.84919251281037     -0.26628934063161      0.86892052227952
  N   2.65978532760462     -0.22083842403813      1.71725761933786
  N   -0.89761483020833     -0.41060160023027      1.44487833434960
  H   -1.75152470437609     -0.00893197922229      1.81253940929637
  H   -1.09756021179707     -1.36966843194345      1.18410766426335
  N   -1.50476171091542      0.39040726672942     -0.76469231162170
  H   -1.62113970616587     -0.51761370787291     -1.19914821242506
  H   -1.28227245570455      1.07220182044952     -1.48045227503136
