14
Coordinates from ORCA-job run
  C   0.83848378872111     -0.04364104217426     -0.59866658540924
  C   -0.66687590494943      0.21415060002436     -0.28230682023299
  F   0.99896933784508     -0.36711471612693     -1.92178940433543
  H   -0.97984550085397      0.95886070736115     -1.02130541834177
  C   1.61747813488164      1.17386026483809     -0.31343087841406
  N   2.18382115715424      2.17875762661034     -0.09248250715698
  C   1.31572604965447     -1.15052740423215      0.24772141230347
  N   1.60612036388533     -2.02903011548582      0.97117740786834
  N   -0.89708111420016      0.75637932583538      1.03741501936595
  H   -0.49070219252238      1.67515831623044      1.16451482815319
  H   -0.56277475956642      0.13588744607263      1.76599974782432
  N   -1.36619164434857     -1.01509694123020     -0.54961096066697
  H   -2.35659022595456     -0.82025133344941     -0.62405332369732
  H   -1.24153748974638     -1.66939273427363      0.21581748273950
