14
Coordinates from ORCA-job run
  C   0.82960619586699      0.30211402098483     -0.18577024405750
  C   -0.54190709412644     -0.39552624768279      0.01542395746708
  F   0.60959380601708      1.67357818176772     -0.14293738185431
  H   -0.35744475072452     -1.47340507208010     -0.03993262796328
  C   1.74120025513482     -0.05396265750845      0.91182845814704
  N   2.42229943632239     -0.37624286963496      1.81262795549382
  C   1.43384885988051     -0.04547760397190     -1.47744146235609
  N   1.94206206758708     -0.35014559993360     -2.49125121034662
  N   -1.35088488857788     -0.00750503509555     -1.11379903557039
  H   -1.52693456451620      0.99042688836012     -1.08393349548439
  H   -2.24494377071807     -0.47819412540752     -1.04508809860936
  N   -1.13894546615004     -0.11149432947392      1.30249460134250
  H   -1.17250926251930      0.88654846190882      1.47474875310339
  H   -0.64404082347643     -0.56071401223270      2.06402983068813
