14
Coordinates from ORCA-job run
  C   0.87330215996622      0.18669428218280     -0.12804646302460
  C   -0.55958488797383     -0.32843437582855      0.17164703343037
  F   0.85063878892493      1.57139730949469     -0.01402756548170
  H   -0.52284133410123     -1.42025311721467      0.09770904356850
  C   1.85628170425712     -0.35546151438244      0.81766085210894
  N   2.65447189122686     -0.81602923021593      1.54537019513687
  C   1.25345653659863     -0.15736037105011     -1.50631424011608
  N   1.49897718321262     -0.46183166737791     -2.61366152659103
  N   -1.54349336557609      0.14909853958321     -0.77567957941470
  H   -1.49671989510819      1.15689970867318     -0.87077998820492
  H   -1.43448059261291     -0.27353803970803     -1.69010586448517
  N   -0.82959143382534      0.03229522814906      1.54174679602880
  H   -1.74355228079156     -0.32410306671949      1.79333158232973
  H   -0.85886447419722      1.04162631441420      1.63214972471499
