14
Coordinates from ORCA-job run
  C   0.86583969479278     -0.32482516400768     -0.33777936370701
  C   -0.47031725904273      0.30050835332678      0.13021795344415
  F   0.61441358685453     -1.55660649330588     -0.89661068195395
  H   -0.25105602591122      1.34775418054955      0.38741999816079
  C   1.49238844292508      0.54242657322656     -1.34816695787104
  N   2.00718196346037      1.25299911874669     -2.12784486508512
  C   1.78041004834330     -0.49449113139968      0.80442165394558
  N   2.46776491823035     -0.58708213833966      1.75195066738906
  N   -0.97166118649803     -0.50120958804552      1.23577765533886
  H   -1.94267180550006     -0.26853712651369      1.40138219114576
  H   -0.45604878195972     -0.32927933779931      2.09196169169182
  N   -1.33632518199313      0.29916029759365     -1.01607455540768
  H   -1.69977103140593     -0.63323861958170     -1.17059729673384
  H   -2.10014738229560      0.95142107554989     -0.90605809035737
