14
Coordinates from ORCA-job run
  C   0.91449733556372      0.26605053286206     -0.24877335455484
  C   -0.51506465955961     -0.24663968146159      0.04905126822594
  F   0.87482669738283      1.62940503682640     -0.42896187961590
  H   -0.47006697058252     -1.34474823662566     -0.00623155576533
  C   1.81472858502303     -0.04258361636107      0.87553002634411
  N   2.48356655334717     -0.33321919742961      1.79586409330958
  C   1.42248961473578     -0.36632573864386     -1.47660540625132
  N   1.83878841349134     -0.89795912851720     -2.43675494032168
  N   -1.34004043682997      0.21669042518970     -1.03199178149696
  H   -2.19926297793222     -0.31106030619127     -1.09712017631359
  H   -1.54860377964306      1.19973942854538     -0.90784852733189
  N   -0.91248667499058      0.27742700463869      1.34667224444569
  H   -1.91194227764776      0.16367331433448      1.45897475333504
  H   -0.45242942235813     -0.20944983716645      2.10819523599117
