14
Coordinates from ORCA-job run
  C   1.04115699913848     -0.20123001291353      0.07020425998668
  C   -0.45571412311517     -0.17212662716492      0.46929612168978
  F   1.80474379588792     -0.30942400712251      1.20780507456899
  H   -0.57551908143929     -1.01275014941842      1.16857709490766
  C   1.31584172342487     -1.36765564659967     -0.78720830224607
  N   1.47711966676690     -2.32848991197389     -1.44292399771672
  C   1.38998016095086      1.03947850296658     -0.63755341162327
  N   1.64813771843643      2.04920993262728     -1.17778490189068
  N   -1.23175414744170     -0.26674288035166     -0.75611378629604
  H   -1.20152307220929     -1.19825350890530     -1.15613846575846
  H   -2.19855312996746     -0.03869785975173     -0.56039977933201
  N   -0.68882749796888      1.04602935436172      1.19081900594371
  H   -1.43899545958921      0.95277903630394      1.86015255279391
  H   -0.88609355287446      1.80787377794210      0.55226853497253
