14
Coordinates from ORCA-job run
  C   0.87302030746460     -0.43344054507571     -0.42311691108772
  C   -0.58365571258574     -0.32804242172956      0.09402289724546
  F   0.94787978258847     -1.45165422052888     -1.34328857403013
  H   -0.86485330277229     -1.35999162703069      0.35078742733256
  C   1.26636592074480      0.83192474495676     -1.06023287252828
  N   1.54671345245783      1.84384415055731     -1.58503121376208
  C   1.78591844703902     -0.74530952198179      0.69073059902169
  N   2.45772697055472     -1.02165686519126      1.61350101983490
  N   -1.40410890199278      0.09899708283739     -1.00295411314381
  H   -1.40130208961509      1.10946875324665     -1.07978835591008
  H   -2.35182241058286     -0.23917859154414     -0.92151385515084
  N   -0.58160837101878      0.61076915090991      1.20370594028659
  H   -1.53455675847837      0.86762144742174      1.42835305252587
  H   -0.15571733380354      0.21764846315228      2.03582495936587
