14
Coordinates from ORCA-job run
  C   0.78612096960330     -0.31548906130815     -0.36223346063670
  C   -0.51097171652824      0.29034117647487      0.26470146534143
  F   0.47093357602923     -1.49427154745787     -0.99872401151254
  H   -0.24426148994049      1.30414540712269      0.60224265881155
  C   1.32439350648258      0.62679029514893     -1.35679746476596
  N   1.75730691826607      1.39627042940414     -2.13121497480807
  C   1.79195783398475     -0.57531950554496      0.67682552208343
  N   2.55073168749751     -0.74048608385075      1.55820963704935
  N   -0.94598270939811     -0.61210491660019      1.30519979974021
  H   -0.37984309242501     -0.52787259647875      2.14026719999597
  H   -1.90498001975741     -0.38285792531225      1.53304723424632
  N   -1.57582912731560      0.40295105842282     -0.69337047655156
  H   -1.72558775561832     -0.48864244190905     -1.15024945726844
  H   -1.39398858088026      1.11754571188852     -1.38590367172498
