14
Coordinates from ORCA-job run
  C   0.84871321183272     -0.28961252469244     -0.21098738236211
  C   -0.55857946761060      0.26925059212957      0.17594647869155
  F   0.73787461128997     -1.63129883077895     -0.49661799245715
  H   -0.38929355674245      1.28642078053997      0.56269485143937
  C   1.38293255661553      0.41677512354780     -1.38337480219595
  N   1.75112428736077      1.03525471345834     -2.31169183452796
  C   1.76157481850262     -0.12587425313194      0.93210512846418
  N   2.48685951892114      0.03074277869185      1.84241684759851
  N   -1.18452121317195     -0.50528953133987      1.21170077572667
  H   -0.72506006090743     -0.39159636470680      2.10572811771988
  H   -1.19531448716838     -1.48449266293593      0.95256931650363
  N   -1.39090240649623      0.18728677380120     -1.00168048864596
  H   -1.17239512585576      0.91484946297686     -1.67089977490362
  H   -2.35401268656997      0.28858394244032     -0.70790924105103
