14
Coordinates from ORCA-job run
  C   0.86123835585671     -0.30605976351327     -0.28079627530138
  C   -0.42893872725444      0.36551315459962      0.21916849497308
  F   0.52186196969146     -1.58824031864061     -0.70151579848488
  H   -0.15705374939816      1.37431212787105      0.54566784678315
  C   1.43688127581681      0.42464327368220     -1.41925247691708
  N   1.93330185017936      1.01740781351740     -2.30263174616213
  C   1.85860660255234     -0.41388589761144      0.79392844384165
  N   2.68482016812883     -0.47411867793114      1.62559995139640
  N   -0.85987023608980     -0.37780618029780      1.38695324914680
  H   -1.20544563425964     -1.29139272323209      1.11814678436732
  H   -1.59779549721354      0.11628373276013      1.87179616803845
  N   -1.30366805803635      0.49149139373548     -0.93018030342169
  H   -2.09788122037070      1.07902862988344     -0.71151523710920
  H   -1.64505709960288     -0.41817656482298     -1.21636910115049
