14
Coordinates from ORCA-job run
  C   1.00590559332067     -0.26156054385608      0.26652519762445
  C   -0.53969655209996     -0.33000873496008      0.26751423390726
  F   1.49328629352872     -0.51630726558353      1.52414174173789
  H   -0.78029720193116     -1.34496788976224      0.59807726614998
  C   1.56458069237752     -1.25833765908184     -0.66094808815408
  N   2.03388310260438     -2.08801905462670     -1.34621649856773
  C   1.40912080740353      1.09672464971518     -0.14350922952042
  N   1.63504103666054      2.20139348985976     -0.47204784920544
  N   -0.95336881007438     -0.18937175407904     -1.11480698886515
  H   -1.87237218012932     -0.58293984595246     -1.26618718768581
  H   -0.97219234166858      0.78557272708816     -1.39229235994467
  N   -1.02576558929556      0.59335078813226      1.26649463187266
  H   -1.03220521901255      1.54461486150651      0.91654136623583
  H   -1.96291963168384      0.34985623160011      1.55771376441523
