14
Coordinates from ORCA-job run
  C   0.85795815231891      0.23224344281263     -0.15603646514290
  C   -0.53493475194089     -0.35167531736343      0.20073176939933
  F   0.75149099153296      1.61721515974240     -0.11699540917761
  H   -0.43200173755361     -1.44166249078057      0.18564839018157
  C   1.88897004252455     -0.19583656059601      0.79696493625870
  N   2.72502191357173     -0.56844500720996      1.53252080866022
  C   1.23489796547965     -0.16406180168035     -1.52108035048040
  N   1.48106197647599     -0.51611779017550     -2.61408044279076
  N   -1.56262625396739      0.01170921272549     -0.75071764768010
  H   -1.58039953965096      1.01367741713010     -0.90096186638832
  H   -1.44313682803752     -0.45317184415123     -1.64307574764360
  N   -0.80321045257088      0.06772901959427      1.55439395974204
  H   -1.68926920418851     -0.32855274336983      1.84351574370880
  H   -0.89282227399404      1.07694930332198      1.59017232135302
