14
Coordinates from ORCA-job run
  C   0.85359211071835     -0.14576916491040     -0.53476356441742
  C   -0.59640872247091      0.22671083247479     -0.16812103183299
  F   0.84978625038344     -0.82716271150272     -1.74271416708477
  H   -0.91622820713928      0.95452843688336     -0.92915589903303
  C   1.66414379923228      1.07095944428804     -0.68568002195060
  N   2.29473985589844      2.04722552544524     -0.85219782275224
  C   1.42794448528834     -1.01807163853690      0.50125671036346
  N   1.87909503092880     -1.70005126080226      1.34335787235731
  N   -0.54969902285691      0.88935879727587      1.10601809659862
  H   -0.59777530714947      0.20696092806925      1.85373100752749
  H   -1.28767033449682      1.56928624306965      1.21497181909872
  N   -1.35877327452419     -1.00742291235537     -0.14498430802836
  H   -1.33929233439611     -1.46216344986907     -1.05051160379602
  H   -2.32345432941595     -0.80438906952947      0.08779291294983
