14
Coordinates from ORCA-job run
  C   0.79629506516765     -0.38752258350516     -0.41469435151016
  C   -0.64685863604626     -0.29516746450860      0.15202955896164
  F   0.79995188909013     -1.27394548396191     -1.47850266013037
  H   -0.88256780699849     -1.31318910679235      0.50092578786910
  C   1.24577582079088      0.93306763979082     -0.87778692083995
  N   1.60555471950030      2.00226692649919     -1.20320744938310
  C   1.70246410616267     -0.89234426818461      0.62843545307589
  N   2.36667847037409     -1.30171511475249      1.50631416624156
  N   -1.47570935154575      0.19528574216224     -0.92275433882474
  H   -2.40593473210002      0.35854056333526     -0.55754670980553
  H   -1.52878304365582     -0.47568451595052     -1.67839546244970
  N   -0.78310690309177      0.60464610761492      1.26008739831017
  H   -0.27967920728511      0.30009812580052      2.08204974489226
  H   -0.51408039036251      1.54666343245270      1.00204578359292
