14
Coordinates from ORCA-job run
  C   0.82230871986634     -0.37221407525798     -0.39342740865773
  C   -0.43945099790850      0.32812699057023      0.16566556210128
  F   0.45242434597340     -1.55433797102679     -0.99262211102083
  H   -0.12941251644131      1.34320407262178      0.45635482165856
  C   1.46638349301888      0.49304891275976     -1.39438278163050
  N   1.99508527825740      1.20163687769856     -2.16652864862866
  C   1.77215451950923     -0.66432076788972      0.69386426472392
  N   2.49115053666307     -0.85660359435268      1.60216316761482
  N   -0.95037141139982     -0.48432856565348      1.25896668417644
  H   -1.88948557853861     -0.18245653022969      1.48575998521537
  H   -0.38130405631690     -0.39574441047247      2.09375503947685
  N   -1.35433230158549      0.44426237701997     -0.93590947794625
  H   -2.05869461224071      1.14752550498481     -0.76218384846787
  H   -1.79645541885696     -0.44979882077230     -1.11047524861539
