14
Coordinates from ORCA-job run
  C   0.81320194066295     -0.33856617669973     -0.42091632948087
  C   -0.63454606756867     -0.32713170666963      0.14121685102240
  F   0.86040393596764     -1.19305393712002     -1.50961409763038
  H   -0.82642001490980     -1.36418728672533      0.45942233330097
  C   1.20496075791614      1.01323656309132     -0.84470540910210
  N   1.53238823733043      2.10067529897370     -1.14282905379093
  C   1.73717206432039     -0.83296028690534      0.61145680017032
  N   2.41507425691294     -1.24834182815819      1.47591738343972
  N   -1.48023623247022      0.15770759416465     -0.92302094708342
  H   -1.50172169164890     -0.49295877679198     -1.69772385637463
  H   -2.41787790972360      0.27029400293895     -0.55760754533310
  N   -0.81423407687830      0.53340853142024      1.27410496251294
  H   -0.30115172929426      0.22743763082396      2.08953611501187
  H   -0.58601347061673      1.49344037765739      1.04476279333719
