14
Coordinates from ORCA-job run
  C   0.94932338496228     -0.15279251507365      0.16755885145065
  C   -0.59088994478341     -0.26414205859778      0.33318892448054
  F   1.53941923200127     -0.26097348525854      1.41567452743002
  H   -0.76201346234921     -1.26849444087017      0.75217638663721
  C   1.43266281318946     -1.25118002221591     -0.68322519909766
  N   1.75076451303950     -2.15948286272709     -1.35641691661246
  C   1.30440101863704      1.14277864163233     -0.42896920671050
  N   1.58405843256221      2.15971778676219     -0.94494417903839
  N   -1.31960354807240     -0.15799072604085     -0.89724103768788
  H   -1.14169301220317      0.72911182534183     -1.35302413088036
  H   -1.14495061575747     -0.92754258410590     -1.52897139488997
  N   -0.98918510486961      0.83370451657194      1.18107586579871
  H   -0.61373831687225      0.72889575635209      2.11491114385097
  H   -2.00055538948423      0.84739016822952      1.22920636526910
