14
Coordinates from ORCA-job run
  C   0.99006260148305     -0.30475351737699      0.23728098865937
  C   -0.55847115019084     -0.26971185729721      0.27092632755742
  F   1.45205558664626     -0.82736959294297      1.42141081597768
  H   -0.85407741508783     -1.27296359138080      0.61128301067149
  C   1.45435158429315     -1.16650741739562     -0.86410890059858
  N   1.76225155888972     -1.88657139469559     -1.73928229004774
  C   1.51348705141672      1.05864851389117      0.06636868730295
  N   1.90565491272366      2.15942334366604     -0.04570903141265
  N   -1.01048009847431      0.09317255362678     -1.06184282598777
  H   -0.90099287055481     -0.66748205164850     -1.72327316803130
  H   -1.99010050847285      0.34524922932568     -1.02921563671013
  N   -0.94962619816822      0.67599572702486      1.27643282898652
  H   -1.84471730850222      0.44727413555698      1.68375034336187
  H   -0.97039774600149      1.61559591964617      0.89697885027088
