14
Coordinates from ORCA-job run
  C   0.98714767845398     -0.16392585606130      0.17794153876055
  C   -0.54700875857320     -0.30495446541519      0.20782628141198
  F   1.47740346687274     -0.32863595546707      1.46508183376763
  H   -0.74204170615085     -1.35322727563298      0.48035045812897
  C   1.57315185130503     -1.20199528013493     -0.68195390443002
  N   2.04245588148211     -2.06383087197073     -1.32634346251039
  C   1.36317946277903      1.17365814239296     -0.30550784648012
  N   1.65318072320293      2.23877633423834     -0.70472409194430
  N   -1.01452088864467     -0.08760246745455     -1.13358990319748
  H   -1.86025805457196     -0.60080582068974     -1.33481128073572
  H   -1.16758029563023      0.90193218155197     -1.29045953906853
  N   -1.04580579765518      0.67472883314142      1.15477848959217
  H   -2.05482716966776      0.60466436083441      1.21227858664106
  H   -0.66347639320198      0.51121814066738      2.07913284006418
