14
Coordinates from ORCA-job run
  C   0.81296188808042     -0.38443184297654     -0.39641729367957
  C   -0.62661251102003     -0.31513680905909      0.19183436429658
  F   0.81463491185761     -1.34362369675709     -1.39454797689902
  H   -0.85597238638310     -1.34920714185576      0.49261720274269
  C   1.18115091934720      0.91072721466482     -0.98147605180992
  N   1.42907224860112      1.93929667944180     -1.49082351546530
  C   1.77341274609216     -0.77863541123462      0.64296038031629
  N   2.47011775599554     -1.11020081546388      1.52881354894823
  N   -1.61021099154418      0.09575469157507     -0.76862674402193
  H   -1.66072603704737     -0.54782994836536     -1.54719085011800
  H   -1.40762278407491      1.02947503110142     -1.10972842756901
  N   -0.60393333596387      0.65790864440266      1.25765950349000
  H   -1.56047355645517      0.89923692689132      1.48648514028580
  H   -0.15479886748545      0.29466647763524      2.08944071948316
