14
Coordinates from ORCA-job run
  C   1.03532645374426     -0.18875799822384      0.20617008317446
  C   -0.49938435626623     -0.35096399431731      0.31572888538613
  F   1.61778147274498     -0.36077814958073      1.43711851266883
  H   -0.65178660272180     -1.36254462871570      0.70419862008667
  C   1.59686796700468     -1.18649928717416     -0.71836638780403
  N   2.07755788556765     -2.01139718396634     -1.40161253051335
  C   1.32320832704435      1.17326735161687     -0.28090520018672
  N   1.45418107573691      2.27377676730914     -0.66951548732647
  N   -1.01295527555641     -0.29967639311955     -1.03867255760581
  H   -1.09438897019187      0.65830708630193     -1.36077214639890
  H   -1.92310856948045     -0.73605789291269     -1.10223947468498
  N   -0.97537017964580      0.58651083876555      1.30689748741806
  H   -1.86241226580667      0.28959797898145      1.69044475052357
  H   -1.08551696217361      1.51421550503536      0.91352544526253
