14
Coordinates from ORCA-job run
  C   1.05102053382685     -0.18619551342050      0.10007568109159
  C   -0.45500886934628     -0.25815017164632      0.44639241668838
  F   1.79986258119324     -0.12706364000571      1.24893961390775
  H   -0.56546138443430     -1.16402862797904      1.05014982725293
  C   1.46246560450508     -1.37490540047252     -0.66395432675017
  N   1.83204401940781     -2.33895022572345     -1.22281652907755
  C   1.28617267718562      1.03416625163347     -0.69442542027044
  N   1.37642375185154      2.02989610404146     -1.31057918195729
  N   -1.15147424223314     -0.45831671417058     -0.80891357410767
  H   -2.06162236090886     -0.87419518856485     -0.66374420807619
  H   -1.27389215610126      0.41893544953283     -1.30207088083869
  N   -0.77516038096315      0.87771573168971      1.27946000516563
  H   -1.61433186268049      0.70700043705849      1.81695836525493
  H   -0.91003791130267      1.71509150802700      0.72452821171677
