14
Coordinates from ORCA-job run
  C   0.88276320598969      0.09300333930131     -0.17005087107681
  C   -0.58403992622519     -0.27433445669241      0.18046632115532
  F   1.03985011776649      1.45324069360152      0.06515460821917
  H   -0.68612253509648     -1.35163078512211      0.01342264309935
  C   1.83998710167886     -0.65129937569028      0.65728654875780
  N   2.60624235850426     -1.27661482774063      1.29012920086850
  C   1.13832420699183     -0.16123021634641     -1.59573835735362
  N   1.27771275750705     -0.38034759481701     -2.74107265507980
  N   -1.55402343553698      0.39944191119538     -0.65499244056418
  H   -1.39094166830496      1.39922486641742     -0.66694503953746
  H   -1.54907257093294      0.05325126691662     -1.60722267278390
  N   -0.72937438959224     -0.01017434071552      1.59093044519270
  H   -0.62594839510405      0.98282170700340      1.76719189143374
  H   -1.66535682764536     -0.27535218731129      1.87244037766919
