14
Coordinates from ORCA-job run
  C   0.90770486431267     -0.19911702478849      0.16745227476693
  C   -0.64477352962286     -0.28179035005013      0.40890663626861
  F   1.54728636499788     -0.22597738094575      1.39486164594542
  H   -0.79008114017341     -1.24303003427628      0.91534984197178
  C   1.35987813673664     -1.34286467712484     -0.63318036321772
  N   1.63724975628916     -2.29054011240867     -1.26998062184579
  C   1.21661961515852      1.06647836510900     -0.51012491746038
  N   1.36296036965018      2.09805591720448     -1.05278846573073
  N   -1.39080789144700     -0.28374031854701     -0.81594611718019
  H   -1.24843220860075     -1.12569009567425     -1.35599985571552
  H   -1.20041644650497      0.52864676837645     -1.39000716335964
  N   -1.10003326738364      0.77205270463404      1.27288043018316
  H   -1.15557494527631      1.65746696572347      0.78418917144815
  H   -0.50257967813610      0.87104927276796      2.08338750392592
