16

C	0.0	0.0	0.0
C	-0.449856	0.027897	-1.459003
F	1.417715	0.0	0.0
H	-0.248397	-0.932994	-1.926661
H	-1.519139	0.259112	-1.481034
C	-0.490892	1.167852	0.815744
H	-0.166999	2.10529	0.367136
H	-0.073858	1.09171	1.82334
H	-1.583443	1.127604	0.847297
N	-0.469796	-1.231148	0.526366
H	0.147515	-1.993052	0.283346
H	-0.644563	-1.195873	1.518944
N	0.304466	1.032103	-2.25194
O	0.069436	2.222731	-2.047234
O	1.13471	0.614512	-3.061321
Cl	-3.871859	0.0	0.0
