16

C	0.0	0.0	0.0
C	-0.215642	0.358335	-1.508523
F	1.406104	0.0	0.0
H	-0.243787	1.43673	-1.650231
H	0.638023	-0.063323	-2.041224
C	-0.473057	1.098807	0.919518
H	-0.205976	0.832285	1.943621
H	-1.557818	1.190726	0.832786
H	0.011787	2.040895	0.652841
N	-0.47989	-1.260761	0.438789
H	-0.404643	-1.941142	-0.308121
H	-1.479127	-1.152762	0.622502
N	-1.387748	-0.191929	-2.242163
O	-1.477625	-1.418287	-2.293424
O	-2.098833	0.5988	-2.851316
Cl	-3.688223	0.0	0.0
