13

C	-0.453416	0.0001	-1.413374
C	0.0	0.0	0.0
Cl	-0.089872	-1.656048	-2.179075
H	1.091487	0.0	0.0
H	-0.387502	-0.8646	0.536082
H	-0.37005	0.915618	0.470485
N	-1.980405	0.054966	-1.587073
O	-2.40572	0.438449	-2.675319
O	-2.676876	-0.30904	-0.644891
N	0.11123	1.07655	-2.108751
H	1.102408	1.093051	-1.872531
H	-0.052307	1.030498	-3.104492
F	2.680859	0.0	0.0
