13

C	-0.074415	0.116993	-1.509689
C	0.0	0.0	0.0
Cl	-0.472933	-1.640116	-2.243809
H	1.089396	0.0	0.0
H	-0.388234	0.907683	0.462984
H	-0.480438	-0.888835	0.393318
N	-1.293134	0.85786	-2.077767
O	-1.191017	1.320497	-3.210841
O	-2.290507	0.9428	-1.3685
N	1.080651	0.669662	-1.97746
H	1.924043	0.426812	-1.377906
H	1.185062	0.705985	-2.978283
F	2.764582	0.0	0.0
