13

C	-0.31905	0.010527	-1.470498
C	0.0	0.0	0.0
F	-1.6832	0.101313	-1.737096
H	1.092933	0.0	0.0
H	0.02959	-0.949613	-1.862802
C	0.374705	1.070508	-2.219481
N	0.898847	1.865247	-2.904686
C	-0.516242	-1.187856	0.642585
N	-0.89793	-2.191414	1.121951
N	-0.455652	1.211183	0.706988
O	-0.549968	2.248461	0.052345
O	-0.649524	1.122546	1.918019
F	2.420861	0.0	0.0
