13

C	-0.310084	0.057021	-1.471911
C	0.0	0.0	0.0
F	-1.672522	0.160917	-1.744566
H	1.092758	0.0	0.0
H	0.036295	-0.893345	-1.88963
C	0.393285	1.131025	-2.192108
N	0.926143	1.91144	-2.887013
C	-0.528836	-1.200579	0.607475
N	-0.900684	-2.217395	1.064889
N	-0.446388	1.19544	0.739224
O	-0.545115	2.248059	0.109255
O	-0.621129	1.080779	1.951356
F	2.420633	0.0	0.0
