13

C	-0.465496	-0.037005	-1.44376
C	0.0	0.0	0.0
F	0.193879	0.924388	-2.180347
H	1.091717	0.0	0.0
H	-1.53726	0.166101	-1.534677
C	-0.17225	-1.353983	-2.038239
N	0.034106	-2.369678	-2.589649
C	-0.48468	-1.140418	0.747417
N	-0.873485	-2.082854	1.334382
N	-0.4802	1.232493	0.67509
O	-0.178616	1.360448	1.857802
O	-1.133538	2.047828	0.021493
F	2.425899	0.0	0.0
