16

C	-0.376166	0.019644	-1.458909
C	0.0	0.0	0.0
F	0.051109	-1.104303	-2.083148
H	1.097168	0.0	0.0
N	-1.905804	0.04559	-1.622438
O	-2.464723	-1.022487	-1.838558
O	-2.445134	1.136418	-1.445445
C	0.134339	1.204325	-2.168263
N	0.500192	2.152695	-2.756917
C	-0.499753	-1.211274	0.617371
N	-0.908067	-2.176345	1.152938
C	-0.384238	1.251547	0.781663
H	0.073447	1.171903	1.770151
H	-1.461737	1.388309	0.886768
H	0.047397	2.128852	0.294803
H	2.553006	0.0	0.0
