16

C	-0.460843	0.048831	-1.442024
C	0.0	0.0	0.0
F	-0.065704	1.21063	-2.020713
H	1.096668	0.0	0.0
N	0.175619	-1.095162	-2.254045
O	1.001326	-0.798317	-3.0965
O	-0.230692	-2.212963	-1.963183
C	-1.919661	-0.076962	-1.609381
N	-3.089775	-0.104786	-1.721226
C	-0.509935	-1.166024	0.692545
N	-0.919799	-2.06789	1.328005
C	-0.391653	1.281508	0.737636
H	0.012427	1.216502	1.74965
H	0.08485	2.131584	0.248397
H	-1.473189	1.436458	0.792356
H	2.609344	0.0	0.0
