16

C	-0.499752	-0.016052	-1.419687
C	0.0	0.0	0.0
F	-1.868468	0.063699	-1.510688
H	1.097525	0.0	0.0
N	0.04327	1.221278	-2.1418
O	-0.653642	2.226794	-2.083696
O	1.141291	1.107301	-2.665
C	-0.064892	-1.193717	-2.179153
N	0.208716	-2.157763	-2.789877
C	-0.47518	-1.197697	0.663575
N	-0.835806	-2.160632	1.236056
C	-0.3887	1.264359	0.76665
H	-0.084984	1.127847	1.806656
H	-1.45759	1.482639	0.72346
H	0.176771	2.11238	0.375403
H	2.575721	0.0	0.0
