16

C	-0.375767	-0.369724	-1.4055
C	0.0	0.0	0.0
F	-0.188672	-1.699319	-1.638904
H	1.108445	0.0	0.0
N	-1.880876	-0.127716	-1.664436
O	-2.643168	-0.898219	-1.094166
O	-2.202815	0.833779	-2.357025
C	0.370263	0.411846	-2.407318
N	0.962978	1.007125	-3.227924
C	-0.489232	-0.963164	0.958177
N	-0.817583	-1.728652	1.78846
C	-0.366788	1.440465	0.34827
H	0.108694	1.688489	1.298507
H	0.046238	2.116836	-0.404997
H	-1.441833	1.60378	0.435523
H	2.530908	0.0	0.0
