16

C	-0.516402	0.235918	-1.388982
C	0.0	0.0	0.0
F	0.080327	1.33386	-1.94445
H	1.10737	0.0	0.0
N	-0.187262	-0.919914	-2.349208
O	-0.670735	-0.80213	-3.473721
O	0.556041	-1.805997	-1.95421
C	-1.977288	0.437013	-1.454516
N	-3.136109	0.633115	-1.413317
C	-0.537326	-1.231802	0.539844
N	-0.967386	-2.210369	1.032658
C	-0.339833	1.187219	0.907421
H	0.062415	2.098923	0.461589
H	0.179258	1.034939	1.856131
H	-1.411743	1.301847	1.092136
H	2.57263	0.0	0.0
