16

C	-0.390394	-0.01393	-1.44019
C	0.0	0.0	0.0
F	-0.157815	-1.229533	-2.019683
H	1.108546	0.0	0.0
N	-1.91561	0.205538	-1.686037
O	-2.675053	-0.231378	-0.829841
O	-2.246043	0.73816	-2.742254
C	0.301745	1.035705	-2.206502
N	0.831086	1.889436	-2.814589
C	-0.451743	-1.182793	0.701507
N	-0.735895	-2.137106	1.328377
C	-0.372083	1.297317	0.711462
H	0.032039	2.149124	0.157019
H	0.119601	1.295458	1.687247
H	-1.449538	1.418772	0.848872
H	2.552873	0.0	0.0
