14

C	0.0	0.0	0.0
C	-0.542102	-0.18486	-1.39861
F	1.38172	0.0	0.0
H	-1.62317	-0.411084	-1.245877
H	-0.489165	0.794469	-1.880305
N	-0.584236	1.098106	0.603592
H	-1.626796	0.9075	0.478321
H	-0.372064	1.076097	1.596554
N	-0.247708	-1.31677	0.824784
O	-0.451404	-2.365864	0.226295
O	-0.150666	-1.1996	2.044454
C	0.161759	-1.156153	-2.219983
N	0.6817	-1.900191	-2.965385
H	-2.942208	0.0	0.0
