14

C	0.0	0.0	0.0
C	-0.523899	-0.051892	-1.430079
F	1.346696	0.0	0.0
H	-1.61758	-0.214241	-1.321574
H	-0.366432	0.930119	-1.884433
N	-0.427011	1.204645	0.622575
H	-0.116082	1.136384	1.588651
H	-1.449861	1.124146	0.646732
N	-0.571966	-1.209231	0.675792
O	-0.309043	-2.323531	0.158587
O	-1.708027	-0.910161	1.23744
C	0.107673	-1.065975	-2.256903
N	0.632778	-1.776545	-3.031363
H	-2.827026	0.0	0.0
