14

C	0.0	0.0	0.0
C	-0.50195	-0.156634	-1.443731
F	1.350083	0.0	0.0
H	-1.609351	-0.202591	-1.339595
H	-0.128193	-1.102009	-1.84233
N	-0.421572	1.188479	0.664093
H	-1.438978	1.137838	0.728995
H	-0.156739	1.983718	0.090852
N	-0.590194	-1.169523	0.688693
O	-1.754173	-0.874331	1.196185
O	-0.266156	-2.294168	0.22678
C	-0.126864	0.96571	-2.280296
N	0.179612	1.886961	-2.943954
H	-2.875104	0.0	0.0
