17

C	-0.49214	-0.048268	-1.442583
C	0.0	0.0	0.0
F	-0.068655	1.163675	-2.045357
H	1.093794	0.0	0.0
C	0.170581	-1.174065	-2.196505
H	-0.095321	-1.112982	-3.257136
H	-0.149776	-2.12759	-1.781543
H	1.251564	-1.071939	-2.078138
N	-1.922264	-0.12619	-1.498425
H	-2.307342	0.728787	-1.108945
H	-2.212958	-0.183091	-2.468602
N	-0.368761	-1.227392	0.699382
H	0.316113	-1.378039	1.432196
H	-1.293471	-1.160717	1.102898
C	-0.504331	1.212504	0.655275
N	-0.96181	2.143759	1.210539
H	2.800731	0.0	0.0
