17

C	-0.509872	0.035283	-1.435178
C	0.0	0.0	0.0
F	-1.944401	0.19657	-1.372118
H	1.093679	0.0	0.0
C	0.030351	1.220697	-2.194864
H	-0.273919	1.160648	-3.24434
H	1.120088	1.20238	-2.122011
H	-0.351294	2.148922	-1.768697
N	-0.20115	-1.19054	-2.072098
H	-0.797166	-1.30152	-2.884234
H	-0.374957	-1.935437	-1.403593
N	-0.390811	-1.242928	0.664836
H	0.34431	-1.481466	1.319482
H	-1.261838	-1.134745	1.165233
C	-0.445432	1.191127	0.724889
N	-0.776572	2.135189	1.343372
H	2.751961	0.0	0.0
