17

C	-0.331188	-0.022646	-1.490985
C	0.0	0.0	0.0
F	-1.730281	-0.140762	-1.638729
H	1.094856	0.0	0.0
C	0.120904	1.245154	-2.173876
H	1.184439	1.399714	-1.965832
H	-0.445538	2.100005	-1.79966
H	-0.039994	1.144366	-3.249249
N	0.258446	-1.176365	-2.116271
H	0.057265	-1.952352	-1.489286
H	1.268383	-1.038667	-2.0549
N	-0.399134	-1.252146	0.641687
H	-1.306324	-1.168593	1.079333
H	0.292319	-1.468361	1.350011
C	-0.513087	1.184326	0.682878
N	-0.931123	2.119589	1.262289
H	2.760822	0.0	0.0
