17

C	-0.371744	0.02141	-1.48529
C	0.0	0.0	0.0
F	-0.071287	-1.301454	-1.957122
H	1.103268	0.0	0.0
C	-1.841333	0.215416	-1.783102
H	-2.416582	-0.530758	-1.233822
H	-2.022048	0.089687	-2.855245
H	-2.155156	1.214249	-1.479557
N	0.459581	0.98262	-2.100306
H	1.425666	0.836494	-1.7963
H	0.392707	0.92659	-3.109382
N	-0.561733	-1.191937	0.660877
H	-0.108009	-1.97373	0.19768
H	-0.19322	-1.188466	1.608256
C	-0.486556	1.205762	0.657547
N	-0.873718	2.158039	1.227494
H	2.837307	0.0	0.0
