17

C	-0.476387	-0.031991	-1.449632
C	0.0	0.0	0.0
F	-0.02886	1.171055	-2.044142
H	1.093817	0.0	0.0
C	0.169275	-1.169483	-2.200509
H	-0.073467	-1.088983	-3.265611
H	1.25032	-1.098434	-2.059824
H	-0.184641	-2.118877	-1.804392
N	-1.908424	-0.083243	-1.514167
H	-2.194321	-0.147763	-2.485472
H	-2.276992	0.78708	-1.141735
N	-0.413257	-1.222402	0.678816
H	0.1672	-1.337541	1.502721
H	-1.387708	-1.17161	0.94958
C	-0.500585	1.219825	0.649922
N	-0.95663	2.15422	1.200758
H	2.820014	0.0	0.0
