17

C	-0.496218	-0.23762	-1.422804
C	0.0	0.0	0.0
F	-0.081411	0.888174	-2.178428
H	1.094754	0.0	0.0
C	0.172502	-1.446628	-2.028095
H	-0.095515	-1.522096	-3.08737
H	1.252911	-1.322288	-1.928591
H	-0.140579	-2.342056	-1.494422
N	-1.925191	-0.332507	-1.461741
H	-2.317607	0.561927	-1.187181
H	-2.22538	-0.530434	-2.410861
N	-0.358288	-1.129984	0.854609
H	-1.266175	-1.002962	1.279602
H	0.351595	-1.199253	1.57578
C	-0.500672	1.284904	0.497154
N	-0.913708	2.293218	0.940839
H	2.791769	0.0	0.0
