17

C	0.0	0.0	0.0
C	-0.544947	-0.073376	-1.423831
F	1.355213	0.0	0.0
H	-1.635897	-0.167378	-1.347105
C	-0.464045	1.212444	0.685985
N	-0.622396	2.261308	1.193402
N	-0.383641	-1.220884	0.840316
O	-0.295853	-1.07435	2.052763
O	-0.626372	-2.253844	0.23391
N	-0.053864	-1.278076	-2.173365
O	1.145634	-1.546593	-2.137452
O	-0.889389	-1.863516	-2.854257
C	-0.118884	1.148954	-2.222672
H	-0.57332	2.046087	-1.80035
H	-0.471407	1.041323	-3.250131
H	0.96852	1.251045	-2.224227
Br	-3.565069	0.0	0.0
