18

C	-0.528677	0.008159	-1.433393
C	0.0	0.0	0.0
Br	0.429106	-1.407771	-2.402144
H	1.087696	0.0	0.0
N	-1.901008	-0.159717	-1.727911
H	-2.443316	0.519193	-1.209523
H	-2.211429	-1.103301	-1.552824
N	-0.06356	1.340193	-2.08819
O	1.058302	1.713861	-1.778304
O	-0.83382	1.909423	-2.846772
C	-0.565074	-1.126243	0.836768
H	-1.65501	-1.048397	0.924355
H	-0.1296	-1.086127	1.837734
H	-0.311274	-2.091448	0.394496
N	-0.393592	1.267758	0.680524
O	-1.398236	1.875825	0.274277
O	0.334169	1.655329	1.590382
Br	2.753774	0.0	0.0
