18

C	-0.418158	-0.013001	-1.469509
C	0.0	0.0	0.0
Br	-2.517126	0.101125	-1.518894
H	1.09239	0.0	0.0
N	0.198291	0.921475	-2.252006
H	-0.141307	0.99299	-3.198194
H	0.439921	1.781004	-1.781701
N	-0.144459	-1.35576	-2.170141
O	-0.573898	-1.45362	-3.312796
O	0.575148	-2.16152	-1.59668
C	-0.536399	-1.108175	0.877531
H	-1.624746	-1.111128	0.911859
H	-0.151775	-0.960352	1.886486
H	-0.16433	-2.06136	0.513478
N	-0.399237	1.336944	0.573909
O	-1.160647	1.357936	1.537593
O	0.09227	2.347115	0.064697
Br	3.362281	0.0	0.0
