18

C	-0.549083	-0.022035	-1.423244
C	0.0	0.0	0.0
Br	0.399175	-1.402021	-2.424413
H	1.087956	0.0	0.0
N	-1.937641	-0.269219	-1.519266
H	-2.211105	-0.267563	-2.494384
H	-2.414119	0.489471	-1.042715
N	-0.144347	1.295756	-2.154674
O	0.819963	1.912244	-1.731525
O	-0.838731	1.595266	-3.12218
C	-0.48367	-1.176869	0.836364
H	-0.191564	-2.106801	0.349596
H	0.008416	-1.127824	1.80829
H	-1.569038	-1.165067	0.956319
N	-0.440601	1.249947	0.703813
O	0.105961	1.504674	1.766148
O	-1.35604	1.917959	0.209438
Br	3.478434	0.0	0.0
