18

C	0.0	0.0	0.0
C	-0.362982	0.285609	-1.4745
F	1.407972	0.0	0.0
H	0.242503	-0.448146	-2.029093
N	-0.488438	1.003765	0.885751
H	-0.273936	0.75353	1.845756
H	-1.503982	1.005696	0.792934
N	-0.434107	-1.324257	0.344654
H	0.097838	-2.007471	-0.182073
H	-0.31129	-1.499057	1.334545
C	0.095135	1.676577	-1.88737
H	-0.493794	2.434808	-1.367038
H	-0.055182	1.795831	-2.962693
H	1.146278	1.836312	-1.643606
N	-1.745206	0.089963	-1.849345
H	-2.33909	0.836065	-1.50306
H	-2.123487	-0.738009	-1.401531
Br	-4.583217	0.0	0.0
