18

C	0.0	0.0	0.0
C	-0.370674	-0.344592	-1.440046
F	1.453292	0.0	0.0
H	0.128146	0.42738	-2.043859
N	-0.374861	1.342732	0.340624
H	0.074134	1.589107	1.216526
H	-1.379507	1.3446	0.496129
N	-0.472773	-0.990553	0.885401
H	-0.100098	-0.869242	1.817417
H	-0.255042	-1.905863	0.510378
C	-1.867146	-0.304501	-1.681939
H	-2.088503	-0.597827	-2.714333
H	-2.276819	0.694936	-1.541757
H	-2.415754	-0.954848	-1.003532
N	0.152932	-1.690929	-1.711031
H	-0.26789	-2.046412	-2.559548
H	1.154354	-1.636768	-1.849687
Br	-5.138959	0.0	0.0
