18

C	0.0	0.0	0.0
C	-0.368282	-0.142619	-1.496491
F	1.410544	0.0	0.0
H	0.431006	-0.770965	-1.911984
N	-0.489242	1.205589	0.570372
H	-0.301305	1.19027	1.565434
H	-0.037213	2.007301	0.154334
N	-0.437454	-1.075408	0.838421
H	-1.426172	-0.912025	1.015967
H	-0.409914	-1.929219	0.293636
C	-0.341186	1.203875	-2.222714
H	-1.159128	1.832778	-1.864821
H	-0.479632	1.046436	-3.296959
H	0.615705	1.721843	-2.08532
N	-1.609978	-0.887225	-1.630452
H	-2.387264	-0.437831	-1.137305
H	-1.874331	-0.932342	-2.608094
Br	-4.537277	0.0	0.0
