18

C	0.0	0.0	0.0
C	-0.414766	0.184461	-1.459679
F	1.423335	0.0	0.0
H	-1.503245	0.296252	-1.418123
N	-0.458841	1.040057	0.864389
H	-1.471165	0.902934	0.934643
H	-0.317285	1.911427	0.362681
N	-0.44937	-1.245989	0.515182
H	-0.368015	-1.221978	1.523826
H	0.119416	-1.996548	0.148634
C	-0.066413	-1.014002	-2.337055
H	1.006281	-1.231105	-2.290044
H	-0.631472	-1.896075	-2.028249
H	-0.326985	-0.801966	-3.378371
N	0.166212	1.451051	-1.921309
H	-0.29265	1.734414	-2.777523
H	1.148887	1.308008	-2.124335
Br	-3.989604	0.0	0.0
