18

C	0.0	0.0	0.0
C	-0.348205	0.423258	-1.446934
F	1.409627	0.0	0.0
H	0.375979	-0.134456	-2.051993
N	-0.48118	0.933534	0.966087
H	0.054669	1.790768	0.949884
H	-0.478429	0.540018	1.89779
N	-0.447387	-1.338653	0.243927
H	-0.136829	-1.632179	1.16475
H	-1.465615	-1.314474	0.249465
C	-0.108428	1.915297	-1.645039
H	-0.196972	2.148044	-2.707405
H	0.883744	2.218031	-1.296398
H	-0.872254	2.485791	-1.111152
N	-1.668649	0.088549	-1.92917
H	-1.78063	-0.915792	-1.980143
H	-2.408421	0.420611	-1.310473
Br	-4.517828	0.0	0.0
