18

C	0.0	0.0	0.0
C	-0.375331	0.125483	-1.483686
F	1.44006	0.0	0.0
H	-1.469729	0.103864	-1.500016
N	-0.458745	1.112099	0.742053
H	-0.953923	0.787105	1.560259
H	-1.077014	1.680672	0.181943
N	-0.394451	-1.219612	0.644903
H	-0.003682	-2.016961	0.160611
H	-1.413023	-1.264139	0.597997
C	0.170491	-1.026954	-2.324608
H	1.2588	-1.083738	-2.238634
H	-0.261408	-1.98751	-2.03223
H	-0.087391	-0.867093	-3.375993
N	0.054628	1.445968	-1.951992
H	-0.183439	1.547912	-2.931644
H	1.063137	1.503637	-1.862779
Br	-3.803355	0.0	0.0
