18

C	0.0	0.0	0.0
C	-0.299453	0.178317	-1.517985
F	1.39504	0.0	0.0
H	0.333491	-0.595927	-1.965817
N	-0.433115	1.137926	0.771728
H	-1.453567	1.137171	0.749346
H	-0.156818	1.000465	1.740327
N	-0.432604	-1.304447	0.438845
H	-0.210443	-1.405414	1.426105
H	-1.450462	-1.308351	0.372526
C	0.192744	1.541306	-1.989967
H	-0.447791	2.331568	-1.594965
H	0.149056	1.567607	-3.081106
H	1.213641	1.734186	-1.658615
N	-1.641702	-0.023162	-2.010687
H	-2.301883	0.624873	-1.596418
H	-2.004554	-0.936067	-1.768355
Br	-4.233309	0.0	0.0
