17

C	-0.504137	0.004972	-1.448918
C	0.0	0.0	0.0
Br	0.235612	-1.733297	-2.277679
H	1.0992	0.0	0.0
N	-1.910493	0.007505	-1.46241
H	-2.285324	-0.132977	-2.391229
H	-2.250915	-0.704256	-0.824283
C	0.117007	1.120598	-2.259251
H	-0.24883	2.074811	-1.869564
H	-0.165761	1.035682	-3.311284
H	1.204152	1.079662	-2.169395
N	-0.574294	-1.144087	0.731629
H	-0.459806	-0.969913	1.725147
H	0.016514	-1.940604	0.512085
C	-0.453962	1.239767	0.639854
N	-0.806	2.233956	1.156823
Br	3.515335	0.0	0.0
