17

C	-0.427299	-0.050269	-1.486694
C	0.0	0.0	0.0
Br	0.006069	1.696719	-2.28458
H	1.0945	0.0	0.0
N	0.329596	-1.054127	-2.20066
H	0.167052	-1.922638	-1.694411
H	1.321055	-0.843548	-2.078706
C	-1.913394	-0.291152	-1.660583
H	-2.153675	-0.305316	-2.724002
H	-2.497908	0.486666	-1.165572
H	-2.165671	-1.262511	-1.229091
N	-0.373145	-1.281312	0.622863
H	0.374845	-1.548962	1.249123
H	-1.223607	-1.192199	1.162012
C	-0.548042	1.141871	0.731418
N	-1.052629	1.983074	1.379522
Br	3.455209	0.0	0.0
