17

C	-0.333191	-0.040128	-1.514911
C	0.0	0.0	0.0
Br	0.101608	1.814344	-2.271578
H	1.097408	0.0	0.0
N	0.491234	-1.038011	-2.077584
H	1.468259	-0.883849	-1.824223
H	0.400289	-1.078134	-3.083825
C	-1.797628	-0.249165	-1.844609
H	-2.410297	0.518769	-1.369311
H	-1.957066	-0.196014	-2.923979
H	-2.107377	-1.240148	-1.502087
N	-0.400932	-1.201911	0.723825
H	0.159794	-1.969034	0.381003
H	-1.375968	-1.414462	0.563051
C	-0.578022	1.162282	0.670468
N	-1.12388	2.035786	1.234346
Br	3.477444	0.0	0.0
