17

C	-0.285889	0.035432	-1.501717
C	0.0	0.0	0.0
Br	-2.267395	0.139903	-1.800388
H	1.09917	0.0	0.0
N	0.299683	1.246972	-2.008994
H	1.269607	1.278952	-1.688597
H	0.299497	1.232901	-3.023136
C	0.19764	-1.242304	-2.165108
H	-0.304968	-2.117069	-1.75724
H	0.029614	-1.186783	-3.244279
H	1.272139	-1.319566	-1.965974
N	-0.460683	-1.221208	0.638068
H	0.139703	-1.414195	1.430252
H	-1.410207	-1.105674	0.969556
C	-0.464917	1.221966	0.672424
N	-0.857367	2.131259	1.305657
Br	3.453638	0.0	0.0
