16

C	-0.237795	0.05315	-1.398855
C	0.018193	0.040388	0.095224
Br	-2.17925	0.186596	-1.800068
H	1.086309	-0.188144	0.111167
H	-0.147506	1.069673	0.43123
C	0.513589	1.169095	-2.079149
H	0.350951	1.14655	-3.155128
H	1.563591	0.938667	-1.821667
H	0.175563	2.126225	-1.674703
N	0.171482	-1.276336	-2.028195
O	0.434845	-1.278851	-3.222768
O	0.120616	-2.278847	-1.323191
N	-0.854864	-0.83224	0.889616
H	-0.584437	-1.784583	0.678504
H	-0.620224	-0.669226	1.862754
F	2.495394	-0.410975	-1.037335
