16

C	-0.329922	-0.024284	-1.502731
C	-0.172802	0.142196	-0.002258
Br	-0.171479	1.751988	-2.354078
H	0.808645	0.603916	0.15046
H	-0.969142	0.790062	0.3689
C	0.672765	-0.984037	-2.090264
H	0.75342	-0.87765	-3.171599
H	1.619164	-0.8498	-1.546497
H	0.335249	-1.992347	-1.84907
N	-1.763195	-0.451884	-1.827875
O	-2.670274	0.031327	-1.157183
O	-1.927663	-1.232564	-2.762065
N	-0.205605	-1.197253	0.573382
H	0.817406	-1.421984	0.602573
H	-0.553333	-1.12938	1.522569
F	2.384085	-1.042289	0.219904
