16

C	-0.528453	-0.043808	-1.548384
C	0.112389	-0.002973	-0.169069
Br	-0.177117	-1.780244	-2.419713
H	1.19764	-0.157627	-0.245098
H	-0.298701	-0.85147	0.401031
C	-2.017153	0.198726	-1.533353
H	-2.481992	-0.559267	-0.898959
H	-2.188367	1.18897	-1.112088
H	-2.448128	0.150001	-2.532176
N	0.161665	0.989089	-2.430875
O	1.383416	0.960023	-2.472629
O	-0.551613	1.776458	-3.050124
N	-0.10545	1.310717	0.39553
H	0.780258	1.39774	1.031034
H	-0.911122	1.26998	1.011313
F	1.971872	1.008666	1.755499
