16

C	-0.250287	0.013674	-1.448625
C	0.046601	0.101637	0.032367
Br	0.096936	1.74165	-2.294495
H	1.130504	0.242447	0.062717
H	-0.122244	-0.907256	0.433841
C	0.582219	-1.05892	-2.116235
H	0.228255	-2.036317	-1.765268
H	1.615082	-0.893816	-1.727419
H	0.488551	-1.008233	-3.201811
N	-1.727999	-0.290104	-1.705512
O	-2.39911	-0.668898	-0.742192
O	-2.147201	-0.24035	-2.857011
N	-0.721622	1.135762	0.714682
H	-0.163106	1.511031	1.468384
H	-1.565432	0.738038	1.103685
F	2.72195	-0.37416	-0.478287
