14
Coordinates from ORCA-job run
  C   -0.59481163657720     -0.03022467093285      0.07321106821436
  C   0.75268661344467     -0.52126909282041     -0.44203585339515
  Cl  -1.58621208554881      0.60112234616826     -1.29867007759665
  H   1.30085091428448     -0.86796899496835      0.44220446296115
  H   0.52537767725219     -1.39658656333945     -1.05804959842533
  N   -0.41900777174891      1.15054115278218      1.02773078326654
  O   -1.43600113999147      1.55290933736589      1.57645211620902
  O   0.71634589103104      1.57803143512261      1.20840644695947
  N   -1.23800466570052     -1.02165713123019      0.84744091132849
  H   -1.37886135967337     -1.86468202510611      0.30602654794518
  H   -2.12941822260010     -0.68414889151317      1.19084334287207
  N   1.44506813919636      0.45681616547805     -1.25042653867580
  H   2.01447939477432      0.00445532956546     -1.94973934837215
  H   2.02750825185731      1.04366160342809     -0.67239426329121
