14
Coordinates from ORCA-job run
  C   -0.75025596973850     -0.15172578840520     -0.08218554751554
  C   0.46440715406410     -0.16104951445880     -0.99437762496635
  Cl  -2.24724633203708     -0.08937229184718     -1.04273791668538
  H   0.38887574346867      0.66690756443277     -1.70151710810559
  H   0.41336023238848     -1.10012814880786     -1.54808412474788
  N   -0.75035268250846      1.20238880639883      0.70065735735490
  O   -1.32001854996679      1.20060389300904      1.78472607216007
  O   -0.19479815298187      2.16458578048989      0.17963651056460
  N   -0.75309544261419     -1.25283232233562      0.78201001420657
  H   0.17098934255890     -1.32340118307543      1.19593977304835
  H   -1.46373445552588     -1.16330805840029      1.49651975740056
  N   1.65805971056165     -0.13736496762556     -0.15669345492452
  H   1.97671379252778      0.81461125818307     -0.03248976235942
  H   2.40509560980318     -0.66991502755766     -0.57940394543040
