14
Coordinates from ORCA-job run
  C   -0.80028871076983     -0.05435202493031     -0.00062850092751
  C   0.41154152636769     -0.19070013362670     -0.92434427226621
  Cl  -2.27917791775317     -0.01220490334036     -0.97401453947797
  H   0.32906876754491     -1.16761664269484     -1.40683366962495
  H   0.36808965025143      0.58274638697938     -1.69579958938878
  N   -0.63646752153738      1.33152248404859      0.66553344588283
  O   -0.52317153623180      2.27933472156177     -0.10574956190885
  O   -0.55912239957235      1.37611853843830      1.88408784818340
  N   -0.93374164696105     -1.01792424705502      1.02843334555596
  H   -0.02992836483092     -1.13691722318180      1.47337740766747
  H   -1.25451452731123     -1.89556446606102      0.64159585296591
  N   1.60509833268665     -0.14994573092548     -0.08925058651520
  H   2.33422436852726     -0.73860484789400     -0.46607684041723
  H   1.96738997958980      0.79310808868148     -0.03033033972886
