14
Coordinates from ORCA-job run
  C   -0.57216688662110     -0.03027639789040      0.00197327882306
  C   0.79605808215955      0.33608150785449     -0.54948658614263
  Cl  -1.75372930564221     -0.32419463458786     -1.28038080773169
  H   1.40417414135742      0.64308073746616      0.32130132912089
  H   0.68533122037781      1.20632123950066     -1.19490872205181
  N   -1.10606496486850      1.23550990600931      0.75190035405840
  O   -1.01198070459213      2.30906767010960      0.17176404684232
  O   -1.57114310285062      1.05506333267238      1.87281218996190
  N   -0.49835252846733     -1.15769060671053      0.84732360420432
  H   -1.41616492950802     -1.44633984291172      1.16088129339340
  H   0.06872326919345     -0.94633534019805      1.66045944137180
  N   1.31915302212786     -0.77639406840423     -1.31266829279308
  H   1.45680686132226     -1.57882218264390     -0.71339520286604
  H   2.20035582601157     -0.52407132026589     -1.73857592619084
