14
Coordinates from ORCA-job run
  C   -0.67941470384098     -0.04918893533759      0.00478798372954
  C   0.74059116490201     -0.47852574858801     -0.35230901527457
  Cl  -1.56646159961954      0.33402984971194     -1.47318054784173
  H   1.22120872278748     -0.76623999831015      0.58566078774500
  H   0.65202365501189     -1.37539956083116     -0.98289431560900
  N   -0.53408752133310      1.20731563276449      0.87222198300229
  O   -0.91561152121609      2.29092372420069      0.47233820233780
  O   -0.00225063310185      0.96743849267632      1.95347100882794
  N   -1.45596460434701     -0.96600148151053      0.78375287787154
  H   -1.70659758113170     -1.77574139543451      0.23236245825743
  H   -0.93152716337268     -1.24643498432763      1.60363566652942
  N   1.47563036082951      0.62897119933938     -0.92981950982976
  H   1.23209591104803      0.75738825931361     -1.90281686247253
  H   2.47136551338402      0.47046494633315     -0.86621071727338
