15

C	0.0	0.0	0.0
C	-0.432675	-0.184476	-1.456082
F	1.35348	0.0	0.0
H	-1.505541	-0.378243	-1.465064
H	-0.392231	-0.806533	0.639447
N	-0.591549	1.225466	0.535231
O	-0.378307	1.429205	1.756769
O	-1.744854	1.43741	-0.056857
N	0.238263	-1.447416	-1.926793
O	1.322288	-1.350072	-2.49357
O	-0.328356	-2.50879	-1.672447
N	-0.076825	0.882948	-2.351064
H	-0.672719	1.654142	-2.076231
H	0.886507	1.14665	-2.177914
H	-2.798833	0.0	0.0
