15

C	0.0	0.0	0.0
C	-0.480148	0.054256	-1.44993
Cl	1.798454	0.0	0.0
H	0.000794	0.904832	-1.942239
H	-1.561083	0.239848	-1.35244
C	-0.312117	1.303248	0.650794
N	-0.479429	2.342476	1.174143
N	-0.589237	-1.118628	0.655611
H	-0.410638	-1.052768	1.654844
H	-1.625556	-0.922439	0.513516
C	-0.238897	-1.240924	-2.211427
H	-0.585268	-1.128313	-3.243201
H	0.820061	-1.512209	-2.233119
H	-0.793706	-2.056873	-1.749285
H	-3.010241	0.0	0.0
