15

C	0.0	0.0	0.0
C	-0.466176	0.100877	-1.444182
Cl	1.851169	0.0	0.0
H	-1.565349	0.056663	-1.350162
H	-0.11339	-0.809328	-1.940149
C	-0.287425	1.256796	0.736373
N	-0.445923	2.242775	1.357026
N	-0.570084	-1.159949	0.590656
H	-1.609491	-0.968178	0.471603
H	-0.383407	-1.153654	1.590127
C	-0.042069	1.360321	-2.184195
H	-0.411965	1.322921	-3.212203
H	-0.473727	2.243774	-1.711782
H	1.042097	1.481089	-2.217356
H	-3.000591	0.0	0.0
