15

C	0.0	0.0	0.0
C	-0.457668	-0.06314	-1.464845
Cl	1.801993	0.0	0.0
H	-1.542937	0.116323	-1.38907
H	0.021584	0.748781	-2.02358
C	-0.345091	1.33059	0.545147
N	-0.517194	2.410041	0.972062
N	-0.55737	-0.993319	0.867596
H	-1.590371	-0.793838	0.777299
H	-0.392645	-1.903387	0.446137
C	-0.199188	-1.409179	-2.126733
H	-0.844293	-2.179611	-1.696404
H	0.844703	-1.725514	-2.035579
H	-0.440802	-1.349488	-3.191938
H	-3.012681	0.0	0.0
