17

C	0.0	0.0	0.0
C	-0.328096	-0.104248	-1.493494
Cl	1.803614	0.0	0.0
H	0.376714	-0.807453	-1.933699
C	-0.475863	1.17108	0.726691
N	-0.599551	2.083209	1.459427
C	-0.360722	-1.29101	0.75048
H	0.080156	-1.229495	1.74823
H	0.066087	-2.148469	0.227062
H	-1.446816	-1.326227	0.783966
N	-0.096613	1.167915	-2.246765
O	-0.445698	2.225791	-1.741472
O	0.414478	1.031675	-3.358824
N	-1.66945	-0.646636	-1.951164
O	-2.369783	0.072454	-2.645523
O	-1.782349	-1.856414	-1.801171
F	-2.457895	0.0	0.0
