16

C	-0.600151	-0.064218	-1.392498
C	0.0	0.0	0.0
Cl	-2.387819	-0.268431	-1.328024
H	1.091833	0.0	0.0
N	-0.284427	1.247169	-2.126243
O	0.87437	1.32451	-2.513534
O	-1.152614	2.098579	-2.225415
C	-0.056453	-1.159358	-2.187471
N	0.333217	-2.031351	-2.871919
N	-0.317074	-1.251609	0.662797
H	0.481055	-1.49072	1.244542
H	-1.150435	-1.178906	1.234523
N	-0.372386	1.252388	0.617266
H	0.39618	1.53109	1.219111
H	-1.223842	1.178411	1.16026
H	2.679594	0.0	0.0
