16

C	-0.584908	0.023702	-1.415403
C	0.0	0.0	0.0
Cl	-0.015875	1.434292	-2.337598
H	1.096975	0.0	0.0
N	-0.116651	-1.241758	-2.14791
O	-0.949473	-2.131075	-2.282897
O	1.05218	-1.270145	-2.492023
C	-2.045762	0.028359	-1.402179
N	-3.219864	0.054373	-1.354671
N	-0.419914	-1.231225	0.612934
H	0.338731	-1.577673	1.189078
H	-1.261553	-1.102972	1.161438
N	-0.516332	1.177755	0.715899
H	-0.054024	1.994038	0.320696
H	-0.121044	1.093695	1.649964
H	2.795036	0.0	0.0
