16

C	-0.482198	-0.009876	-1.435642
C	0.0	0.0	0.0
Cl	-2.266912	0.128914	-1.578023
H	1.095941	0.0	0.0
N	0.112774	1.173842	-2.219792
O	0.791728	1.98205	-1.607838
O	-0.13769	1.181457	-3.422475
C	-0.072216	-1.211867	-2.156773
N	0.240957	-2.194996	-2.717701
N	-0.470857	-1.218625	0.682571
H	-0.226526	-2.028047	0.116091
H	0.145903	-1.290501	1.490577
N	-0.491929	1.174589	0.677541
H	-1.183608	0.888895	1.358925
H	0.293071	1.621702	1.136639
H	2.751535	0.0	0.0
