16

C	-0.423881	-0.04706	-1.481218
C	0.0	0.0	0.0
Cl	0.276109	-1.445105	-2.29271
H	1.100347	0.0	0.0
N	-1.952736	-0.137034	-1.551482
O	-2.537633	0.92681	-1.323133
O	-2.487586	-1.219851	-1.723614
C	-0.040217	1.168408	-2.195332
N	0.264583	2.12691	-2.803144
N	-0.505147	-1.189715	0.659093
H	0.302179	-1.686912	1.026165
H	-1.059434	-0.878681	1.44778
N	-0.382883	1.234285	0.654521
H	-1.156279	1.711852	0.209614
H	0.43383	1.836722	0.664258
H	2.695079	0.0	0.0
