16

C	-0.515754	0.058848	-1.431655
C	0.0	0.0	0.0
Cl	0.206132	-1.213681	-2.437537
H	1.099262	0.0	0.0
N	-2.041845	-0.144114	-1.415926
O	-2.467258	-1.292617	-1.444797
O	-2.715045	0.872222	-1.266344
C	-0.25472	1.355426	-2.047139
N	-0.029336	2.349556	-2.630888
N	-0.486489	-1.207904	0.679277
H	-0.570328	-1.974049	0.018103
H	0.276847	-1.471873	1.302125
N	-0.409655	1.203568	0.684459
H	0.383364	1.53577	1.223853
H	-1.184386	0.993276	1.302271
H	2.70548	0.0	0.0
