16

C	-0.580151	0.01053	-1.420952
C	0.0	0.0	0.0
Cl	0.104765	1.309254	-2.407813
H	1.092331	0.0	0.0
N	-0.253629	-1.323499	-2.099196
O	-1.196486	-2.069683	-2.343093
O	0.924246	-1.542531	-2.315627
C	-2.034636	0.150185	-1.377229
N	-3.192455	0.306136	-1.243479
N	-0.387003	-1.264352	0.597854
H	0.389753	-1.58247	1.167745
H	-1.21741	-1.182797	1.170419
N	-0.399513	1.228172	0.648109
H	0.356671	1.517555	1.259547
H	-1.250962	1.11379	1.186023
H	2.730388	0.0	0.0
