16

C	-0.491575	-0.012206	-1.438344
C	0.0	0.0	0.0
Cl	-2.287174	-0.105556	-1.536635
H	1.093184	0.0	0.0
N	-0.029067	1.282618	-2.124016
O	-0.806487	2.221047	-2.199677
O	1.139996	1.257546	-2.490517
C	0.056776	-1.132641	-2.195013
N	0.454614	-2.031527	-2.838572
N	-0.376631	-1.264249	0.597843
H	0.353488	-1.524643	1.252425
H	-1.263826	-1.199338	1.08156
N	-0.3896	1.237737	0.628894
H	-1.294898	1.175575	1.077577
H	0.321387	1.475409	1.311711
H	2.698126	0.0	0.0
