16

C	-0.339237	-0.031405	-1.498562
C	0.0	0.0	0.0
Br	-2.299959	-0.31894	-1.73059
H	1.103984	0.0	0.0
C	-0.06458	1.256222	-2.14079
N	0.148515	2.293091	-2.65243
N	0.355604	-1.086705	-2.190492
H	0.235248	-1.905975	-1.596528
H	1.348671	-0.84911	-2.139611
N	-0.391291	-1.264962	0.586757
H	-1.29395	-1.151474	1.033522
H	0.298472	-1.532053	1.278591
N	-0.59373	1.138124	0.697266
H	-0.472577	1.9786	0.138566
H	-0.029955	1.284628	1.528846
Cl	3.367285	0.0	0.0
