16

C	-0.543496	-0.007792	-1.440703
C	0.0	0.0	0.0
Br	0.293851	1.563668	-2.436439
H	1.09627	0.0	0.0
C	-0.108741	-1.185513	-2.190409
N	0.211175	-2.096608	-2.859508
N	-1.959167	0.073512	-1.416761
H	-2.34425	0.169008	-2.347183
H	-2.208404	0.865497	-0.832574
N	-0.447715	-1.225463	0.610005
H	0.15341	-1.466546	1.387108
H	-1.416136	-1.158307	0.8976
N	-0.551024	1.202091	0.659882
H	0.029731	1.990151	0.386868
H	-0.393246	1.071118	1.653434
Cl	3.395043	0.0	0.0
