16

C	-0.454397	0.017455	-1.445863
C	0.0	0.0	0.0
Br	-2.740049	0.04885	-1.229442
H	1.095682	0.0	0.0
C	-0.319922	1.271632	-2.160694
N	-0.167637	2.24798	-2.798104
N	-0.069711	-1.072855	-2.135693
H	-0.31283	-1.151623	-3.108872
H	-0.051301	-1.910482	-1.567679
N	-0.351748	-1.314793	0.53878
H	0.298694	-1.540554	1.280729
H	-1.299341	-1.305762	0.898218
N	-0.431393	1.196036	0.675752
H	-1.394889	1.127915	0.980107
H	0.180931	1.378884	1.459852
Cl	3.321223	0.0	0.0
