16

C	-0.552228	-0.026317	-1.443645
C	0.0	0.0	0.0
Br	0.26232	1.522002	-2.472689
H	1.097036	0.0	0.0
C	-0.131772	-1.221363	-2.173595
N	0.130634	-2.206626	-2.757766
N	-1.967104	0.047435	-1.390953
H	-2.381413	0.162502	-2.305845
H	-2.192173	0.826079	-0.775763
N	-0.440353	-1.177147	0.725128
H	-1.323973	-1.516821	0.366268
H	0.265141	-1.897197	0.64225
N	-0.567705	1.191344	0.64395
H	-0.570203	0.97521	1.633637
H	0.079183	1.960165	0.502779
Cl	3.413797	0.0	0.0
