16

C	-0.591644	-0.00401	-1.421674
C	0.0	0.0	0.0
Br	-0.009923	1.565382	-2.426257
H	1.097743	0.0	0.0
C	-0.112114	-1.175543	-2.176045
N	0.150644	-2.158525	-2.765525
N	-2.03562	0.015213	-1.313425
H	-2.456691	-0.11647	-2.225725
H	-2.272735	-0.768772	-0.709293
N	-0.506178	-1.257686	0.619167
H	-0.332815	-1.164116	1.614868
H	0.100292	-2.015102	0.311101
N	-0.44591	1.171278	0.697899
H	0.189616	1.380943	1.454496
H	-1.395066	1.069704	1.02868
Cl	3.419102	0.0	0.0
