16

C	-0.302158	-0.071183	-1.496817
C	0.0	0.0	0.0
Br	-2.241912	-0.414534	-1.827681
H	1.105595	0.0	0.0
C	-0.052151	1.225133	-2.141675
N	0.210361	2.205731	-2.734171
N	0.449215	-1.162271	-2.057328
H	1.422474	-1.047482	-1.761985
H	0.401292	-1.149865	-3.069652
N	-0.508763	-1.20194	0.668063
H	0.128793	-1.389869	1.436475
H	-0.408272	-1.982629	0.024704
N	-0.508077	1.215341	0.580539
H	-1.372309	0.99825	1.059743
H	0.161379	1.577309	1.245403
Cl	3.361169	0.0	0.0
