16

C	-0.32427	-0.043389	-1.502811
C	0.0	0.0	0.0
Br	-2.282985	-0.329326	-1.755705
H	1.103721	0.0	0.0
C	-0.038748	1.241236	-2.14542
N	0.203316	2.280047	-2.638298
N	0.377738	-1.102462	-2.177262
H	1.371075	-0.864083	-2.129997
H	0.253905	-1.917135	-1.577715
N	-0.399553	-1.258456	0.59271
H	-1.319844	-1.150509	1.002983
H	0.268869	-1.513333	1.308309
N	-0.604943	1.142929	0.675031
H	-0.126862	1.234898	1.56645
H	-0.386331	1.991533	0.160963
Cl	3.373413	0.0	0.0
