20

C	0.0	0.0	0.0
C	-0.479545	-0.135377	-1.441406
F	1.370812	0.0	0.0
H	-0.013507	0.736946	-1.921894
C	-0.498666	1.233075	0.709419
H	-0.221746	2.102553	0.109991
H	-1.580016	1.201939	0.836945
H	-0.023838	1.304652	1.690466
N	-0.361609	-1.237074	0.829704
O	0.220121	-2.276607	0.531186
O	-1.179659	-1.114486	1.734242
C	-1.993991	-0.020565	-1.545617
H	-2.370062	0.975877	-1.320551
H	-2.525609	-0.682204	-0.863002
H	-2.322639	-0.27175	-2.555218
C	0.042127	-1.381471	-2.156892
H	-0.502086	-2.272268	-1.844676
H	1.103477	-1.547425	-1.975876
H	-0.114696	-1.251053	-3.230399
Cl	-5.010385	0.0	0.0
