20

C	0.0	0.0	0.0
C	-0.543829	-0.20758	-1.402827
F	1.36836	0.0	0.0
H	-1.574331	-0.549522	-1.264189
C	-0.525672	1.197884	0.73967
H	-0.183575	2.105491	0.240664
H	-0.143678	1.184644	1.759921
H	-1.619163	1.154464	0.735729
N	-0.307992	-1.243276	0.874618
O	0.139352	-1.19955	2.019524
O	-0.907075	-2.195047	0.388746
C	0.270171	-1.236452	-2.187105
H	1.267258	-0.852185	-2.420271
H	-0.239928	-1.452572	-3.129784
H	0.375765	-2.175907	-1.645515
C	-0.598231	1.115854	-2.166306
H	-1.356891	1.776754	-1.746682
H	-0.874687	0.918865	-3.205717
H	0.373093	1.623401	-2.167804
Cl	-3.829774	0.0	0.0
