18

C	0.0	0.0	0.0
C	-0.370133	-0.226551	-1.51137
Cl	1.782097	0.0	0.0
H	0.076075	-1.221501	-1.667492
N	-0.39222	1.385674	0.520382
O	-0.51982	2.267092	-0.32208
O	-0.505244	1.523821	1.730825
N	-0.539564	-0.947399	0.908876
H	-0.488071	-1.868221	0.485359
H	-1.522307	-0.720048	1.064654
C	0.250502	0.7106	-2.55288
H	1.293035	0.957583	-2.357897
H	0.179118	0.210796	-3.522035
H	-0.319024	1.63777	-2.60288
N	-1.76946	-0.326391	-1.81044
H	-2.302548	-0.893997	-1.160874
H	-2.224271	0.576956	-1.777936
Br	-4.442583	0.0	0.0
