18

C	0.0	0.0	0.0
C	-0.505493	0.068969	-1.45944
Cl	1.765365	0.0	0.0
H	-1.57688	0.276542	-1.359668
N	-0.375493	1.327807	0.723026
O	-0.687441	2.285414	0.023861
O	-0.272674	1.342179	1.940859
N	-0.524197	-1.033934	0.810418
H	-0.210077	-1.931842	0.470191
H	-1.548675	-0.974925	0.75668
C	-0.350948	-1.297373	-2.11586
H	-0.690795	-1.232169	-3.154488
H	-0.979351	-2.038296	-1.625104
H	0.691102	-1.626496	-2.11509
N	0.203694	1.071606	-2.256708
H	-0.282668	1.954061	-2.161193
H	0.154524	0.798641	-3.230804
Br	-3.770535	0.0	0.0
