13

C	-0.408611	-0.055913	-1.470157
C	0.0	0.0	0.0
Cl	-0.028772	1.46515	-2.331665
H	1.094037	0.0	0.0
H	0.205838	-0.838246	-1.91683
C	-1.825015	-0.372254	-1.655675
N	-2.962761	-0.638392	-1.77903
N	-0.355459	-1.291177	0.590459
H	-1.200584	-1.246115	1.144771
H	0.421824	-1.570702	1.176481
C	-0.577351	1.139656	0.696162
N	-1.059582	2.023228	1.306104
F	2.535182	0.0	0.0
