13

C	-0.358763	-0.084155	-1.465395
C	0.0	0.0	0.0
Cl	-2.150569	-0.076443	-1.776518
H	1.096098	0.0	0.0
H	0.037622	0.787699	-1.989526
C	0.198929	-1.296811	-2.059835
N	0.623647	-2.255127	-2.58851
N	-0.417688	-1.189471	0.722645
H	0.330679	-1.438186	1.356225
H	-1.274299	-1.050573	1.242317
C	-0.478308	1.250323	0.574841
N	-0.866124	2.238602	1.082896
F	2.515071	0.0	0.0
