12

C	-0.352897	-0.006019	-1.491582
C	0.0	0.0	0.0
Br	0.423236	1.609721	-2.309183
H	1.093125	0.0	0.0
H	-0.373726	0.924452	0.447698
C	0.224437	-1.169681	-2.168021
N	0.664754	-2.09562	-2.742395
C	-1.792078	0.04352	-1.761583
N	-2.954334	0.090343	-1.935647
C	-0.568549	-1.156555	0.659945
N	-1.016104	-2.098733	1.204219
F	2.493463	0.0	0.0
