12

C	-0.248091	0.000551	-1.492066
C	0.0	0.0	0.0
Br	-2.194449	-0.126042	-1.994187
H	1.095149	0.0	0.0
H	-0.350433	-0.939873	0.432789
C	0.246333	1.226724	-2.119568
N	0.620321	2.211585	-2.640158
C	0.39351	-1.162205	-2.108005
N	0.884974	-2.093323	-2.629443
C	-0.587822	1.137008	0.664648
N	-1.047297	2.062691	1.22658
F	2.465545	0.0	0.0
