12

C	-0.420996	0.043612	-1.47131
C	0.0	0.0	0.0
Br	0.338315	-1.532446	-2.375634
H	1.105188	0.0	0.0
H	-0.359231	-0.937046	0.434407
C	-1.874147	-0.029209	-1.647571
N	-3.047421	-0.090679	-1.689271
C	0.093515	1.236825	-2.145468
N	0.453822	2.203936	-2.7075
C	-0.544035	1.130538	0.723384
N	-0.955587	2.048579	1.333701
F	2.489941	0.0	0.0
