12

C	-0.24638	-0.186682	-1.476632
C	0.0	0.0	0.0
Br	-2.194819	-0.202792	-1.99311
H	1.103549	0.0	0.0
H	-0.356604	0.982578	0.316225
C	0.342174	0.932515	-2.21606
N	0.744635	1.85939	-2.813059
C	0.295885	-1.453736	-1.970184
N	0.662688	-2.486369	-2.392974
C	-0.542273	-1.049667	0.82569
N	-0.923091	-1.880602	1.566332
F	2.462798	0.0	0.0
