12

C	-0.364337	-0.354229	-1.441548
C	0.0	0.0	0.0
Br	0.398718	-2.108258	-1.91856
H	1.105152	0.0	0.0
H	-0.339652	1.023027	0.198646
C	-1.805473	-0.44515	-1.689137
N	-2.970772	-0.498719	-1.835865
C	0.214708	0.649679	-2.337259
N	0.630105	1.500349	-3.032656
C	-0.570326	-0.916981	0.959998
N	-0.987706	-1.642875	1.78631
F	2.488123	0.0	0.0
