12

C	-0.339232	0.204623	-1.48016
C	0.0	0.0	0.0
Br	0.375378	1.955741	-2.033117
H	1.103388	0.0	0.0
H	-0.380124	0.84887	0.573841
C	0.298989	-0.818105	-2.312771
N	0.760488	-1.647871	-3.005758
C	-1.775705	0.233088	-1.766003
N	-2.93793	0.251025	-1.946708
C	-0.562507	-1.242181	0.484954
N	-1.006658	-2.253065	0.892307
F	2.491532	0.0	0.0
