17

C	-0.356279	-0.221984	-1.472564
C	0.0	0.0	0.0
Br	0.035279	1.693215	-2.456109
H	1.096813	0.0	0.0
N	0.511628	-1.16845	-2.010104
H	1.478956	-0.959479	-1.755772
H	0.420818	-1.261797	-3.013008
N	-1.71872	-0.50143	-1.701155
H	-1.902629	-0.620152	-2.689814
H	-2.283897	0.270029	-1.366765
C	-0.433035	-1.21256	0.841811
H	-0.02359	-1.103691	1.848654
H	-1.519536	-1.299773	0.89603
H	-0.021973	-2.116819	0.393846
C	-0.576062	1.213508	0.558205
N	-1.115652	2.117657	1.080984
Br	3.468755	0.0	0.0
