17

C	-0.372988	0.075424	-1.481312
C	0.0	0.0	0.0
Br	0.070465	-1.993562	-2.300428
H	1.094992	0.0	0.0
N	-1.736117	0.253529	-1.744646
H	-1.923266	0.292717	-2.739088
H	-2.26926	-0.508086	-1.347965
N	0.4685	0.953045	-2.129576
H	0.362291	0.973531	-3.134123
H	1.44202	0.825504	-1.851096
C	-0.531989	-1.173441	0.816232
H	-1.626373	-1.205267	0.827097
H	-0.188108	-1.058267	1.846069
H	-0.142056	-2.107917	0.420021
C	-0.444826	1.257793	0.611451
N	-0.859546	2.201385	1.176118
Br	3.456974	0.0	0.0
