17

C	-0.372624	-0.065711	-1.497285
C	0.0	0.0	0.0
Br	0.10078	1.761671	-2.278038
H	1.094262	0.0	0.0
N	0.42473	-0.990062	-2.250838
H	0.193457	-1.92744	-1.937892
H	1.409585	-0.814931	-2.052018
N	-1.741036	-0.37633	-1.69539
H	-1.941283	-0.370754	-2.688341
H	-2.332733	0.30078	-1.228841
C	-0.418899	-1.280434	0.738522
H	0.022459	-2.149497	0.248057
H	-1.502621	-1.400955	0.773508
H	-0.020566	-1.243864	1.754383
C	-0.576221	1.151733	0.678817
N	-1.124814	2.021524	1.248912
Br	3.477221	0.0	0.0
