17

C	-0.362228	0.077297	-1.508103
C	0.0	0.0	0.0
Br	-0.180782	-1.856388	-2.265357
H	1.096476	0.0	0.0
N	-1.708987	0.427381	-1.879237
H	-2.366183	-0.246097	-1.505867
H	-1.904359	1.345786	-1.490408
N	0.521518	0.97396	-2.101934
H	0.401198	1.021279	-3.104471
H	1.490064	0.816024	-1.827391
C	-0.550603	-1.17116	0.805204
H	-0.367918	-0.992787	1.867363
H	-1.628589	-1.293859	0.655148
H	-0.04338	-2.089719	0.516584
C	-0.461652	1.259993	0.585133
N	-0.892997	2.23163	1.086997
Br	3.480811	0.0	0.0
