17

C	-0.461618	-0.034519	-1.455218
C	0.0	0.0	0.0
Br	0.285872	1.780143	-2.335401
H	1.09454	0.0	0.0
N	0.132307	-1.121632	-2.110168
H	-0.061603	-1.11782	-3.103473
H	1.138527	-1.10062	-1.958915
N	-1.869204	0.001356	-1.588096
H	-2.13696	0.040602	-2.564557
H	-2.221592	0.839664	-1.139054
C	-0.476082	-1.250164	0.755407
H	-1.56538	-1.315426	0.764834
H	-0.102218	-1.205871	1.780366
H	-0.068194	-2.137391	0.273303
C	-0.503735	1.193452	0.671684
N	-0.986344	2.101232	1.241146
Br	3.465045	0.0	0.0
