17

C	0.0	0.0	0.0
C	-0.457418	-0.201146	-1.444818
Br	1.983686	0.0	0.0
H	-1.546066	-0.297269	-1.326264
H	-0.041418	-1.143742	-1.818106
N	-0.552497	1.235376	0.484768
H	-0.37875	1.285823	1.485608
H	-1.577512	1.023979	0.363419
C	-0.417985	-1.201457	0.843177
H	-1.513896	-1.171587	0.799532
H	-0.067281	-1.085192	1.8742
H	-0.024805	-2.141062	0.443271
C	-0.121414	0.946511	-2.386964
H	0.957871	1.055499	-2.52648
H	-0.508871	1.882015	-1.982807
H	-0.577937	0.77556	-3.367996
F	-2.924469	0.0	0.0
