17

C	0.0	0.0	0.0
C	-0.441903	-0.035872	-1.468506
Br	1.98527	0.0	0.0
H	-0.023824	0.848798	-1.967253
H	-1.53125	0.076439	-1.365428
N	-0.522051	1.149404	0.68964
H	-0.34939	1.96834	0.110192
H	-1.548769	0.943486	0.621702
C	-0.442465	-1.236679	0.763795
H	-0.007467	-2.150158	0.35476
H	-0.14157	-1.132859	1.808673
H	-1.536474	-1.224229	0.673557
C	-0.111488	-1.295329	-2.258996
H	-0.675543	-2.147507	-1.874435
H	0.954012	-1.538222	-2.224512
H	-0.394839	-1.167157	-3.308994
F	-2.911901	0.0	0.0
