16

C	-0.379828	-0.045609	-1.464556
C	0.0	0.0	0.0
Br	0.14542	1.836476	-2.249151
H	1.096595	0.0	0.0
H	-0.351761	-0.961817	0.401683
C	0.545	-0.997883	-2.188567
H	0.466296	-0.913383	-3.27438
H	0.270459	-2.015851	-1.888529
H	1.559856	-0.783184	-1.837843
N	-1.75963	-0.250974	-1.661702
H	-2.258092	0.377524	-1.039181
H	-2.038575	-0.086575	-2.620799
N	-0.713243	1.073453	0.713199
H	-0.608861	0.891471	1.705361
H	-0.190595	1.925184	0.53412
F	2.754773	0.0	0.0
