16

C	-0.085964	-0.027438	-1.510921
C	0.0	0.0	0.0
Br	-1.994731	-0.369864	-2.151561
H	1.098178	0.0	0.0
H	-0.36425	-0.956125	0.393951
C	0.340391	1.303729	-2.100112
H	-0.285852	2.120067	-1.744064
H	1.365075	1.43986	-1.737516
H	0.329081	1.266116	-3.193106
N	0.739021	-1.135429	-1.924412
H	1.620694	-0.99272	-1.401039
H	0.937747	-1.058475	-2.918085
N	-0.566043	1.186256	0.621479
H	0.045635	1.468309	1.375992
H	-1.476583	0.979357	1.012479
F	2.731491	0.0	0.0
