16

C	-0.29532	-0.089661	-1.497526
C	0.0	0.0	0.0
Br	0.057139	1.804663	-2.234402
H	1.091761	0.0	0.0
H	-0.461852	0.887648	0.442775
C	0.730436	-0.980255	-2.173794
H	1.71172	-0.705087	-1.764936
H	0.702034	-0.896468	-3.264281
H	0.509953	-2.014805	-1.892952
N	-1.639297	-0.463521	-1.797531
H	-1.787166	-0.501286	-2.799226
H	-2.282157	0.213861	-1.402133
N	-0.416035	-1.226071	0.701028
H	0.397087	-1.827489	0.7413
H	-1.140765	-1.703477	0.178972
F	2.73948	0.0	0.0
