16

C	-0.291626	-0.055059	-1.505941
C	0.0	0.0	0.0
Br	0.049915	1.864139	-2.249167
H	1.092363	0.0	0.0
H	-0.358008	-0.96719	0.380789
C	0.768208	-0.912599	-2.169824
H	1.74124	-0.611169	-1.757067
H	0.735431	-0.841053	-3.260991
H	0.575737	-1.951004	-1.875366
N	-1.61539	-0.442806	-1.844772
H	-2.292514	0.16808	-1.403388
H	-1.75954	-0.402543	-2.847011
N	-0.5552	1.079238	0.801395
H	-1.488309	1.333047	0.494256
H	0.033795	1.889533	0.656878
F	2.754571	0.0	0.0
