19
Coordinates from ORCA-job run
  C   0.74822973823090      0.31072645642545      0.05053065436425
  C   -0.64573981325013     -0.30881832829350      0.04847466867578
  F   0.71593394603501      1.51645013978037     -0.59605504835203
  H   -0.56737525762164     -1.23905912386964      0.62005766275126
  C   1.86550231813808     -0.52406703266958     -0.52859643682096
  H   1.71219115541655     -0.63524011584324     -1.60163319157782
  H   1.89846339632434     -1.50443321669183     -0.05547350805797
  H   2.81854069281836     -0.01535812175096     -0.36955945013915
  N   1.10519963276939      0.60974820681542      1.50155189713072
  O   1.21250376771846     -0.38030539880857      2.22081875641752
  O   1.24052677772416      1.77614272007154      1.84368993236946
  C   -1.08491051908489     -0.62773744440169     -1.37991306513396
  H   -2.10538932956419     -1.01670541858900     -1.37193506448326
  H   -1.07269086264113      0.27251805139259     -1.99829801098671
  H   -0.45116171542734     -1.38177559215753     -1.85033292698985
  C   -1.64993044001049      0.61430841595794      0.73812877724272
  H   -1.40260256431011      0.78056081986332      1.78870635051827
  H   -1.69152944337836      1.58440492054878      0.23884785501980
  H   -2.64576147988696      0.16764006222011      0.70199014805191
