19
Coordinates from ORCA-job run
  C   0.72728681894238      0.43005766059542      0.41060076312170
  C   -0.76862008573251      0.16622351388195      0.27952698326927
  F   0.90055530915434      1.71088227662076      0.88234137801129
  H   -1.18379279703704      0.48607427576207      1.24248469716670
  C   1.57709437662045      0.25590958081029     -0.81969668857154
  H   2.62755546947318      0.39117017481485     -0.56088958510278
  H   1.29578733638242      1.01939959824133     -1.54526216706816
  H   1.45384251223081     -0.73099162583941     -1.26021874096867
  N   1.22979300919204     -0.47776832024020      1.52815147557379
  O   1.85964110499959     -1.48119866928056      1.20193422650790
  O   0.90456380335387     -0.16690602584616      2.66821159825361
  C   -1.09137233387766     -1.31145218620217      0.07206068770578
  H   -0.76676138541670     -1.93056186553557      0.91022033546784
  H   -0.62820287429194     -1.70014889716984     -0.83825946501732
  H   -2.17208693893617     -1.43395446366078     -0.02876805480845
  C   -1.36803264150100      1.03172495164068     -0.82662156112342
  H   -1.06639344970304      2.07566371019583     -0.72424816272182
  H   -2.45836241974093      0.98996787108942     -0.77428167540744
  H   -1.07149481411209      0.67490844012208     -1.81628604428828
