19
Coordinates from ORCA-job run
  C   0.73796947050351      0.33502968712802      0.04115176170217
  C   -0.63439731823500     -0.33145157799752      0.05465974943804
  F   0.65289461839151      1.54934596697724     -0.58383473582675
  H   -0.51303765358445     -1.26822903692607      0.60781770658511
  C   1.87152210967607     -0.45177049804543     -0.57260971244326
  H   1.70230516654084     -0.55144938101662     -1.64436461592884
  H   1.94666803702199     -1.43785250041373     -0.11644046030969
  H   2.80965124382325      0.08651885273877     -0.42246152181674
  N   1.11282708056366      0.62149450519904      1.49011885248500
  O   1.21650750426535      1.78605920610345      1.84911189790231
  O   1.26711101313372     -0.37586254737795      2.19037343121877
  C   -1.09117849024505     -0.64006948478739     -1.37032647818322
  H   -2.09406151865261     -1.07196163377328     -1.34884980477216
  H   -1.13031528755951      0.27221594176983     -1.96972754430251
  H   -0.43692888846995     -1.35695108278803     -1.86980440763254
  C   -1.65454529295279      0.54514596154226      0.78076588512583
  H   -1.73142351183717      1.52532321972031      0.30603082952744
  H   -2.63775748375229      0.07105639224519      0.74798008597714
  H   -1.39581079863108      0.69240800970190      1.83140908125390
