19
Coordinates from ORCA-job run
  C   0.74036992420646      0.43013615348867      0.38612110023690
  C   -0.75922070543380      0.16875981962573      0.30209534294695
  F   0.93090678595297      1.71197040292916      0.84826964159813
  H   -1.14373862145767      0.49175814681065      1.27666173477110
  C   1.55146347275714      0.25052352570012     -0.86921682150896
  H   1.41643593189343     -0.73888512181628     -1.30054202762611
  H   1.24682783911728      1.00991035805252     -1.58963503806819
  H   2.60921235181675      0.38867420205799     -0.64367079905391
  N   1.27539472246516     -0.47503699383294      1.49067417542174
  O   1.89912068640846     -1.47732361198421      1.14956574249340
  O   0.97994574039247     -0.16311799609859      2.63859322185533
  C   -1.09034234301488     -1.30914429893545      0.10963103449440
  H   -0.74035676283776     -1.92561469670631      0.93950712560273
  H   -0.65672549888603     -1.70171854688150     -0.81350038232036
  H   -2.17382978098560     -1.43074327067729      0.04355211527120
  C   -1.39175404965700      1.03192892632813     -0.78702463924265
  H   -1.12631134624839      0.67293732184237     -1.78470143929167
  H   -2.47997454550578      0.99108039374368     -0.70099012408177
  H   -1.08642380098319      2.07590528635354     -0.69638996349826
