19
Coordinates from ORCA-job run
  C   0.80320287125692      0.46946147864690      0.01558276268497
  C   -0.63009250019934      0.23388964862499     -0.46207972679554
  F   1.07025151662593      1.80886921981237     -0.10099506416259
  H   -0.64285350073942      0.72294249090956     -1.44492672435735
  C   1.89040069828925     -0.29920889943166     -0.69189209173362
  H   1.81590460348554     -0.11049871586008     -1.76457597408984
  H   1.80904204487754     -1.36622171709829     -0.50052647210210
  H   2.86158495787908      0.05552229085101     -0.34121101861902
  N   0.87624558429741      0.15897101098363      1.50561744534556
  O   0.86186989943101     -1.03508188904892      1.79909902729023
  O   0.90132152766451      1.09572924573516      2.29232088444190
  C   -1.63285335005197      0.94985173213757      0.44207309418702
  H   -2.61727804479340      0.95505510182049     -0.03086604653341
  H   -1.33726610547805      1.98235761700062      0.63201786507512
  H   -1.72950137505135      0.43709799025946      1.40310146658440
  C   -0.99444955952688     -1.23606270307339     -0.64926247799663
  H   -0.94051558054945     -1.78117001171449      0.29397727275709
  H   -2.01831232965480     -1.30551226609210     -1.02443813025644
  H   -0.34470135776251     -1.73299162446283     -1.37201609171975
