16

C	-0.556637	0.01204	-1.411589
C	0.0	0.0	0.0
Cl	-0.094871	-1.670231	-2.090174
H	1.08863	0.0	0.0
H	-0.414312	-0.842274	0.557216
N	-1.96677	0.184296	-1.442198
H	-2.43571	-0.477147	-0.83644
H	-2.339977	0.118002	-2.382546
C	0.130932	1.007468	-2.320703
H	-0.206391	0.876918	-3.355921
H	-0.117058	2.01327	-1.980085
H	1.209574	0.857176	-2.23908
N	-0.471319	1.205682	0.720728
O	-1.344212	1.069057	1.589781
O	0.057444	2.285046	0.437697
F	2.557545	0.0	0.0
