16

C	-0.396818	0.078865	-1.464321
C	0.0	0.0	0.0
Cl	0.03937	-1.421394	-2.372301
H	1.08809	0.0	0.0
H	-0.354376	0.920543	0.471249
N	-1.834991	0.231562	-1.618793
H	-2.128497	1.022582	-1.055031
H	-2.051082	0.433893	-2.589393
C	0.481673	1.189109	-2.042036
H	0.172147	2.149381	-1.610825
H	1.515358	0.983788	-1.739576
H	0.379805	1.239531	-3.128586
N	-0.640077	-1.082368	0.758835
O	-0.323477	-2.244654	0.518065
O	-1.460448	-0.757859	1.62865
F	2.611195	0.0	0.0
