16

C	-0.382624	0.062342	-1.473194
C	0.0	0.0	0.0
Cl	-0.079646	-1.650038	-2.169039
H	1.087113	0.0	0.0
H	-0.391761	0.903852	0.478301
N	-1.721475	0.477772	-1.718683
H	-1.925212	0.430484	-2.709906
H	-2.354994	-0.129833	-1.212823
C	0.647554	0.95274	-2.148504
H	0.572658	0.884251	-3.237303
H	0.452849	1.985349	-1.841803
H	1.638675	0.65613	-1.785333
N	-0.632863	-1.128733	0.719001
O	0.055634	-1.820182	1.460362
O	-1.851338	-1.296139	0.563413
F	2.649514	0.0	0.0
