16

C	-0.501396	0.007304	-1.435998
C	0.0	0.0	0.0
Cl	-2.332355	0.146532	-1.512976
H	1.09266	0.0	0.0
H	-0.4199	-0.84614	0.54488
N	0.024356	1.041731	-2.285011
H	1.02991	0.852821	-2.363955
H	-0.04814	1.920226	-1.786275
C	-0.13868	-1.331878	-2.0496
H	-0.462521	-1.353992	-3.094903
H	0.950592	-1.437409	-1.969284
H	-0.614856	-2.149442	-1.506215
N	-0.445426	1.192304	0.741431
O	-1.093725	1.03522	1.781761
O	-0.148981	2.304562	0.276953
F	2.560929	0.0	0.0
