18

C	0.0	0.0	0.0
C	-0.580032	-0.093883	-1.421375
Cl	1.802367	0.0	0.0
H	-1.674001	-0.002467	-1.18705
C	-0.475111	1.294547	0.642574
H	-0.101973	1.364195	1.668508
H	-1.570484	1.224141	0.626405
H	-0.123588	2.166067	0.084702
C	-0.489862	-1.18397	0.817142
H	-1.586101	-1.118647	0.760159
H	-0.1154	-2.131735	0.422331
H	-0.148252	-1.087247	1.851145
N	-0.340716	-1.33523	-2.148611
H	0.619403	-1.633379	-2.006075
H	-0.95421	-2.041223	-1.762132
C	-0.149898	1.036465	-2.250835
N	0.188279	1.937726	-2.924764
F	-2.978633	0.0	0.0
