18

C	0.0	0.0	0.0
C	-0.325527	0.200466	-1.521492
Cl	1.798443	0.0	0.0
H	0.452161	0.872848	-1.906102
C	-0.51918	1.190822	0.785305
H	-0.197202	2.133386	0.337768
H	-1.611708	1.115146	0.761141
H	-0.157025	1.137514	1.816556
C	-0.569263	-1.284607	0.559761
H	-0.192108	-2.16333	0.033426
H	-1.65948	-1.187587	0.448495
H	-0.317206	-1.371987	1.620587
N	-1.617644	0.80232	-1.765411
H	-1.882072	0.637789	-2.729431
H	-2.36685	0.422199	-1.112066
C	-0.111	-1.080542	-2.242751
N	0.017173	-2.055264	-2.888426
F	-3.266893	0.0	0.0
