18

C	0.0	0.0	0.0
C	-0.303122	-0.026043	-1.540411
Cl	1.802098	0.0	0.0
H	0.438608	0.650774	-1.98879
C	-0.531583	1.292033	0.591095
H	-0.186241	1.398568	1.624054
H	-1.624659	1.208437	0.563955
H	-0.20215	2.157237	0.010509
C	-0.555551	-1.197778	0.739669
H	-1.647999	-1.125811	0.636753
H	-0.2813	-1.140337	1.797616
H	-0.178824	-2.137177	0.32981
N	-1.631186	0.42807	-1.90106
H	-2.360378	0.194619	-1.162368
H	-1.898807	0.003165	-2.780399
C	0.029012	-1.367888	-2.077865
N	0.25806	-2.4137	-2.564951
F	-3.263894	0.0	0.0
