18

C	0.0	0.0	0.0
C	-0.568776	0.011468	-1.417437
Cl	1.806104	0.0	0.0
H	-1.667498	-0.006815	-1.180037
C	-0.485737	1.233359	0.744374
H	-0.135286	1.206607	1.779682
H	-1.581021	1.162336	0.702035
H	-0.125767	2.153761	0.277157
C	-0.483043	-1.255781	0.707644
H	-0.114879	-1.263304	1.737822
H	-0.141538	-2.151005	0.188474
H	-1.577367	-1.177955	0.681365
N	-0.176743	-1.168935	-2.182682
H	0.789338	-1.073844	-2.477441
H	-0.753159	-1.222736	-3.014213
C	-0.239593	1.257165	-2.130135
N	0.016102	2.206802	-2.776382
F	-2.987378	0.0	0.0
