12

C	0.0	0.0	0.0
C	-0.574045	-0.085479	-1.397901
Cl	1.754482	0.0	0.0
H	-1.658617	-0.250628	-1.276579
H	-0.376146	0.872826	0.527655
H	-0.448905	0.893178	-1.870309
N	-0.413452	-1.18507	0.849435
O	-0.658948	-2.235664	0.273105
O	-0.403504	-0.99468	2.05974
C	0.040853	-1.097466	-2.248242
N	0.552071	-1.864997	-2.973898
Br	-3.651454	0.0	0.0
