12

C	0.0	0.0	0.0
C	-0.553842	-0.032278	-1.408999
Cl	1.756077	0.0	0.0
H	-1.65353	-0.064119	-1.309516
H	-0.374106	0.838275	0.581777
H	-0.205161	-0.933798	-1.915923
N	-0.416639	-1.241418	0.756298
O	-0.531012	-2.278592	0.115351
O	-0.526152	-1.115537	1.968882
C	-0.147966	1.151032	-2.154493
N	0.178748	2.099064	-2.765091
Br	-3.619303	0.0	0.0
