12

C	0.0	0.0	0.0
C	-0.558741	0.070311	-1.405953
Cl	1.750955	0.0	0.0
H	-1.657997	0.032357	-1.30463
H	-0.373797	0.793372	0.642293
H	-0.213191	-0.792996	-1.977108
N	-0.419884	-1.293233	0.664142
O	-0.52264	-2.283337	-0.04953
O	-0.541154	-1.253885	1.881385
C	-0.152151	1.302994	-2.066261
N	0.179424	2.288818	-2.610637
Br	-3.630211	0.0	0.0
