12

C	0.0	0.0	0.0
C	-0.556872	-0.094336	-1.404656
Cl	1.760164	0.0	0.0
H	-1.65635	-0.124092	-1.298408
H	-0.369972	0.864211	0.545567
H	-0.207556	-1.016009	-1.87364
N	-0.416085	-1.206326	0.811221
O	-0.543545	-1.023317	2.014525
O	-0.511308	-2.274482	0.219363
C	-0.15721	1.058222	-2.200267
N	0.166449	1.980102	-2.851267
Br	-3.630093	0.0	0.0
