12

C	0.0	0.0	0.0
C	-0.562105	-0.134022	-1.399911
Cl	1.750219	0.0	0.0
H	-1.661502	-0.163289	-1.289778
H	-0.37464	0.877299	0.521172
H	-0.211398	-1.066571	-1.845981
N	-0.418414	-1.184045	0.844728
O	-0.53761	-0.969152	2.043537
O	-0.521939	-2.266821	0.281721
C	-0.16725	0.998156	-2.227082
N	0.151844	1.904572	-2.902071
Br	-3.63281	0.0	0.0
