19

C	-0.473883	-0.008551	-1.462792
C	0.0	0.0	0.0
Cl	-0.314962	-1.66679	-2.177342
H	1.095969	0.0	0.0
N	-1.893222	0.313827	-1.498242
H	-1.957663	1.259628	-1.131495
H	-2.194367	0.329904	-2.467803
C	0.40652	0.912209	-2.293316
H	0.079826	0.911062	-3.337569
H	0.318795	1.921693	-1.885662
H	1.451605	0.604316	-2.227465
C	-0.526556	-1.156216	0.835066
H	-0.109016	-2.109006	0.511241
H	-0.234608	-0.999782	1.87721
H	-1.617628	-1.207596	0.764127
N	-0.415492	1.311569	0.54694
H	0.368092	1.700658	1.060615
H	-1.17666	1.174579	1.204459
Br	3.709356	0.0	0.0
