19

C	-0.475092	0.02819	-1.455834
C	0.0	0.0	0.0
Cl	0.184835	-1.496385	-2.281065
H	1.094877	0.0	0.0
N	-1.910212	0.046953	-1.524877
H	-2.278438	-0.838609	-1.196646
H	-2.199388	0.156957	-2.490614
C	0.126058	1.195542	-2.213555
H	-0.12524	1.129684	-3.27655
H	-0.264839	2.118514	-1.787186
H	1.211849	1.176823	-2.09804
C	-0.486982	-1.211147	0.793787
H	-0.187883	-2.154149	0.333846
H	-1.577317	-1.197104	0.917796
H	-0.039764	-1.170888	1.790186
N	-0.40915	1.276328	0.594897
H	0.143352	1.427733	1.430682
H	-1.388179	1.230406	0.854139
Br	3.694999	0.0	0.0
