19

C	-0.388042	-0.024478	-1.475269
C	0.0	0.0	0.0
Cl	-2.356323	-0.211672	-1.51555
H	1.097118	0.0	0.0
N	-0.020037	1.165515	-2.075705
H	-0.342502	1.276501	-3.024619
H	-0.221825	1.9521	-1.471643
C	0.114682	-1.230283	-2.233867
H	1.200956	-1.262373	-2.103762
H	-0.122789	-1.13319	-3.296425
H	-0.333501	-2.152618	-1.86825
C	-0.439342	-1.219871	0.799672
H	-0.036283	-1.128236	1.811816
H	-0.039137	-2.144368	0.377967
H	-1.528606	-1.297395	0.852997
N	-0.434773	1.273377	0.577686
H	0.209742	1.52864	1.316375
H	-1.363027	1.16936	0.974161
Br	3.602025	0.0	0.0
