19

C	-0.243519	0.056797	-1.505003
C	0.0	0.0	0.0
Cl	-2.016996	0.246778	-1.892567
H	1.108662	0.0	0.0
N	0.416698	1.258023	-1.988776
H	1.399033	1.185645	-1.714519
H	0.36881	1.285348	-3.002816
C	0.233642	-1.210147	-2.200501
H	1.282774	-1.367328	-1.933866
H	-0.353221	-2.082845	-1.911916
H	0.152316	-1.086164	-3.283117
C	-0.528784	-1.24218	0.687381
H	-0.012987	-2.145212	0.355386
H	-0.361445	-1.14665	1.762749
H	-1.604209	-1.34071	0.520329
N	-0.544764	1.19655	0.654238
H	-0.413863	1.967558	0.00523
H	0.058313	1.391814	1.448997
Br	3.62499	0.0	0.0
