19

C	-0.477629	0.042996	-1.461394
C	0.0	0.0	0.0
Cl	-0.074933	-1.527168	-2.278688
H	1.099585	0.0	0.0
N	-1.916315	0.189739	-1.484155
H	-2.106963	0.958921	-0.847075
H	-2.212309	0.453835	-2.417085
C	0.289045	1.115931	-2.226165
H	0.025081	2.094458	-1.815082
H	0.012905	1.098015	-3.284417
H	1.365907	0.95981	-2.126783
C	-0.54525	-1.173935	0.790188
H	-0.137845	-1.140213	1.80533
H	-1.637458	-1.136714	0.83226
H	-0.244515	-2.120277	0.344314
N	-0.464918	1.272277	0.6192
H	-0.642859	1.096746	1.601876
H	0.313411	1.923127	0.592113
Br	3.677474	0.0	0.0
