19

C	-0.38925	-0.02373	-1.47405
C	0.0	0.0	0.0
Cl	-2.357206	-0.185321	-1.513591
H	1.097057	0.0	0.0
N	-0.005729	1.162307	-2.07822
H	-0.340716	1.274836	-3.023018
H	-0.203021	1.950679	-1.474498
C	0.100196	-1.236604	-2.229862
H	-0.358696	-2.153323	-1.862901
H	-0.134574	-1.138775	-3.292938
H	1.186002	-1.280704	-2.098671
C	-0.442013	-1.217347	0.801586
H	-1.531493	-1.294038	0.852437
H	-0.042567	-1.12316	1.815163
H	-0.040516	-2.143039	0.383811
N	-0.427083	1.276546	0.578031
H	-1.353479	1.178014	0.979796
H	0.223392	1.529205	1.312513
Br	3.618961	0.0	0.0
