19

C	-0.503319	0.04879	-1.455957
C	0.0	0.0	0.0
Cl	0.02612	-1.454728	-2.304456
H	1.100271	0.0	0.0
N	-1.955043	0.118583	-1.580003
H	-2.345325	-0.762708	-1.262455
H	-2.231202	0.825439	-0.899901
C	0.122718	1.223094	-2.184462
H	-0.270696	2.153557	-1.765036
H	-0.146519	1.182786	-3.240651
H	1.208626	1.197557	-2.067496
C	-0.515532	-1.183825	0.796831
H	-0.268684	-2.127922	0.313017
H	-1.600554	-1.122211	0.937462
H	-0.041163	-1.184877	1.782304
N	-0.492482	1.248917	0.636464
H	-0.544441	1.088414	1.636931
H	0.229769	1.953171	0.516197
Br	3.674097	0.0	0.0
