13

C	-0.317512	0.0222	-1.474557
C	0.0	0.0	0.0
Cl	-2.083704	0.082958	-1.849821
H	1.093307	0.0	0.0
H	0.034483	-0.936279	-1.863579
C	0.367061	1.076317	-2.223063
N	0.870903	1.900913	-2.889759
C	-0.497355	-1.194922	0.641474
N	-0.857099	-2.191118	1.151994
N	-0.436619	1.207237	0.722029
O	-0.583648	1.117458	1.939819
O	-0.544	2.245228	0.070787
F	2.415447	0.0	0.0
