13

C	-0.313117	0.029182	-1.493203
C	0.0	0.0	0.0
Cl	0.180865	-1.519793	-2.229261
H	1.094957	0.0	0.0
H	0.313457	0.802465	-1.934699
C	-1.720614	0.277114	-1.803935
N	-2.855439	0.463176	-2.04611
C	-0.596596	-1.103456	0.710748
N	-1.069709	-2.028886	1.260415
N	-0.379325	1.288262	0.613845
O	-0.564909	1.318439	1.827738
O	-0.402114	2.273376	-0.129563
F	2.428733	0.0	0.0
