13

C	-0.307955	-0.019234	-1.477379
C	0.0	0.0	0.0
Cl	-2.070967	0.049612	-1.864599
H	1.094214	0.0	0.0
H	0.036079	-0.991835	-1.83709
C	0.395861	1.002655	-2.251299
N	0.930582	1.755392	-2.976094
C	-0.504298	-1.175361	0.670194
N	-0.874615	-2.168874	1.178506
N	-0.443314	1.227763	0.680374
O	-0.619458	1.170827	1.896346
O	-0.537389	2.247505	-0.001711
F	2.415891	0.0	0.0
