13

C	-0.293791	-0.008116	-1.480123
C	0.0	0.0	0.0
Cl	-2.052222	0.049953	-1.887975
H	1.094645	0.0	0.0
H	0.064875	-0.973743	-1.843769
C	0.407985	1.026845	-2.237488
N	0.944162	1.794647	-2.943829
C	-0.502408	-1.183405	0.656963
N	-0.86798	-2.18452	1.153581
N	-0.453405	1.219859	0.685201
O	-0.551127	2.242943	0.00887
O	-0.639796	1.154306	1.898708
F	2.415404	0.0	0.0
