13

C	-0.493313	-0.017181	-1.443378
C	0.0	0.0	0.0
Cl	0.499556	1.043446	-2.488668
H	1.091668	0.0	0.0
H	-1.513341	0.367578	-1.511512
C	-0.451086	-1.370387	-1.99328
N	-0.452262	-2.444221	-2.469388
C	-0.487936	-1.133077	0.756615
N	-0.871742	-2.072315	1.352183
N	-0.439357	1.239284	0.689346
O	-0.979841	2.125767	0.023127
O	-0.196769	1.311874	1.890729
F	2.422878	0.0	0.0
