13

C	-0.507678	-0.055479	-1.435801
C	0.0	0.0	0.0
Cl	0.276593	1.221634	-2.413066
H	1.09151	0.0	0.0
H	-1.580295	0.143418	-1.485146
C	-0.229709	-1.355771	-2.038
N	-0.06395	-2.400112	-2.548955
C	-0.519122	-1.102083	0.783131
N	-0.938204	-1.998971	1.41924
N	-0.488881	1.260281	0.647894
O	-1.458627	1.839551	0.152989
O	0.106387	1.618793	1.656467
F	2.440803	0.0	0.0
