13

C	-0.489449	-0.005582	-1.444295
C	0.0	0.0	0.0
Cl	0.466106	1.114743	-2.461703
H	1.091603	0.0	0.0
H	-1.524144	0.338636	-1.510088
C	-0.387912	-1.345329	-2.019171
N	-0.340468	-2.409318	-2.514687
C	-0.485866	-1.14542	0.739854
N	-0.86991	-2.091938	1.323617
N	-0.453822	1.225751	0.705152
O	-0.176968	1.301588	1.898727
O	-1.046381	2.0948	0.060541
F	2.424121	0.0	0.0
