13

C	-0.49163	-0.031837	-1.441381
C	0.0	0.0	0.0
Cl	0.480679	1.05249	-2.477837
H	1.091606	0.0	0.0
H	-1.528278	0.303499	-1.511103
C	-0.401733	-1.38501	-1.978215
N	-0.38707	-2.454028	-2.462166
C	-0.487849	-1.132648	0.75648
N	-0.865524	-2.068325	1.360505
N	-0.456807	1.24037	0.676256
O	-1.062795	2.087692	0.012738
O	-0.170534	1.350055	1.863962
F	2.41862	0.0	0.0
