12

C	0.0	0.0	0.0
C	-0.570071	-0.156876	-1.4104
Br	1.948064	0.0	0.0
H	-1.556191	-0.609763	-1.277603
H	-0.304418	-0.845167	0.618463
H	0.082754	-0.835197	-1.966726
C	-0.408509	1.236202	0.661893
N	-0.634405	2.247953	1.213577
N	-0.628851	1.138155	-2.082108
H	-1.480865	1.587076	-1.753191
H	-0.757385	0.978819	-3.074463
Cl	-3.521721	0.0	0.0
