12

C	0.0	0.0	0.0
C	-0.497063	0.142312	-1.432822
Br	1.956904	0.0	0.0
H	-1.586842	0.185757	-1.344755
H	-0.331305	-0.950958	0.414471
H	-0.129135	1.093849	-1.837859
C	-0.390737	1.110841	0.863604
N	-0.615997	2.006767	1.588712
N	-0.088853	-1.02491	-2.208382
H	-0.854574	-1.317296	-2.798825
H	0.705567	-0.809908	-2.793806
Cl	-3.524156	0.0	0.0
