12

C	0.0	0.0	0.0
C	-0.568136	-0.014544	-1.415548
Br	1.958911	0.0	0.0
H	-1.598645	-0.365872	-1.30223
H	-0.30449	-0.898913	0.536994
H	0.010101	-0.733906	-2.002766
C	-0.40252	1.17895	0.761586
N	-0.638284	2.157401	1.367641
N	-0.475038	1.312374	-2.017112
H	-0.526567	1.220298	-3.02556
H	-1.304052	1.823696	-1.728909
Cl	-3.588691	0.0	0.0
