12

C	0.0	0.0	0.0
C	-0.481686	-0.073057	-1.48087
Br	1.954237	0.0	0.0
H	-0.275502	-1.093373	-1.822106
H	-0.338091	-0.853075	0.589148
H	0.171564	0.595206	-2.050428
C	-0.412881	1.24817	0.630941
N	-0.690546	2.290891	1.095537
N	-1.844203	0.277194	-1.741524
H	-2.01942	1.253318	-1.537683
H	-2.54566	-0.228394	-1.199863
Cl	-4.517802	0.0	0.0
