12

C	0.0	0.0	0.0
C	-0.49235	0.178149	-1.460592
Br	1.950954	0.0	0.0
H	-0.106475	1.13961	-1.813573
H	-0.322223	-0.962517	0.400108
H	0.001384	-0.602994	-2.047519
C	-0.441864	1.077653	0.87377
N	-0.757484	1.979622	1.557395
N	-1.906004	0.116667	-1.669194
H	-2.44172	0.807393	-1.155398
H	-2.319305	-0.764229	-1.392597
Cl	-4.643528	0.0	0.0
