12

C	0.0	0.0	0.0
C	-0.480035	0.130188	-1.439833
Br	1.957001	0.0	0.0
H	-1.570094	0.181488	-1.367376
H	-0.339873	-0.944826	0.420878
H	-0.09832	1.074941	-1.849763
C	-0.391806	1.125	0.844913
N	-0.591062	2.04145	1.551977
N	-0.074929	-1.050324	-2.196143
H	0.768642	-0.869922	-2.722545
H	-0.810639	-1.301158	-2.841595
Cl	-3.486628	0.0	0.0
