15

C	-0.599795	-0.067591	-1.386305
C	0.0	0.0	0.0
Cl	0.15241	-1.32769	-2.388985
H	1.094334	0.0	0.0
H	-1.673329	-0.26307	-1.381929
N	-0.473666	1.249978	-2.1159
O	0.643404	1.733171	-2.23309
O	-1.529295	1.733441	-2.533964
C	-0.358118	-1.25486	0.802179
H	-1.435301	-1.434852	0.860075
H	0.042877	-1.145994	1.811273
H	0.137899	-2.113159	0.347902
C	-0.498358	1.192206	0.663037
N	-0.894102	2.160715	1.201792
H	2.660586	0.0	0.0
