15

C	-0.417713	0.072959	-1.448427
C	0.0	0.0	0.0
Cl	-2.176893	0.238586	-1.721077
H	1.095818	0.0	0.0
H	0.071643	0.90722	-1.94713
N	0.075463	-1.156453	-2.171288
O	1.148727	-1.028098	-2.753488
O	-0.584801	-2.188092	-2.083572
C	-0.456867	-1.238452	0.761649
H	-1.541199	-1.373411	0.744754
H	0.022403	-2.123479	0.34165
H	-0.119027	-1.144158	1.795912
C	-0.424144	1.222196	0.659253
N	-0.743695	2.209558	1.213034
H	2.646646	0.0	0.0
