15

C	-0.397598	0.054506	-1.454058
C	0.0	0.0	0.0
Cl	-2.163927	-0.031857	-1.758134
H	1.095798	0.0	0.0
H	-0.039632	0.970251	-1.918512
N	0.245637	-1.049336	-2.254739
O	-0.036379	-2.207653	-1.967243
O	1.003929	-0.692461	-3.151263
C	-0.448635	-1.216729	0.802651
H	-0.150677	-1.063667	1.842129
H	0.064786	-2.104008	0.43535
H	-1.528894	-1.376192	0.759085
C	-0.446977	1.235666	0.618989
N	-0.789549	2.234333	1.138041
H	2.639798	0.0	0.0
