15

C	-0.591727	-0.027687	-1.390248
C	0.0	0.0	0.0
Cl	0.119164	-1.300527	-2.409772
H	1.094339	0.0	0.0
H	-1.670732	-0.182293	-1.39485
N	-0.414736	1.294815	-2.104574
O	0.714274	1.754298	-2.181413
O	-1.441791	1.797734	-2.564689
C	-0.383279	-1.253239	0.787806
H	-1.462946	-1.41871	0.831255
H	0.004197	-1.150983	1.802512
H	0.106241	-2.115903	0.336008
C	-0.496908	1.189168	0.671747
N	-0.897185	2.152365	1.217333
H	2.659914	0.0	0.0
