15

C	-0.336209	-0.013029	-1.470551
C	0.0	0.0	0.0
Cl	-0.053587	1.538115	-2.25731
H	1.096197	0.0	0.0
H	0.28009	-0.764145	-1.96479
N	-1.763998	-0.440764	-1.698057
O	-2.662231	0.371893	-1.506398
O	-1.922631	-1.630346	-1.981443
C	-0.361985	-1.321628	0.676338
H	-1.439038	-1.49905	0.741461
H	0.105269	-2.142221	0.126725
H	0.063923	-1.316529	1.68249
C	-0.550473	1.135315	0.709085
N	-0.971496	2.029454	1.346685
H	2.612754	0.0	0.0
