15

C	-0.40356	0.066949	-1.452732
C	0.0	0.0	0.0
Cl	-2.174292	0.094653	-1.740924
H	1.095811	0.0	0.0
H	0.012224	0.952262	-1.927947
N	0.162614	-1.087497	-2.240385
O	-0.253712	-2.213315	-1.992371
O	1.006363	-0.801191	-3.082676
C	-0.459521	-1.219988	0.7907
H	-0.160988	-1.080609	1.831952
H	-1.540888	-1.37068	0.744027
H	0.045955	-2.109226	0.415895
C	-0.436135	1.234596	0.630703
N	-0.775434	2.227398	1.162613
H	2.64478	0.0	0.0
