18

C	-0.289851	0.077924	-1.494496
C	0.0	0.0	0.0
Br	0.140824	-1.741013	-2.314122
H	1.105428	0.0	0.0
N	-1.758015	0.227924	-1.893414
O	-2.005266	1.022421	-2.79215
O	-2.568505	-0.481089	-1.317645
N	0.45953	1.115891	-2.018791
H	1.435066	1.035062	-1.731898
H	0.34863	1.238205	-3.014404
C	-0.55651	-1.118898	0.853698
H	-0.235858	-2.079914	0.455356
H	-0.133809	-1.008681	1.854489
H	-1.64476	-1.08792	0.899572
N	-0.437701	1.301055	0.615383
O	-1.534452	1.752472	0.275639
O	0.289284	1.78946	1.472383
Cl	3.293376	0.0	0.0
