18

C	-0.426292	0.011252	-1.471218
C	0.0	0.0	0.0
Br	0.302922	-1.578501	-2.333432
H	1.091347	0.0	0.0
N	-1.979366	-0.165682	-1.65719
O	-2.514853	0.572592	-2.47521
O	-2.546063	-1.034261	-1.007661
N	0.053828	1.139689	-2.152469
H	-0.380501	1.975202	-1.781187
H	-0.126452	1.074055	-3.144066
C	-0.449647	-1.132196	0.915063
H	0.144777	-1.055444	1.826264
H	-0.235628	-2.091647	0.447302
H	-1.511356	-1.079825	1.151551
N	-0.447634	1.273645	0.650196
O	0.106507	1.592424	1.692899
O	-1.391819	1.891999	0.137352
Cl	3.301928	0.0	0.0
