14
Coordinates from ORCA-job run
  C   -0.45911916705660      0.01517380292600      0.28539675765423
  C   0.49283465117436     -0.52702826518986     -0.77488460549838
  Cl  -1.95610297154976      0.64874495491480     -0.55528384133785
  H   -0.00193379929794     -1.34309990685298     -1.31101959191744
  H   1.33384448064868     -0.95663025134343     -0.20708037633409
  N   0.14810132530107      1.15579091982204      0.94203830983173
  H   0.71579436104707      0.80535287228050      1.70597822950362
  H   -0.55598772322294      1.77926080606141      1.31408367235490
  N   -0.77196335986984     -1.02556916500735      1.21608322501695
  H   -1.15971700798375     -1.83284401352568      0.74154374954527
  H   -1.45276584355593     -0.69797939095388      1.89156272698028
  N   0.85963056152935      0.51192236230610     -1.71687588828235
  H   1.58126666750445      0.17283893906997     -2.33913105134583
  H   1.22611782533175      1.29506633549237     -1.18941131617103
