16

C	0.0	0.0	0.0
C	-0.670288	0.017372	-1.348838
F	1.365461	0.0	0.0
H	-1.846883	-0.046697	-0.97668
N	-0.48729	1.157176	0.678097
H	-1.525529	1.065611	0.629686
H	-0.206299	1.114418	1.652855
C	-0.373944	-1.261066	0.720575
N	-0.631094	-2.191641	1.399666
N	-0.297074	-1.073565	-2.244445
O	0.297634	-2.050039	-1.782682
O	-0.697212	-0.981733	-3.409137
N	-0.36982	1.296415	-2.060733
O	-1.243982	2.155776	-2.107042
O	0.76102	1.397351	-2.550579
H	-2.819	0.0	0.0
