15

C	-0.404824	-0.038752	-1.472603
C	0.0	0.0	0.0
F	0.00142	1.20806	-1.988574
H	1.091395	0.0	0.0
C	0.333478	-1.041163	-2.264734
N	0.869898	-1.753733	-3.026491
N	-1.798881	-0.236157	-1.647162
H	-2.305957	0.486412	-1.148682
H	-2.044133	-0.208801	-2.629276
N	-0.40566	-1.229773	0.705877
O	-0.291778	-2.287362	0.091153
O	-0.751845	-1.133203	1.882222
C	-0.569158	1.16542	0.636383
N	-1.036895	2.140272	1.099279
F	2.424736	0.0	0.0
