15

C	-0.49652	0.030559	-1.440919
C	0.0	0.0	0.0
F	-1.918864	-0.120804	-1.424395
H	1.093689	0.0	0.0
C	-0.277365	1.380104	-2.009979
N	-0.135288	2.420862	-2.534064
N	0.12403	-0.910453	-2.281516
H	0.157163	-1.814053	-1.831397
H	-0.344175	-0.947433	-3.176713
N	-0.388774	-1.243052	0.703713
O	-0.35479	-2.302782	0.07099
O	-0.641105	-1.170147	1.903639
C	-0.499762	1.140546	0.739694
N	-0.864203	2.10364	1.306852
F	2.417624	0.0	0.0
