15

C	-0.404962	-0.077782	-1.47093
C	0.0	0.0	0.0
F	0.000284	1.156794	-2.016754
H	1.101375	0.0	0.0
C	0.338429	-1.097048	-2.235666
N	0.861746	-1.839583	-2.977582
N	-1.798542	-0.280585	-1.645806
H	-2.038704	-0.273059	-2.629998
H	-2.303996	0.457527	-1.168072
N	-0.390301	-1.210882	0.742525
O	-0.299397	-2.282449	0.145808
O	-0.693324	-1.090755	1.931055
C	-0.567749	1.179861	0.607874
N	-1.032997	2.164711	1.050912
F	2.420859	0.0	0.0
