15

C	-0.147219	-0.379615	-1.492341
C	0.0	0.0	0.0
F	-1.408653	-0.892482	-1.756872
H	1.109757	0.0	0.0
C	-0.004222	0.864457	-2.287583
N	0.099157	1.827502	-2.950901
N	0.847683	-1.313497	-1.941409
H	0.644157	-2.180458	-1.454315
H	1.726917	-0.968362	-1.52791
N	-0.429325	-1.087649	0.906953
O	-0.278472	-2.249538	0.527983
O	-0.854865	-0.772093	2.016402
C	-0.615597	1.24742	0.381911
N	-1.08974	2.287488	0.658494
F	2.49031	0.0	0.0
