15

C	-0.375378	0.212765	-1.463979
C	0.0	0.0	0.0
F	-0.092411	1.537147	-1.743953
H	1.109833	0.0	0.0
C	0.494942	-0.584593	-2.370722
N	1.039301	-1.186231	-3.218811
N	-1.774627	0.027913	-1.733733
H	-2.021176	-0.923215	-1.48775
H	-1.934716	0.148866	-2.726767
N	-0.385539	-1.324434	0.497626
O	-0.617151	-2.206548	-0.339192
O	-0.379826	-1.507705	1.711226
C	-0.528253	1.038954	0.849552
N	-0.921721	1.898482	1.549871
F	2.415278	0.0	0.0
