15

C	-0.20548	-0.188037	-1.526349
C	0.0	0.0	0.0
F	-1.384776	-0.912251	-1.77357
H	1.092439	0.0	0.0
C	-0.436675	1.125779	-2.183189
N	-0.55813	2.131802	-2.779294
N	0.920013	-0.864492	-2.040343
H	1.08934	-0.644064	-3.010863
H	1.749446	-0.678001	-1.444703
N	-0.46328	-1.225454	0.712205
O	0.094148	-2.273922	0.411582
O	-1.351411	-1.107753	1.557517
C	-0.623888	1.179743	0.551269
N	-1.08507	2.170058	0.985193
F	2.542043	0.0	0.0
