18
Coordinates from ORCA-job run
  C   -0.70081300512303      0.27615377485152     -0.63906465902756
  C   0.50269192816537     -0.52262851040710     -0.13313388017068
  H   -0.71620939910336      0.26783786367579     -1.73174062537552
  H   0.37949230843340     -1.53969694499258     -0.52013013042467
  N   -0.73592662439268      1.60986089539552     -0.15659216391505
  H   -0.91562079223568      1.62618855763221      0.83885372779909
  H   -1.46498148170416      2.14272820200869     -0.61245291262164
  N   -1.95503277682975     -0.53546735177077     -0.26746944740622
  O   -2.14090321340240     -1.57193767437340     -0.89847994403160
  O   -2.65928495308942     -0.11828604118820      0.65013371631979
  C   0.55237571729277     -0.57859187588216      1.39209142810670
  H   -0.37379076894821     -0.96257721680560      1.82652943567620
  H   1.36417522110747     -1.23630049097349      1.71110005328371
  H   0.75187867063622      0.40946639666207      1.81602949686218
  C   1.78415301425855      0.07207558833938     -0.70974824008561
  H   1.76344439025798      0.07208096771404     -1.80312174373166
  H   2.65063197787351     -0.51269763835005     -0.39056943475204
  H   1.91371978680340      1.10179149846412     -0.37323467650542
