18
Coordinates from ORCA-job run
  C   -0.74160811354033      0.48235075185637     -0.37269620483607
  C   0.34310237431301     -0.31663366459850      0.35387249431685
  H   -0.29648926807982      1.15384044994729     -1.11039974458037
  H   -0.17804609998210     -0.95624266276500      1.07855222339587
  N   -1.67056932226415      1.21099960608659      0.44312081614680
  H   -1.86465525958247      0.72760077383198      1.30979535405526
  H   -1.34140251844894      2.14554206461544      0.63263078540697
  N   -1.54320993768997     -0.50009240134531     -1.18940294910020
  O   -1.40245459839952     -0.48722127327898     -2.40980008526735
  O   -2.25160626909075     -1.27520325116426     -0.55285413274307
  C   1.26381601766855      0.64534910425973      1.09985832142799
  H   2.02399816585766      0.09247775620416      1.65640048036926
  H   0.71612540352368      1.26453553900268      1.81312348200920
  H   1.78156291430503      1.30621096644579      0.39702275048269
  C   1.13357796608542     -1.20344054241544     -0.60544174193908
  H   1.94268433409785     -1.70827658572481     -0.07238150283151
  H   0.50748831902262     -1.97281569985085     -1.06099889857100
  H   1.57768589220424     -0.60998093110687     -1.41040144774223
