18
Coordinates from ORCA-job run
  C   -0.65723802183048      0.56607983001083     -0.29893101432214
  C   0.38238797882314     -0.31315219150678      0.39312204516331
  H   -0.18178105789558      1.25548638187355     -1.00063382112902
  H   -0.16479900464173     -0.93269034135165      1.11647277622714
  N   -1.45810025067663      1.27906953866471      0.63854394453878
  H   -2.09727736950855      1.91354881873555      0.17670073829841
  H   -1.99202789459982      0.62869126199565      1.20250054132516
  N   -1.48957255786668     -0.34635536273951     -1.19616234943658
  O   -2.30134983633442     -1.07637133151004     -0.62932728172254
  O   -1.27115469864757     -0.31797879736276     -2.40515596966539
  C   1.37035621284442      0.57847853560320      1.14086152368329
  H   1.94134362128865      1.18888748710331      0.43397270681691
  H   0.85673200759103      1.24619993048051      1.83178347401616
  H   2.08108459221718     -0.03215820871591      1.70316487897866
  C   1.10105319890520     -1.23257203147327     -0.59141397795314
  H   1.89485363763086     -1.77877167814928     -0.07690887639130
  H   1.55731553317601     -0.65712315308050     -1.40216104574607
  H   0.42917390952495     -1.96826868857761     -1.03742829268164
