18
Coordinates from ORCA-job run
  C   -0.79564070054453      0.48783443725587     -0.53577426304934
  C   0.65777102778383      0.25666910584710     -0.08068901262703
  H   -0.80128603337883      0.70836979682931     -1.60503644838079
  H   1.14543004062790      1.22225887820216     -0.27659972135503
  N   -1.57496029583708      1.48718736451363      0.14576321513389
  H   -1.55833596196232      1.34082149105814      1.14607643266969
  H   -1.21600621186629      2.40861712853512     -0.06703508796046
  N   -1.54274220172502     -0.81127411768559     -0.41584110371036
  O   -1.59680291540554     -1.53026228550906     -1.41123865254264
  O   -2.00543271987439     -1.08178216101652      0.69052359599693
  C   1.35030787343110     -0.80686917225197     -0.93127640489140
  H   1.22077203576970     -0.61779325237650     -1.99984983494320
  H   2.42132774980284     -0.82217244602497     -0.71536130005323
  H   0.95295025971057     -1.80265051649338     -0.72139821935595
  C   0.79856813513314     -0.05043483671826      1.40764166047900
  H   0.34859527583540      0.72177308298045      2.03547611442137
  H   0.33766822844811     -1.00635387718693      1.66317045597343
  H   1.85781641405141     -0.10493861995858      1.67044857419512
