18
Coordinates from ORCA-job run
  C   -0.63413242013437      0.62819236391107     -0.55047400082614
  C   0.74632757429730      0.23651777246859     -0.01200564354320
  H   -0.54808559734197      0.92962634161631     -1.59630855840906
  H   1.33872911079765      1.14898618054810     -0.15019586850044
  N   -1.24564434707988      1.66360006368266      0.21059810247624
  H   -1.50060729942016      1.32330688067983      1.12885287011406
  H   -2.08363123283440      2.00177842830376     -0.24554612131357
  N   -1.49567033828727     -0.63613393679259     -0.62241924152502
  O   -1.49434830544287     -1.26194181250669     -1.68039530626215
  O   -2.10890739691295     -0.95561499077557      0.39610716511819
  C   1.38100200912353     -0.88656818849113     -0.82929811356261
  H   1.33851202299454     -0.68307305015027     -1.90182494566284
  H   0.88154339649555     -1.84228282212782     -0.65361048210038
  H   2.42962413397216     -1.00237460869266     -0.54532472763142
  C   0.73834643562883     -0.10055902560789      1.47741098870388
  H   1.75322046073219     -0.34470641684300      1.80031256693989
  H   0.40095815456086      0.74237563018123      2.08389819129560
  H   0.10176363885126     -0.96212880940392      1.69022312468896
