18
Coordinates from ORCA-job run
  C   -0.73235376034503      0.49589798151057     -0.47681247683223
  C   0.69984678719395      0.20710169774802     -0.00232554753942
  H   -0.75905327641712      0.58252901559556     -1.57154371732000
  H   1.17764351847741      1.19645240034578      0.01451891675991
  N   -1.27949825817093      1.61584859843756      0.24888722799042
  H   -2.27935526455342      1.68813783503788      0.10836043475375
  H   -0.84174704645908      2.46574194547369     -0.08435030201115
  N   -1.59186842370104     -0.71522686839723     -0.21005112805453
  O   -2.42312538691411     -0.66614570056133      0.69071626288902
  O   -1.36826563842533     -1.69081905601522     -0.92388069670933
  C   1.48979711794342     -0.68044670362762     -0.95882894927253
  H   1.08766476499697     -1.69368656588537     -0.98238330155333
  H   2.53292752201727     -0.73347724817679     -0.63659589303980
  H   1.47209515667390     -0.28731962157142     -1.97929996983088
  C   0.69952831645536     -0.33919178825711      1.42286604807934
  H   0.07364791754189      0.27289292993135      2.07306495330020
  H   1.71660201615636     -0.35038887466456      1.82187398648767
  H   0.32551393752951     -1.36689997692376      1.44478415190286
