16

C	-0.485013	0.027882	-1.46743
C	0.0	0.0	0.0
Br	0.231347	-1.522008	-2.449445
H	1.100685	0.0	0.0
C	-1.947565	-0.050862	-1.529616
N	-3.122486	-0.060907	-1.566586
C	-0.044142	1.23036	-2.176577
N	0.304255	2.194049	-2.752792
N	-0.547083	-1.212667	0.61205
H	-0.606511	-1.059382	1.611782
H	0.127355	-1.959465	0.477766
C	-0.508422	1.232818	0.732047
H	-1.60015	1.224345	0.817403
H	-0.073871	1.237744	1.735386
H	-0.186993	2.151557	0.238485
Cl	3.382584	0.0	0.0
