16

C	-0.493734	-0.007802	-1.472683
C	0.0	0.0	0.0
Br	0.225644	1.51453	-2.4914
H	1.099274	0.0	0.0
C	-0.07527	-1.230889	-2.157613
N	0.225741	-2.2115	-2.730903
C	-1.955435	0.085167	-1.513654
N	-3.12553	0.198948	-1.510257
N	-0.490798	-1.256362	0.561106
H	0.298035	-1.837329	0.816874
H	-1.061102	-1.0959	1.380558
C	-0.502489	1.209154	0.767719
H	-0.211402	2.143452	0.287283
H	-1.592954	1.189774	0.877384
H	-0.045235	1.190433	1.75958
Cl	3.356712	0.0	0.0
