16

C	-0.494001	-0.008433	-1.472227
C	0.0	0.0	0.0
Br	0.225707	1.513832	-2.491406
H	1.099231	0.0	0.0
C	-0.079185	-1.232951	-2.156198
N	0.217888	-2.209922	-2.736228
C	-1.955377	0.086086	-1.51555
N	-3.125562	0.196851	-1.518778
N	-0.492283	-1.257688	0.560886
H	-1.040633	-1.095021	1.395012
H	0.296605	-1.846076	0.800264
C	-0.504007	1.207968	0.767837
H	-0.049844	1.187953	1.761414
H	-1.595153	1.187864	0.874278
H	-0.211133	2.142986	0.289889
Cl	3.356555	0.0	0.0
