16

C	-0.494598	-0.023512	-1.469984
C	0.0	0.0	0.0
Br	0.276705	1.452399	-2.514726
H	1.099362	0.0	0.0
C	-0.108683	-1.273664	-2.125191
N	0.18848	-2.273731	-2.666611
C	-1.952392	0.109689	-1.519099
N	-3.118646	0.253388	-1.529508
N	-0.522811	-1.236943	0.58414
H	-0.871069	-1.064853	1.518821
H	0.234127	-1.910391	0.652087
C	-0.506998	1.21784	0.749467
H	-0.236249	2.143234	0.241416
H	-1.594263	1.184072	0.877173
H	-0.031472	1.231472	1.732677
Cl	3.380699	0.0	0.0
