16

C	-0.350035	0.105793	-1.514145
C	0.0	0.0	0.0
Br	-2.333661	0.121202	-1.787927
H	1.098692	0.0	0.0
C	0.146937	1.330716	-2.130378
N	0.519374	2.333037	-2.618624
C	0.126336	-1.069117	-2.237702
N	0.469757	-2.044875	-2.793695
N	-0.430368	-1.24237	0.597158
H	0.175517	-1.999594	0.309694
H	-1.390615	-1.464885	0.365488
C	-0.507375	1.194826	0.784391
H	-0.069604	1.13372	1.781489
H	-0.199591	2.139348	0.330613
H	-1.597134	1.179538	0.879676
Cl	3.309461	0.0	0.0
