16

C	-0.502429	-0.079521	-1.466117
C	0.0	0.0	0.0
Br	0.152951	1.425353	-2.552143
H	1.105281	0.0	0.0
C	-0.058998	-1.314863	-2.112455
N	0.243949	-2.299854	-2.676156
C	-1.967197	-0.037781	-1.490376
N	-3.142094	0.012197	-1.450672
N	-0.467781	-1.238925	0.615087
H	0.322199	-1.749775	0.989626
H	-1.135027	-1.059584	1.353248
C	-0.501385	1.241138	0.718104
H	-1.593231	1.234704	0.817224
H	-0.055784	1.252054	1.715032
H	-0.197314	2.156147	0.209454
Cl	3.347375	0.0	0.0
