16

C	-0.490536	-0.041165	-1.473135
C	0.0	0.0	0.0
Br	0.285656	-1.582039	-2.403482
H	1.095321	0.0	0.0
C	-1.947594	-0.195398	-1.502709
N	-3.11958	-0.284937	-1.488665
C	-0.128549	1.159534	-2.227264
N	0.116815	2.141792	-2.82496
N	-0.471145	-1.212202	0.652429
H	0.31989	-1.70472	1.046514
H	-1.133205	-1.001676	1.388695
C	-0.495298	1.269736	0.680387
H	-0.070892	1.298805	1.686164
H	-1.589147	1.28515	0.756991
H	-0.163662	2.168203	0.15677
Cl	3.353877	0.0	0.0
