13
Coordinates from ORCA-job run
  C   0.58748176897706      0.58179424098603      0.17307526940687
  C   -0.91559820264588      0.42670868686676      0.02127349831261
  F   0.92029908142135      1.86679490273361     -0.27102221364767
  H   -1.39599742135877      1.31329077788623      0.45788271875071
  H   0.85573098215879      0.54343667774885      1.23592832660410
  H   -1.14957990529242      0.42251876031422     -1.04723780849599
  C   1.38232360219391     -0.43004091068038     -0.61379975736025
  H   2.45259139225790     -0.28183774012442     -0.45973160385985
  H   1.16712429686792     -0.31592262699933     -1.67903994108903
  H   1.10562506902669     -1.43745502758249     -0.30381878778058
  N   -1.34176740714378     -0.84444130792882      0.60509585489450
  H   -1.40566910871483     -0.75457333394872      1.61171665871611
  H   -2.26356414774796     -1.09027309927153      0.26967778554849
