13
Coordinates from ORCA-job run
  C   0.53902945958162      0.65918395889050      0.07617939754106
  C   -0.74901391451296      0.17635826453674      0.71300188052266
  F   0.17991165423176      1.49140447384610     -0.99940515059455
  H   -0.49657723698777     -0.43844441086114      1.58266807520959
  H   1.08023747149905      1.29482223195887      0.78523861815210
  H   -1.29253925171147      1.06074664452182      1.07824748908741
  C   1.42756568779880     -0.44163922337346     -0.45172515781757
  H   0.87295962758973     -1.06430314326068     -1.15146231372459
  H   1.77639789822342     -1.07025242328294      0.37138417036175
  H   2.29639616150575     -0.01188265203736     -0.95326370797286
  N   -1.50443041298182     -0.63299275598236     -0.23789755558240
  H   -1.78341202616250     -0.04224327300615     -1.01148358406566
  H   -2.34852511807361     -0.98175769194994      0.19751783888306
