15

C	-0.161666	-0.064088	-1.536004
C	0.0	0.0	0.0
F	-1.403602	-0.592123	-1.898823
H	1.092605	0.0	0.0
C	-0.119644	1.263032	-2.206062
N	-0.007175	2.227729	-2.868325
N	0.876324	-0.931698	-1.970206
H	1.73288	-0.716311	-1.424052
H	1.042759	-0.83626	-2.961866
C	-0.542794	-1.194948	0.608431
N	-0.957904	-2.164816	1.123832
N	-0.540993	1.222782	0.633255
O	-1.417478	1.10957	1.490636
O	-0.039994	2.285357	0.270292
F	2.539084	0.0	0.0
