15

C	-0.140565	-0.026659	-1.526383
C	0.0	0.0	0.0
F	-1.459385	-0.20042	-1.917466
H	1.092453	0.0	0.0
C	0.364871	1.209504	-2.165993
N	0.779525	2.111892	-2.789814
N	0.644565	-1.11772	-2.054159
H	0.251055	-1.983628	-1.696507
H	1.570227	-0.996958	-1.627678
C	-0.515918	-1.221736	0.578678
N	-0.876568	-2.260887	0.994901
N	-0.536532	1.175413	0.715469
O	-0.630059	2.233054	0.095128
O	-0.800783	1.034679	1.907245
F	2.472899	0.0	0.0
