15

C	-0.143217	0.030557	-1.541976
C	0.0	0.0	0.0
F	-0.066253	-1.332304	-1.939385
H	1.092471	0.0	0.0
C	-1.471317	0.470869	-2.028126
N	-2.537968	0.783873	-2.407508
N	0.896025	0.815114	-2.040955
H	1.761164	0.611247	-1.502174
H	0.995728	0.727025	-3.042527
C	-0.641415	-1.138574	0.613668
N	-1.122136	-2.078541	1.129496
N	-0.504203	1.273688	0.590131
O	0.20204	2.267089	0.451004
O	-1.596314	1.251674	1.165399
F	2.548874	0.0	0.0
