15

C	-0.450866	-0.03565	-1.460586
C	0.0	0.0	0.0
F	-0.065246	1.203863	-2.005345
H	1.091021	0.0	0.0
C	0.314094	-1.06525	-2.196365
N	0.828694	-1.896064	-2.8461
N	-1.834443	-0.281105	-1.640844
H	-2.364622	0.353778	-1.055728
H	-2.088028	-0.173197	-2.613269
C	-0.545048	-1.100039	0.765176
N	-0.940698	-1.996882	1.414818
N	-0.492089	1.289604	0.604099
O	-1.711235	1.504394	0.589404
O	0.342393	2.050488	1.073911
F	2.458105	0.0	0.0
