13

C	0.0	0.0	0.0
C	-0.551747	-0.413039	-1.375795
Cl	1.778095	0.0	0.0
H	0.2925	-0.617366	-2.040589
H	-0.322776	-0.702528	0.764006
H	-0.321075	1.008324	0.248344
N	-1.269225	0.729741	-1.943596
H	-2.135909	0.837865	-1.413873
H	-1.557377	0.484448	-2.885845
N	-1.279385	-1.672882	-1.218356
H	-2.141511	-1.464189	-0.7118
H	-1.575537	-1.981901	-2.138893
Br	-4.142952	0.0	0.0
