13

C	0.0	0.0	0.0
C	-0.546316	-0.18821	-1.426488
Cl	1.777797	0.0	0.0
H	0.300486	-0.284214	-2.111874
H	-0.325601	0.954942	0.404361
H	-0.322547	-0.816234	0.641521
N	-1.259967	1.030842	-1.809265
H	-1.54111	0.938432	-2.780968
H	-2.12885	1.057779	-1.272484
N	-1.272967	-1.457655	-1.476013
H	-1.587933	-1.599987	-2.430597
H	-2.125668	-1.340315	-0.926645
Br	-4.138046	0.0	0.0
