13

C	0.0	0.0	0.0
C	-0.460388	0.013501	-1.462348
Cl	1.789771	0.0	0.0
H	0.049524	-0.835911	-1.950016
H	-0.332375	-0.902517	0.510914
H	-0.347564	0.894224	0.515226
N	-0.096241	1.301872	-2.044857
H	-0.514922	1.329834	-2.966635
H	0.908382	1.37866	-2.139818
N	-1.869633	-0.151872	-1.683877
H	-2.217511	-1.043745	-1.355772
H	-2.434413	0.539291	-1.198269
Br	-4.803539	0.0	0.0
