13

C	0.0	0.0	0.0
C	-0.419276	-0.051664	-1.485948
Cl	1.789727	0.0	0.0
H	0.27134	0.635139	-2.007365
H	-0.319395	0.925424	0.474276
H	-0.362841	-0.870238	0.541489
N	-1.748965	0.376731	-1.823955
H	-2.472198	-0.135822	-1.321353
H	-1.885747	1.34864	-1.578621
N	-0.282888	-1.433989	-1.928854
H	-0.600886	-1.470782	-2.889911
H	0.692013	-1.708861	-1.904097
Br	-4.627479	0.0	0.0
