13

C	0.0	0.0	0.0
C	-0.520815	0.150072	-1.433727
Cl	1.791669	0.0	0.0
H	-0.306828	1.184414	-1.752431
H	-0.317232	-0.963351	0.399319
H	-0.343357	0.812991	0.638542
N	-1.932079	-0.077573	-1.585147
H	-2.545613	0.53131	-1.052927
H	-2.167204	-1.015971	-1.286326
N	0.121319	-0.852346	-2.282339
H	-0.389816	-0.837899	-3.156495
H	1.085574	-0.610539	-2.466387
Br	-4.89463	0.0	0.0
