13

C	0.0	0.0	0.0
C	-0.503939	0.160023	-1.417965
Br	1.947889	0.0	0.0
H	-0.178397	1.103509	-1.849798
H	-0.259657	-0.995807	0.36514
H	-1.600133	0.089913	-1.375803
N	-0.504669	1.102476	0.772052
H	-1.526455	1.046297	0.691146
H	-0.276394	0.949625	1.748059
N	-0.028829	-0.919987	-2.317039
O	0.302916	-0.600455	-3.458918
O	-0.03038	-2.069707	-1.883512
Cl	-3.553703	0.0	0.0
