13

C	0.0	0.0	0.0
C	-0.469204	0.016836	-1.44329
Br	2.01758	0.0	0.0
H	-0.02692	-0.797823	-2.009738
H	-0.203316	-1.00326	0.376103
H	-1.565938	-0.03962	-1.416376
N	-0.51591	1.021218	0.821128
H	-1.24559	1.530721	0.340803
H	-0.922593	0.623258	1.654419
N	-0.106167	1.260602	-2.170158
O	0.576699	1.151075	-3.188613
O	-0.538006	2.322138	-1.724145
Cl	-3.575377	0.0	0.0
