13

C	0.0	0.0	0.0
C	-0.492393	0.170791	-1.420791
Br	2.030867	0.0	0.0
H	-1.588998	0.268206	-1.347047
H	-0.2389	-1.014342	0.313836
H	-0.205863	-0.667044	-2.051122
N	-0.523824	0.917141	0.887856
H	-0.430089	0.69817	1.863581
H	-0.38573	1.884052	0.649577
N	0.047774	1.382924	-2.09031
O	0.066774	2.436531	-1.453485
O	0.419044	1.268166	-3.256917
Cl	-3.700483	0.0	0.0
