13

C	0.0	0.0	0.0
C	-0.534488	-0.209074	-1.395211
Br	2.01061	0.0	0.0
H	-0.25927	0.594761	-2.076609
H	-0.267686	-0.844228	0.628793
H	-1.63025	-0.276148	-1.272732
N	-0.510365	1.191933	0.518726
H	-0.164368	2.031235	0.082248
H	-0.51286	1.249529	1.522656
N	-0.0509	-1.471487	-2.003808
O	0.241604	-1.452149	-3.199227
O	-0.012887	-2.468012	-1.285351
Cl	-3.721694	0.0	0.0
