13

C	0.0	0.0	0.0
C	-0.50429	0.154963	-1.418187
Br	1.947602	0.0	0.0
H	-0.178287	1.096426	-1.853981
H	-0.260114	-0.994248	0.368761
H	-1.600229	0.085598	-1.374859
N	-0.504487	1.105599	0.767939
H	-0.277762	0.955406	1.744531
H	-1.526129	1.04958	0.686239
N	-0.030271	-0.929029	-2.312762
O	0.306113	-0.614105	-3.454343
O	-0.037829	-2.077591	-1.875632
Cl	-3.554761	0.0	0.0
