13

C	0.0	0.0	0.0
C	-0.508684	0.063599	-1.422801
Br	1.955883	0.0	0.0
H	-0.186661	0.975464	-1.920033
H	-0.257099	-0.967739	0.435182
H	-1.605241	0.00097	-1.369726
N	-0.503042	1.154832	0.693028
H	-0.275886	1.070875	1.677574
H	-1.524865	1.091131	0.6146
N	-0.050628	-1.07564	-2.254446
O	-0.004127	-2.187379	-1.732575
O	0.211895	-0.841953	-3.434518
Cl	-3.555957	0.0	0.0
