13

C	0.0	0.0	0.0
C	-0.532634	0.044322	-1.413695
Br	2.030717	0.0	0.0
H	-0.228997	-0.826822	-1.98834
H	-0.217957	-0.990132	0.396055
H	-1.631983	0.101445	-1.311503
N	-0.522322	0.976393	0.825764
H	-0.445487	1.917789	0.481199
H	-0.334544	0.869188	1.80694
N	-0.075748	1.222666	-2.194063
O	0.210544	1.0394	-3.375692
O	-0.044377	2.317688	-1.631982
Cl	-3.731636	0.0	0.0
