13

C	0.0	0.0	0.0
C	-0.47545	0.04705	-1.436872
Br	2.025286	0.0	0.0
H	-0.096017	-0.804617	-1.995986
H	-0.204757	-0.992717	0.398725
H	-1.57544	0.08564	-1.410102
N	-0.514733	1.004706	0.796099
H	-0.654702	1.88777	0.335454
H	-0.120766	1.07733	1.718992
N	0.027485	1.251629	-2.152052
O	0.754158	1.081938	-3.131066
O	-0.323103	2.355205	-1.727143
Cl	-3.644246	0.0	0.0
