13

C	0.0	0.0	0.0
C	-0.468566	0.178371	-1.418633
Br	2.023728	0.0	0.0
H	-0.197499	-0.717521	-1.97723
H	-1.557462	0.285824	-1.398316
H	-0.013138	1.054533	-1.871951
N	-0.257011	1.310714	0.816506
O	-0.269562	2.373665	0.211096
O	-0.388203	1.171416	2.027372
N	-0.522307	-1.126202	0.621846
H	-1.538387	-1.116035	0.455333
H	-0.355274	-1.09116	1.620187
Br	-3.757963	0.0	0.0
