13

C	0.0	0.0	0.0
C	-0.493036	0.240891	-1.404864
Br	1.95407	0.0	0.0
H	-1.580986	0.341559	-1.363722
H	-0.047904	1.139304	-1.824309
H	-0.225674	-0.627976	-2.007404
N	-0.290967	1.273456	0.874312
O	-0.433284	1.078837	2.075977
O	-0.308764	2.363124	0.317899
N	-0.529943	-1.159008	0.568848
H	-0.341049	-1.178491	1.56405
H	-1.54805	-1.119353	0.42885
Br	-3.783886	0.0	0.0
