13

C	-0.484926	0.111678	-1.447731
C	0.0	0.0	0.0
Cl	-0.244628	-1.480288	-2.26231
H	1.093931	0.0	0.0
H	-1.56334	0.284309	-1.50018
H	-0.353301	-0.923091	0.467108
C	0.287439	1.183813	-2.19189
H	0.073919	2.157676	-1.74047
H	0.004605	1.215814	-3.24668
H	1.356536	0.984653	-2.085762
C	-0.49297	1.137577	0.763269
N	-0.907226	2.066263	1.353324
H	2.855914	0.0	0.0
