12

C	-0.499691	0.029857	-1.46228
C	0.0	0.0	0.0
Br	0.160388	1.614991	-2.377299
H	1.096723	0.0	0.0
H	-1.589471	0.107259	-1.484173
C	-0.099092	-1.165171	-2.195133
N	0.19585	-2.109878	-2.828039
C	-0.48545	-1.222342	0.642262
N	-0.8853	-2.213748	1.129836
C	-0.492791	1.16965	0.725294
N	-0.911431	2.102157	1.303842
Br	3.295437	0.0	0.0
