12

C	-0.339059	-0.041283	-1.498573
C	0.0	0.0	0.0
Br	-2.246611	-0.340964	-1.840435
H	1.098699	0.0	0.0
H	0.188447	-0.892345	-1.934801
C	0.061768	1.186003	-2.173673
N	0.342302	2.181501	-2.732174
C	-0.45012	-1.216838	0.669727
N	-0.797774	-2.204855	1.201374
C	-0.529426	1.18858	0.657037
N	-0.959945	2.148317	1.1802
Br	3.267395	0.0	0.0
