12

C	-0.339161	-0.047475	-1.49838
C	0.0	0.0	0.0
Br	-2.24641	-0.349466	-1.838577
H	1.098753	0.0	0.0
H	0.188787	-0.899653	-1.931554
C	0.060517	1.177544	-2.177707
N	0.340875	2.172886	-2.736047
C	-0.449813	-1.214282	0.674598
N	-0.797832	-2.200881	1.208639
C	-0.529425	1.191094	0.652326
N	-0.959435	2.152917	1.171832
Br	3.267806	0.0	0.0
