14
Coordinates from ORCA-job run
  C   0.85518071529974     -0.07344354098600     -0.26555508775858
  C   -0.62985168225560      0.24569330729008     -0.06538002431507
  F   1.45279479661356     -0.12676863888240      0.97894014955579
  H   -1.12664698084755      0.23909718608639     -1.03854339194869
  H   1.35847826946152      0.72890565552460     -0.81924365761704
  N   0.96171065495334     -1.38875043519882     -0.84466273140186
  H   0.70886185124175     -1.35507865164238     -1.82562085073253
  H   1.92474481042105     -1.69796964807718     -0.78242027733862
  N   -0.69298673562558      1.67695615125381      0.39295730164066
  O   -0.47654165846463      2.52152050503969     -0.47394078310693
  O   -0.89046616761244      1.89323189894362      1.58226732287615
  N   -1.32728665368787     -0.58945135137409      0.86154304640425
  H   -0.87330560808934     -0.52874140026552      1.76536326812251
  H   -1.24468561140796     -1.54520103771181      0.53429571561997
