14
Coordinates from ORCA-job run
  C   0.93036009878771      0.00982325556790     -0.39174860771469
  C   -0.56732463909947      0.15776877254476     -0.17667206619138
  F   1.50468236127248      0.11003569472692      0.90341563338246
  H   -1.07404399820527      0.15757113629964     -1.14248614953896
  H   1.33396310525692      0.84781618185737     -0.95821950476156
  N   1.19711354507174     -1.21018000574512     -1.03137796971814
  H   2.18632291866870     -1.35700318275809     -1.17293488708521
  H   0.78298065173515     -1.98129139660765     -0.52471200416439
  N   -0.79618375253618      1.57651059539990      0.36924177941595
  O   -0.45574061993458      2.49461807107152     -0.37005190460964
  O   -1.29910038265082      1.69079262692795      1.48139656946458
  N   -1.04797317875101     -0.87072299351972      0.66855074874122
  H   -0.63981294301853     -0.77829261790132      1.58984114664769
  H   -2.05424316659684     -0.84744613786405      0.75475721613206
