14
Coordinates from ORCA-job run
  C   0.85847901672366     -0.06524208002349     -0.25674566696199
  C   -0.63829584190801      0.21663342981273     -0.08825971797981
  F   1.45033053480100      0.01133760855544      0.98949985382257
  H   -1.12950862446121      0.10724155060275     -1.05812660464616
  H   1.33574064952691      0.70414102759578     -0.87640690635094
  N   1.01544031474753     -1.42074561593171     -0.71889595143232
  H   1.98749711350948     -1.69050870755662     -0.62340278399142
  H   0.77020402950524     -1.48195552082725     -1.70037970794445
  N   -0.75468902740563      1.67862494379862      0.24415666430282
  O   -0.96459446587233      1.98941442161743      1.41015325226970
  O   -0.56508029403449      2.45251883430731     -0.69211840697310
  N   -1.31012407839438     -0.56002205764093      0.90589129990130
  H   -0.86350676173588     -0.40555975096141      1.80214342369967
  H   -1.19289256500190     -1.53687808334864      0.66249125228415
