14
Coordinates from ORCA-job run
  C   0.59239007085183     -0.39030852881488     -0.74859678764701
  C   -0.67759916023270      0.29704489577074     -0.25026928830748
  F   1.35307988229489      0.59476175017311     -1.40129001786528
  H   -1.24087919654688      0.68014380781691     -1.10088844783732
  H   0.30769301589574     -1.11324583588408     -1.51756090088482
  N   1.28623610312291     -1.05837681127418      0.28168748293409
  H   1.60670286139717     -0.40880437268990      0.98794649072794
  H   2.05569716970867     -1.60376370347882     -0.07966256796754
  N   -0.26946947118418      1.56136110000445      0.49434645810939
  O   -0.72624864745221      2.62556328407342      0.09191543994143
  O   0.46816207873495      1.41845457472829      1.46690163551966
  N   -1.46524098936200     -0.51414790826085      0.60776851861371
  H   -0.94197218798318     -1.30227016087816      0.96057293569190
  H   -2.34855152924502     -0.78341209128607      0.20812904897134
