14
Coordinates from ORCA-job run
  C   0.85367205133288      0.00122444953672     -0.40148336420556
  C   -0.61893355871609      0.27509552453505     -0.10662272000338
  F   1.52320736845768      0.09363859046619      0.83817322617099
  H   -1.16213930215221      0.31683195743173     -1.05045444193163
  H   1.27323873135465      0.78025802853506     -1.03859665437936
  N   1.00118707817291     -1.26357686605559     -1.00903728999208
  H   1.95888499581007     -1.42723367498281     -1.28821182102196
  H   0.71078390337835     -1.99976525830876     -0.37879244302485
  N   -0.66464179618571      1.69121293960822      0.44166271682728
  O   -0.87459069826431      1.84880935156081      1.63539177661782
  O   -0.42831365980213      2.57421189566892     -0.38077813227674
  N   -1.25702452687596     -0.61237375157341      0.80016436626478
  H   -1.63961036420523     -1.42646326198963      0.34620655219638
  H   -0.67572022230490     -0.84986992443251      1.59037822875831
