14
Coordinates from ORCA-job run
  C   0.96111186307627     -0.30944133919098     -0.00591090801866
  C   -0.30518495526365      0.52751080074118      0.07723181672375
  F   0.57366171309100     -1.61371992125447      0.40137756525186
  H   -0.06990892947205      1.56566356129171     -0.16040152542069
  H   1.70087934794813      0.01851468962127      0.72294899800506
  N   1.47554035789942     -0.25812419420666     -1.31020745287907
  H   2.30740476001525     -0.82138759026136     -1.41408672494116
  H   0.77076737798110     -0.51984107305609     -1.98666128113743
  N   -0.71441647728875      0.56259413788706      1.55851410233850
  O   0.09521351619940      1.07599400695563      2.32422894316238
  O   -1.80311734108489      0.09019860063771      1.86592123004369
  N   -1.29931163207190      0.00509534027081     -0.78434233834778
  H   -2.11830020397671      0.59576648762475     -0.81489260524102
  H   -1.57433939705262     -0.91782350706055     -0.47371981953945
