14
Coordinates from ORCA-job run
  C   0.98157051812469     -0.07199001538574     -0.22463248566782
  C   -0.50828045808209      0.22915969976581     -0.25922393565025
  F   1.32344722473567     -0.10754536594724      1.15319133811257
  H   -0.83225864954276      0.33727237545715     -1.29501221015585
  H   1.56078383933461      0.74605466401971     -0.65054788476814
  N   1.23490395359240     -1.27731157714244     -0.89711408543491
  H   2.21361245097943     -1.52603382667712     -0.87520957608878
  H   0.66134025960642     -2.02345176694906     -0.52666338359068
  N   -0.68814710683293      1.63250550409430      0.34170761688386
  O   -1.36500038878917      1.74060020400749      1.35810510196617
  O   -0.13352976301865      2.54643032163392     -0.26038294784429
  N   -1.23181157573576     -0.78421714199570      0.41363780194273
  H   -2.22993824644970     -0.65523376312507      0.32656248343287
  H   -0.98769205792219     -0.78823931175602      1.39558216686253
