14
Coordinates from ORCA-job run
  C   0.85721876222783     -0.14634361934369     -0.22760066109090
  C   -0.59492893335258      0.31863438793742     -0.07570444289692
  F   1.37043794004146     -0.36470660277111      1.03669514851181
  H   -1.03106743119529      0.44466151907994     -1.06961676009860
  H   1.47517940222996      0.63735561931212     -0.68327037166249
  N   0.85800915607880     -1.41445462215622     -0.91102345105835
  H   0.66284525775812     -1.27666234130101     -1.89596968356457
  H   1.77812470180086     -1.83131293661227     -0.83109043023323
  N   -0.53254013136222      1.70642091912928      0.50042127162625
  O   -0.17707696499382      2.58884881567066     -0.27827428362490
  O   -0.77529697235936      1.84670753110760      1.69271141330386
  N   -1.43064916202228     -0.50586923709920      0.73964335218198
  H   -1.02799457441788     -0.56739733897682      1.66737868182109
  H   -1.43026105043359     -1.43588209397670      0.33670021678497
