14
Coordinates from ORCA-job run
  C   0.57528411097462     -0.69626969581850     -0.39238039219746
  C   -0.57057976729840      0.29717506986989     -0.18318356384354
  F   0.21434985893868     -1.38294548979217     -1.56567200368645
  H   -0.54437219313422      1.03582887375274     -0.98633234591490
  H   0.56734048063081     -1.44791493663333      0.40251008023588
  N   1.82828969315904     -0.07861530256112     -0.52073095543088
  H   2.55395031549717     -0.43037783139502      0.07783466706795
  H   1.83026836919413      0.92626350533054     -0.58639400429555
  N   -0.25716055754805      1.04220950892741      1.07818519311030
  O   -0.46914727198961      0.43749377294517      2.12613214735462
  O   0.23362329348985      2.16452497229692      0.97733457097825
  N   -1.88977025843315     -0.24892348604564     -0.06763189015737
  H   -1.89892737047191     -1.00450802522997      0.60664761617249
  H   -2.17314870300896     -0.61394093564693     -0.96731911939335
