14
Coordinates from ORCA-job run
  C   0.63344543135584     -0.59767274239528     -0.38208659232727
  C   -0.58611737151936      0.21175095211922      0.02982647837882
  F   0.22304448099858     -1.36833026516915     -1.49907877526640
  H   -0.77618666930635      1.00552505353203     -0.70178736806941
  H   0.88118040601371     -1.31086346028766      0.40392742645712
  N   1.72508144865133      0.24274199381070     -0.64863451830574
  H   2.58091498109231     -0.27080507266626     -0.80039315371200
  H   1.55038236063063      0.86861651951459     -1.42315099798502
  N   -0.18908736438813      0.96573408616912      1.28281872020988
  O   -0.27339608108588      2.19146684251371      1.23442244070642
  O   0.18235194632828      0.30224121404012      2.24195220198498
  N   -1.69118671609702     -0.64255754652746      0.32415900894402
  H   -2.57227754801097     -0.15611264661214      0.23432344743015
  H   -1.68814930466297     -1.43973492804154     -0.29629831844557
