14
Coordinates from ORCA-job run
  C   0.64235489385901     -0.70145377934502     -0.52836845463784
  C   -0.56766680649546      0.20743934304714     -0.28046881134550
  F   0.45518027496320     -1.21452371698288     -1.80467013077601
  H   -0.58084460293867      1.00293919357278     -1.02758900311434
  H   0.60648185570821     -1.54883490010359      0.16349772155951
  N   1.88694494182710     -0.04515329780813     -0.42683917888790
  H   1.86365754929062      0.95614078363071     -0.53796842335457
  H   2.44908585409693     -0.32288784789888      0.35849519491416
  N   -0.27147807881725      0.91918173296767      1.03873675815997
  O   0.16554594139422      2.06708519892347      0.98771146651779
  O   -0.45950977642888      0.26512045825680      2.06288906262689
  N   -1.78660518751312     -0.50748926945749     -0.27283598578839
  H   -1.81377818887198     -1.18280018377715      0.47941047038719
  H   -2.58936867007394      0.10323628497457     -0.21200068626096
