14
Coordinates from ORCA-job run
  C   0.94226379912573      0.00185342978000     -0.36278048629743
  C   -0.55708982945302      0.18117356905285     -0.18651330027985
  F   1.47837392054034      0.02852584512450      0.95207555461355
  H   -1.03333475117884      0.23687300098634     -1.16612369769169
  H   1.38496547546440      0.85288362312072     -0.87833835523723
  N   1.19696251688479     -1.19574455582796     -1.04852212325535
  H   0.74545667007965     -1.97581896165643     -0.58960070933676
  H   2.18625738382848     -1.36450663842036     -1.16288668364042
  N   -0.76553215288476      1.58032082986122      0.41514359447148
  O   -0.37911535556688      2.52020724459783     -0.27232806774694
  O   -1.29884946696775      1.65945309630012      1.51610696087682
  N   -1.09068844911596     -0.86966508701339      0.59693620240324
  H   -2.09827251643876     -0.82414221480460      0.65251123412565
  H   -0.70939724431743     -0.83041318110085      1.53331987699492
