14
Coordinates from ORCA-job run
  C   0.87474848300178     -0.15140799110810     -0.13746303295242
  C   -0.57751656654834      0.33737066068077     -0.12180981383241
  F   1.23446971119610     -0.46285795692972      1.15962853342360
  H   -0.89285718008521      0.53917213196259     -1.14833981133642
  H   1.55329822670144      0.64524456070311     -0.46704311247463
  N   0.93437788142048     -1.37257974484411     -0.89994939712987
  H   0.86247646101750     -1.16476895199516     -1.88942582825516
  H   1.83158577230364     -1.81588129748718     -0.74033386207308
  N   -0.55899943874823      1.68210787301576      0.55151943728012
  O   -0.93657606747567      1.74927586153799      1.71481039227303
  O   -0.10069607715008      2.60524259786777     -0.11887285224048
  N   -1.51592685840562     -0.51832260182601      0.53376627066538
  H   -1.48733999201137     -1.41824466012239      0.06835891642066
  H   -1.22304435521643     -0.65435048145531      1.49415416023167
