14
Coordinates from ORCA-job run
  C   0.95295958477936     -0.04032936387319     -0.39603470853418
  C   -0.52597553872798      0.16658457364435     -0.08755252624879
  F   1.60372553246124      0.16859456591278      0.83767801354979
  H   -1.09567665126320      0.16637068213468     -1.01888972568014
  H   1.31858625378830      0.73915346475362     -1.06399691297470
  N   1.21532820343671     -1.32412177703332     -0.89255939607929
  H   1.60232492966375     -1.36819851007610     -1.81770644271589
  H   0.49617181014292     -2.00322334589390     -0.70391025359656
  N   -0.67833841823556      1.60192887020593      0.43734497381316
  O   -1.09075477092920      1.75836015402010      1.58069452126191
  O   -0.37021058322170      2.49042871317352     -0.35152810013359
  N   -0.98779423086318     -0.83210784108962      0.80160224449413
  H   -1.97204594001533     -0.73180939683814      1.00632064973938
  H   -0.46730018101612     -0.79063078904069      1.66853766310478
