14
Coordinates from ORCA-job run
  C   0.47804532977040     -0.36774145329513     -0.83682561653861
  C   -0.68541634333010      0.34354724348149     -0.14834376320210
  F   1.20574750844470      0.62158550578637     -1.52014235417950
  H   -1.32449265799403      0.80604301218387     -0.90018584159043
  H   0.06524488817220     -1.02654334192636     -1.60535697908780
  N   1.25375219290967     -1.13098713862457      0.05996708212598
  H   1.94277220462959     -1.68903624508125     -0.42352361776481
  H   1.69144712030616     -0.54333775450511      0.75737101255005
  N   -0.12671993400978      1.53654534757064      0.61523174459374
  O   0.71611538337460      1.29786289920084      1.47729542403276
  O   -0.57657306602748      2.64334744814852      0.34046242948245
  N   -1.40992534115531     -0.48326666517376      0.75039976293786
  H   -2.34245714369296     -0.69507392054327      0.43687679448059
  H   -0.88754014139766     -1.31194493722228      0.99577392215982
