14
Coordinates from ORCA-job run
  C   0.57120582919278     -0.40139506990036     -0.84231106059576
  C   -0.71105458294451      0.21524062006065     -0.29357654846375
  F   1.24656969993339      0.62592762386151     -1.52365510875957
  H   -1.29754893973026      0.63498358470638     -1.11080670744852
  H   0.29383231037098     -1.14549538418047     -1.59092971658024
  N   1.34671183977394     -1.01161925621702      0.16543636904071
  H   2.11660395447598     -1.53584426848007     -0.22483303388782
  H   1.68420872180249     -0.33673521759690      0.83910156345632
  N   -0.31371890581832      1.45537780232767      0.51916156036791
  O   0.24698878959181      1.25372745420973      1.59771073857328
  O   -0.59213225207961      2.55393904015885      0.05080546372697
  N   -1.43759093271139     -0.74944469732092      0.43755666224276
  H   -2.29580516496103     -0.38548845094683      0.82650077478114
  H   -0.85927036689624     -1.17217378068224      1.15083904354656
