14
Coordinates from ORCA-job run
  C   0.54380088695702     -0.70033325986979     -0.42716022504122
  C   -0.56700078786195      0.31860720219603     -0.15901659574823
  F   0.13117281378424     -1.34196599688186     -1.60950828425521
  H   -0.54318679108909      1.07707161801227     -0.94350377988674
  H   0.53389460696485     -1.47455338020688      0.34570593082258
  N   1.81077730678043     -0.11649132510863     -0.57185919186247
  H   1.84166356710090      0.88919952286692     -0.61218223803907
  H   2.54048161170831     -0.50618950733735     -0.00250249795983
  N   -0.19693502430783      1.02046212027868      1.11143123548648
  O   -0.39826532136562      0.39509725717828      2.14928092131698
  O   0.32518651183924      2.12979689432233      1.02514936563908
  N   -1.89729255891217     -0.19416053499226     -0.01958897594406
  H   -2.21626099190495     -0.52653658091548     -0.91998847045140
  H   -1.90903582969337     -0.96700402954226      0.63474280592309
