14
Coordinates from ORCA-job run
  C   0.65897498288083     -0.21376009234088     -0.89076701663560
  C   -0.64681937583457      0.22833134355222     -0.22971875118309
  F   1.12477691147714      0.77864964880623     -1.72827136629954
  H   -1.29711995627550      0.67828285195577     -0.98571639278916
  H   0.41146274446251     -1.06252637858951     -1.54607264380158
  N   1.63336962884671     -0.47484351279154      0.11481226134093
  H   2.41484861280712     -0.98989198469509     -0.26888888133880
  H   1.20959459014145     -1.02931505151193      0.84955002124198
  N   -0.33948453131390      1.35200533060976      0.72795758589431
  O   -0.35634345467074      1.10354336098427      1.93106030306506
  O   -0.07765125091923      2.43242275427289      0.21669797499374
  N   -1.20685714714452     -0.89523112329315      0.48969274052204
  H   -1.94358088760122     -1.32253744396042     -0.05561335554821
  H   -1.58617086685608     -0.58612970299863      1.37527752053791
