14
Coordinates from ORCA-job run
  C   0.53913542034691     -0.70867288344353     -0.42100594418395
  C   -0.58771767714911      0.28843047013128     -0.13789229371022
  F   0.07101368246879     -1.43733569198298     -1.52950646187813
  H   -0.64502267698683      0.99621131493139     -0.96679263050862
  H   0.61164264909807     -1.43140814660835      0.39704354309317
  N   1.77149585579140     -0.09464254257917     -0.69106360103827
  H   2.54946975020247     -0.41810098325177     -0.14432184388208
  H   1.76035622689076      0.90683351978440     -0.79699928913346
  N   -0.15711836575540      1.08126836220704      1.05808657627568
  O   -0.26088419795793      0.51519622118363      2.14334768009998
  O   0.31316575030745      2.20090314377058      0.86859251027249
  N   -1.88517715230362     -0.25722534914769      0.12696043616045
  H   -1.82299776747462     -0.99088636363111      0.82223154641748
  H   -2.25636149747833     -0.65057107136372     -0.72768022798453
