14
Coordinates from ORCA-job run
  C   0.94878077310698     -0.06336803241470     -0.28749536055928
  C   -0.52289946185421      0.26343330819151     -0.03660986918051
  F   1.52940031031259     -0.06801106471329      0.99176562972052
  H   -1.04760150329776      0.32855144454480     -0.99110056835852
  H   1.44015789252145      0.73025366052584     -0.84917242723086
  N   1.13505597761586     -1.31307276305994     -0.91093489550520
  H   0.35783880117816     -1.94648254946290     -0.81304701194013
  H   1.49298383913159     -1.27132175905158     -1.84921873636405
  N   -0.55514729445527      1.71091614168568      0.50235429638838
  O   -0.95689658991123      1.91441275937620      1.63661323960735
  O   -0.14063947297955      2.55684569980103     -0.28866816222631
  N   -1.15144995395544     -0.63237621814523      0.83268123800605
  H   -1.94016928207639     -1.15816237614787      0.51210148382404
  H   -0.59041403533677     -1.05161825112954      1.55173114381854
