14
Coordinates from ORCA-job run
  C   0.64442008669022     -0.26361223754163     -0.82989183752971
  C   -0.69995383842935      0.23367797164919     -0.29874228493540
  F   1.34538104010438      0.77442869388894     -1.39852046199501
  H   -1.31456745733117      0.61123371408939     -1.11715508120861
  H   0.42684226762884     -0.99128209115220     -1.62035684316987
  N   1.42992430482415     -0.80627638276741      0.25411257531799
  H   1.38808210050540     -1.81631851713191      0.25134000242618
  H   2.39388440163437     -0.52513822402079      0.13293248048569
  N   -0.45675030845840      1.45773396855433      0.58589407683805
  O   -0.46062263816561      1.28847929754352      1.80197200199554
  O   -0.26610162339020      2.52167872042710      0.00432271364828
  N   -1.32042741469728     -0.84486601497169      0.38282577874372
  H   -2.28649276201643     -0.63782374923785      0.59707800397815
  H   -0.82361815889892     -1.00291514932899      1.25218887540500
