14
Coordinates from ORCA-job run
  C   0.57331587423201     -0.64868024031252     -0.50898300707398
  C   -0.58520954272303      0.23494843639621     -0.05689397485105
  F   0.13303318196209     -1.23587910438678     -1.71078407604989
  H   -0.66390471189225      1.10186284163264     -0.72204226226297
  H   0.69168465944438     -1.47415005103545      0.19657404975673
  N   1.76857495324584      0.06041366092966     -0.68987582596534
  H   1.70105804762692      1.06500539653782     -0.69387576901719
  H   2.55622221275045     -0.27497894517450     -0.16495682982578
  N   -0.12849286622042      0.83794746657462      1.26156557859902
  O   -0.03199222627151      0.08828443063776      2.22418282803957
  O   0.16297053927999      2.03487102108537      1.24217860370396
  N   -1.77696839757210     -0.51562484660831      0.13107153902248
  H   -1.79326926261612     -1.31533743773140     -0.48486589648478
  H   -2.60502246124626      0.04131737145489     -0.02229495759079
