14
Coordinates from ORCA-job run
  C   0.62361303449760     -0.61986053375060     -0.58045886465649
  C   -0.53730257852702      0.18477870777556     -0.01146470731022
  F   0.11052807039661     -1.16453770986369     -1.76778683190999
  H   -0.70905440912735      1.06872865626839     -0.64113636523755
  H   0.85631178366193     -1.45346213263774      0.08059232171046
  N   1.79006718585160      0.12523901632900     -0.85753940594594
  H   1.61844666721662      1.09063101123677     -1.09721816452900
  H   2.48250557133816      0.04847947373057     -0.13080166968363
  N   -0.14557619942953      0.75784676785073      1.32881607780382
  O   0.74564535700878      0.20877445235647      1.97039530975171
  O   -0.80951914593746      1.72242126166982      1.70149866418771
  N   -1.68838731073336     -0.63853436442224      0.22600716397661
  H   -2.51870240992014     -0.07211312969473      0.34240605849590
  H   -1.81857561629644     -1.25839147684833     -0.56230958665338
