14
Coordinates from ORCA-job run
  C   0.61673466519011     -0.39025023801729     -0.81518126740434
  C   -0.69367510101665      0.22068783893162     -0.32961920722845
  F   1.32984279008288      0.64478610639624     -1.44369574061578
  H   -1.23293507109942      0.65297768386781     -1.17246383059137
  H   0.38059932344453     -1.12383926154424     -1.58793764933178
  N   1.33438294531335     -1.01563242380730      0.22571930418832
  H   2.12439869137983     -1.53553858505791     -0.12851699094001
  H   1.63440293846821     -0.35090377202077      0.92668751611827
  N   -0.34070330373603      1.44789592579709      0.52178034805086
  O   0.15598241547579      1.22929588065867      1.62803581725936
  O   -0.58779597933591      2.55407471265508      0.05374655715398
  N   -1.46051841616944     -0.75339224242957      0.34580785738342
  H   -0.92243518962227     -1.18843851596692      1.08278322490210
  H   -2.33828070837498     -0.39372310946250      0.69285406105541
