14
Coordinates from ORCA-job run
  C   0.49304428505644     -0.37347489544528     -0.82568554029397
  C   -0.67843405978402      0.34984398019432     -0.16384353412489
  F   1.24689549267287      0.60809334801330     -1.49175250379015
  H   -1.29554195636575      0.81820776981329     -0.93031225396139
  H   0.09160075718370     -1.02794083962455     -1.60383224825157
  N   1.23963703543594     -1.14458293446185      0.08899502766244
  H   1.93522961766465     -1.70837458905465     -0.37820869274049
  H   1.66612273146583     -0.56133394472781      0.79700573056734
  N   -0.12389068245320      1.53838020244485      0.61063216790967
  O   -0.55199782708360      2.65006790442735      0.32093799036308
  O   0.69420106736968      1.29158026278432      1.49396954343025
  N   -1.42933429179474     -0.47008467387042      0.71833776750255
  H   -2.36185556734055     -0.66320704581728      0.39346009246487
  H   -0.92467660202724     -1.30717454467558      0.97129645326225
