14
Coordinates from ORCA-job run
  C   0.66586541891381     -0.31735219155883     -0.88656369560449
  C   -0.65552091220486      0.22623349842266     -0.33105324585590
  F   1.24913649248514      0.75000244845375     -1.56705159343338
  H   -1.26575855009454      0.61797138284440     -1.14437412071946
  H   0.41399930314714     -1.08237849352161     -1.62397354579723
  N   1.56735111162096     -0.85003095665093      0.05564177107582
  H   1.57037070487605     -0.39623862591187      0.95556923722370
  H   1.59189965842059     -1.85298515181217      0.10587701319575
  N   -0.33132988448063      1.45730577369182      0.51064374092725
  O   -0.59221146267212      2.56019769045597      0.04523050070180
  O   0.17860144054560      1.24236934680616      1.61366896860549
  N   -1.33588060404513     -0.78942741287405      0.38806832247599
  H   -2.25700979975616     -0.49343149994237      0.68140200716998
  H   -0.79951291675583     -1.07323580840294      1.19691464003467
