14
Coordinates from ORCA-job run
  C   0.83987142788159     -0.21278917410853     -0.22887263756037
  C   -0.61753592962547     -0.57990123326620     -0.46346245607551
  F   1.61520219440180     -1.11092976913745     -0.99366963870120
  H   -0.74446931892843     -1.60221924197966     -0.08913043550837
  H   -0.77012474710111     -0.61785042876687     -1.54503800921341
  C   1.14618358351751      1.13362621826175     -0.75798433779187
  N   1.37016206819744      2.20170541849627     -1.18938453113399
  N   1.17804585264592     -0.25595995075379      1.14468017201579
  H   0.97378961462317     -1.16981413351353      1.52991133247528
  H   2.15343923080373     -0.03176045963448      1.29606948246360
  C   -1.59734885646578      0.37891851284457      0.20060525651887
  H   -1.44104479621374      0.41404851247107      1.27888952666017
  H   -2.62418753216843      0.06207238467687      0.00767871454252
  H   -1.48098279156819      1.39185334440998     -0.19129243869151
