14
Coordinates from ORCA-job run
  C   0.75889672358471     -0.14596090276033     -0.07380222208907
  C   -0.64102994258044     -0.20856722744065      0.51870554225971
  F   0.76334790012339     -0.95483193745061     -1.23232514383793
  H   -0.64383121418681      0.41251413447036      1.41806773214007
  H   -0.79900050648943     -1.24681969413796      0.83317189308211
  C   1.08281686623196      1.21901826310314     -0.54111548893870
  N   1.31793221420230      2.30865496061727     -0.90808070512254
  N   1.73578245869211     -0.55654817366637      0.86365161486402
  H   1.52241747297229     -1.48045253819476      1.21750429257196
  H   2.66400665854580     -0.55162097104065      0.46008051377083
  C   -1.72994858343898      0.22006079677456     -0.45641823115334
  H   -1.60685870431430      1.26431149291664     -0.75294900417767
  H   -2.71237854358241      0.11845784622271      0.00866512811763
  H   -1.71115279976019     -0.39721604941333     -1.35515592148707
