14
Coordinates from ORCA-job run
  C   0.77363576168610     -0.05878899409901     -0.27364970878578
  C   -0.63249221124103      0.51476913884123     -0.39194971410720
  F   0.78694029254640     -1.28036272747169     -0.98683851243136
  H   -0.61339047105192      1.53296938761198      0.00408865586552
  H   -0.86018698555464      0.57546188085094     -1.45901530988858
  C   1.74844501145577      0.81449851339969     -0.96095668251357
  N   2.50628190722332      1.51757221705403     -1.51574412076930
  N   1.17901597953973     -0.22782497759134      1.07163243975017
  H   2.12220674739134     -0.59127145249592      1.12790052937095
  H   0.54942889472820     -0.85244881219000      1.55865247861326
  C   -1.68143350244261     -0.33017782320077      0.32401911061524
  H   -2.68106410859149      0.03198697952032      0.07782157533336
  H   -1.57867831891525     -0.27273862192380      1.40982263162381
  H   -1.61770899677394     -1.37464470830566      0.01421662732349
