14
Coordinates from ORCA-job run
  C   0.77652721060390     -0.14597464644846     -0.22919005144444
  C   -0.58585140345991      0.48231196104813     -0.49363948367743
  F   0.73359732860222     -1.46439035075951     -0.74101258041536
  H   -0.77542313243574      0.38604208567011     -1.56549144042168
  H   -0.51404001122175      1.54764626177289     -0.26147606951929
  C   1.82618537170163      0.54778533606614     -1.00498914314074
  N   2.64330138906491      1.10695879524127     -1.63466343052521
  N   1.12761844472314     -0.12202840165613      1.14111325160446
  H   0.44233614381456     -0.61807433815845      1.69547330328888
  H   2.04180507833534     -0.52917357815536      1.29360321257092
  C   -1.70759915934447     -0.17648607312501      0.30299666250667
  H   -1.64201637423664      0.05696631794674      1.36786173405447
  H   -2.67533682366009      0.18829691188143     -0.04521548497602
  H   -1.69210406248710     -1.25988028132379      0.17362952009477
