14
Coordinates from ORCA-job run
  C   0.76930819752297     -0.16552996661977     -0.32706347774994
  C   -0.60708928607588      0.49781346456529     -0.33536000744971
  F   0.66242196862271     -1.30621788530491     -1.13831275100489
  H   -0.85788700887473      0.71317538495848     -1.37701974634414
  H   -0.52684224462728      1.45393265778387      0.19020941419146
  C   1.75838344259199      0.71118755085277     -0.98998766302911
  N   2.52730300879677      1.43988835228373     -1.49523693063550
  N   1.24289483441273     -0.53242715882448      0.95611982189311
  H   0.54312653771583     -0.51865603441877      1.67872702973781
  H   2.10513612003517     -0.10314252435500      1.24553614218561
  C   -1.68983557173209     -0.38295029917107      0.28313162903495
  H   -1.69138237595997     -1.37019180394484     -0.17877118711209
  H   -1.56728980325769     -0.50704920837141      1.36193745882232
  H   -2.67024781917052      0.07016747056611      0.12609026746012
