14
Coordinates from ORCA-job run
  C   0.76702731016607     -0.23438911337372     -0.19317860755049
  C   -0.61038590317704     -0.27801613049443      0.46007272391204
  F   0.67138567100714     -0.96411385520704     -1.38774131548827
  H   -0.78205937423506     -1.32792566834294      0.72675482339882
  H   -0.55714374630309      0.29803996560889      1.38929300152054
  C   1.11660877302520      1.14571177207537     -0.59504741991755
  N   1.37742437741815      2.25536571799036     -0.87347217779542
  N   1.78257873387255     -0.78002692045576      0.62643869565910
  H   1.44577425895733     -1.21924671855941      1.46680170732939
  H   2.58566184683329     -0.19691034815518      0.78612673974541
  C   -1.73377231285594      0.22939972906684     -0.43408516586586
  H   -1.77755459126703     -0.34457434665294     -1.35978093516096
  H   -1.59186582825055      1.28287768847557     -0.68727280559078
  H   -2.69467921519102      0.13380822802441      0.07509073580401
