14
Coordinates from ORCA-job run
  C   0.82867078897047     -0.38262564793243     -0.29515114627151
  C   -0.66583947554867     -0.58115453327835     -0.48400308177379
  F   1.49381694133648     -1.31424512479387     -1.07752689741272
  H   -0.87286835430015     -1.60104715826644     -0.14925847001901
  H   -0.85633543848974     -0.53818240099129     -1.55955837384824
  C   1.24557531178972      0.95193177602707     -0.81044477871837
  N   1.54988777553788      2.03172889493242     -1.15906247883233
  N   1.22463010963780     -0.61690349003890      1.06002710884022
  H   0.67495661765605     -0.06258878143455      1.70257009841467
  H   2.20435273782763     -0.39555581123137      1.19191621986001
  C   -1.53051568832443      0.43430908122802      0.25527977119498
  H   -2.58074422233093      0.28911524225094     -0.00335301603673
  H   -1.26314942464721      1.45956845873082     -0.01108158487194
  H   -1.45343767911494      0.32564949479794      1.33964662947477
