14
Coordinates from ORCA-job run
  C   0.77314722237241     -0.06904848212096     -0.02063990631134
  C   -0.67478830309953     -0.47054270238020      0.21760736402894
  F   1.00117900727353     -0.12383012552647     -1.41436338162866
  H   -0.84959240950724     -0.44370185649877      1.29590672108279
  H   -0.76368691035309     -1.51373436742176     -0.10668750143984
  C   1.01143526528799      1.33849183126064      0.36511534598413
  N   1.17752502138839      2.45861407726335      0.67278947347015
  N   1.66520851808675     -0.90141672945006      0.69589190053786
  H   1.50288046777416     -1.87442560516548      0.46888649850246
  H   2.63026109037259     -0.66287068131607      0.50451745578166
  C   -1.67508464332165      0.40182403017118     -0.52966034243148
  H   -1.48089552718613      0.38295660097616     -1.60218004906254
  H   -1.62777457612931      1.43841444430998     -0.18910674554977
  H   -2.69081422295886      0.04026956589846     -0.35907683296437
