14
Coordinates from ORCA-job run
  C   0.83687858211056     -0.37023694861683     -0.28920677030602
  C   -0.65325224753260     -0.57639674819140     -0.50599208349858
  F   1.52109546217726     -1.28337315277592     -1.07563409263937
  H   -0.82624569368515     -0.51159132564673     -1.58355968290777
  H   -0.85620105729749     -1.60530463754622     -0.19705433772630
  C   1.25065411472078      0.97655450117945     -0.77458250792146
  N   1.54663266259543      2.06537169386762     -1.10167134004114
  N   1.21227406477699     -0.62456924864928      1.06826852219703
  H   0.65114872598829     -0.08234306673441      1.71112307675233
  H   2.18933740913313     -0.40333290028295      1.21866756088837
  C   -1.53761604660839      0.41554364430886      0.24129311499967
  H   -1.27406774202046      1.44859761833038      0.00261038668225
  H   -1.47716522612353      0.28250100233519      1.32399103032543
  H   -2.58247300823481      0.26857956842225     -0.03725287680444
