14
Coordinates from ORCA-job run
  C   0.87254198458242     -0.26998207780387     -0.29393241595706
  C   -0.58589593023223     -0.61690494677335     -0.54086200246524
  F   1.65522986987435     -1.06918320196441     -1.11236286674253
  H   -0.75505317583627     -0.52270243666871     -1.61687422155052
  H   -0.68749928453952     -1.67349837321424     -0.27860086889138
  C   1.15062832100264      1.13378609259135     -0.70953004546678
  N   1.34215052352721      2.26153343714286     -0.97670066167931
  N   1.26008620262335     -0.54887679634160      1.05543762731827
  H   0.63844302303878     -0.09979494311631      1.71434461642423
  H   2.20646230569607     -0.23238952928427      1.23001247994816
  C   -1.57448345080652      0.24671094405505      0.23551046288276
  H   -1.41753784464693      1.31037559963273      0.04181317748346
  H   -2.59601085588357      0.00402508420947     -0.06182395716843
  H   -1.50906168839978      0.07590114753529      1.31256867586437
