17

C	-0.37968	-0.040185	-1.492301
C	0.0	0.0	0.0
Cl	-0.001154	1.677398	-2.160314
H	1.102761	0.0	0.0
N	0.431937	-1.021103	-2.093176
H	1.413221	-0.887283	-1.85139
H	0.318701	-1.045317	-3.097803
C	-1.854044	-0.250677	-1.757725
H	-2.434141	0.497507	-1.218674
H	-2.064414	-0.165513	-2.826614
H	-2.133959	-1.249778	-1.416684
C	-0.457256	-1.246345	0.619692
N	-0.81559	-2.238456	1.136113
N	-0.605861	1.128905	0.713046
H	-0.401335	1.003293	1.699126
H	-0.098006	1.957984	0.422734
Br	3.506265	0.0	0.0
