17

C	-0.422634	-0.003132	-1.468137
C	0.0	0.0	0.0
Cl	-2.341753	-0.183585	-1.452296
H	1.095692	0.0	0.0
N	-0.039837	1.20296	-2.044923
H	-0.2623	1.981601	-1.436534
H	-0.380779	1.325639	-2.987013
C	0.100825	-1.20461	-2.217913
H	-0.284502	-2.131648	-1.794193
H	1.191276	-1.184625	-2.136727
H	-0.194289	-1.153221	-3.269065
C	-0.439409	-1.219987	0.691315
N	-0.778676	-2.166764	1.299177
N	-0.436214	1.226396	0.656943
H	0.212607	1.441772	1.40353
H	-1.365531	1.113272	1.041744
Br	3.475518	0.0	0.0
