17

C	-0.508102	0.032721	-1.446527
C	0.0	0.0	0.0
Cl	0.123884	-1.497527	-2.257756
H	1.095306	0.0	0.0
N	-1.938243	0.070335	-1.458859
H	-2.312011	-0.797657	-1.08912
H	-2.272897	0.177542	-2.409311
C	0.091584	1.207377	-2.190614
H	-0.272569	2.127936	-1.735235
H	-0.194358	1.168116	-3.245559
H	1.17949	1.166981	-2.108271
C	-0.511263	-1.199469	0.687523
N	-1.015269	-2.094602	1.259907
N	-0.402183	1.234443	0.668481
H	-1.363235	1.176959	0.979209
H	0.205954	1.379788	1.464474
Br	3.499327	0.0	0.0
