17

C	-0.381011	-0.041543	-1.491881
C	0.0	0.0	0.0
Cl	-0.00024	1.67162	-2.163936
H	1.102686	0.0	0.0
N	0.427073	-1.027701	-2.090962
H	1.409417	-0.895172	-1.851915
H	0.310948	-1.054512	-3.095447
C	-1.856536	-0.249856	-1.753901
H	-2.13824	-1.24692	-1.408907
H	-2.433271	0.501601	-1.216035
H	-2.069686	-0.167963	-2.822657
C	-0.456463	-1.245634	0.622553
N	-0.823468	-2.219177	1.167538
N	-0.606176	1.128763	0.712052
H	-0.407483	1.001833	1.699088
H	-0.095412	1.957438	0.425495
Br	3.505299	0.0	0.0
