17

C	-0.413985	-0.01316	-1.490674
C	0.0	0.0	0.0
Cl	0.050798	1.605982	-2.16114
H	1.10257	0.0	0.0
N	0.332846	-0.997606	-2.235111
H	0.032618	-1.922081	-1.939868
H	1.322775	-0.901762	-2.005061
C	-1.904796	-0.188928	-1.695468
H	-2.446754	0.566556	-1.12703
H	-2.212817	-1.17876	-1.345034
H	-2.136022	-0.099873	-2.757567
C	-0.439507	-1.269801	0.586171
N	-0.790903	-2.295253	1.039696
N	-0.597731	1.107046	0.756464
H	-0.12779	1.949761	0.439446
H	-0.32528	0.989473	1.728132
Br	3.505827	0.0	0.0
