15

C	0.0	0.0	0.0
C	-0.580789	-0.1338	-1.395836
Br	1.945934	0.0	0.0
H	-1.685856	-0.162526	-1.233949
H	-0.305348	-0.881487	0.560822
C	-0.48314	1.275495	0.667563
H	-1.575013	1.263982	0.668827
H	-0.114219	2.155358	0.135071
H	-0.118569	1.315012	1.695291
N	-0.209426	-1.452443	-2.023628
O	-0.271816	-2.432869	-1.290788
O	0.084741	-1.466281	-3.215841
C	-0.215988	0.960065	-2.28366
N	0.027405	1.86302	-2.994361
Cl	-3.583027	0.0	0.0
