15

C	0.0	0.0	0.0
C	-0.371946	-0.347567	-1.473792
Br	1.947619	0.0	0.0
H	0.469102	-0.053022	-2.10927
H	-0.324082	-0.816536	0.642978
C	-0.480661	1.327908	0.550707
H	-1.572169	1.313608	0.54338
H	-0.107458	2.164169	-0.037286
H	-0.121255	1.418951	1.578911
N	-1.494984	0.410309	-2.178332
O	-2.196792	-0.236803	-2.937406
O	-1.448097	1.628056	-2.081492
C	-0.556246	-1.786755	-1.629975
N	-0.586425	-2.956516	-1.731377
Cl	-3.532236	0.0	0.0
