15

C	0.0	0.0	0.0
C	-0.599993	-0.120912	-1.386528
Br	1.946021	0.0	0.0
H	-1.70381	-0.151609	-1.204282
H	-0.303009	-0.885165	0.556866
C	-0.473627	1.270479	0.687294
H	-0.113344	2.15434	0.156693
H	-1.565293	1.261543	0.704781
H	-0.092318	1.299999	1.709211
N	-0.243525	-1.431811	-2.035423
O	-0.258893	-2.417986	-1.307592
O	-0.009684	-1.434389	-3.241071
C	-0.252459	0.982386	-2.269267
N	0.017492	1.918211	-2.925603
Cl	-3.584993	0.0	0.0
