15

C	0.0	0.0	0.0
C	-0.587513	-0.138052	-1.392492
Br	1.94598	0.0	0.0
H	-1.691191	-0.175109	-1.222207
H	-0.302358	-0.881072	0.56434
C	-0.480584	1.277729	0.668693
H	-0.115383	2.155909	0.132002
H	-0.110154	1.316932	1.694258
H	-1.572698	1.266801	0.674237
N	-0.207263	-1.452964	-2.021304
O	0.086907	-1.46299	-3.213675
O	-0.259617	-2.434367	-1.289056
C	-0.2393	0.959786	-2.281502
N	-0.016531	1.878262	-2.979271
Cl	-3.590235	0.0	0.0
