15

C	0.0	0.0	0.0
C	-0.298146	0.094192	-1.52029
Br	1.949395	0.0	0.0
H	0.310191	-0.674433	-2.000621
H	-0.319813	-0.995301	0.311913
C	-0.547329	1.060708	0.925416
H	-0.145685	2.043857	0.688931
H	-0.281477	0.802173	1.953359
H	-1.636806	1.054749	0.824155
N	0.252343	1.381911	-2.110078
O	1.086476	1.265177	-3.004317
O	-0.194756	2.437318	-1.676581
C	-1.631947	-0.046072	-2.121418
N	-2.388474	-0.172266	-3.015465
Cl	-3.63688	0.0	0.0
