15

C	0.0	0.0	0.0
C	-0.289214	0.106899	-1.522672
Br	1.948835	0.0	0.0
H	0.366128	-0.616931	-2.012119
H	-0.343868	-0.981985	0.324669
C	-0.477949	1.104155	0.921555
H	-0.214565	0.834899	1.946431
H	-1.562183	1.185547	0.833931
H	0.002241	2.049703	0.675524
N	0.195055	1.433579	-2.082995
O	-0.349321	2.451686	-1.670704
O	1.079803	1.384607	-2.934822
C	-1.607032	-0.109708	-2.138672
N	-2.325625	-0.318782	-3.048628
Cl	-3.486377	0.0	0.0
