15
Coordinates from ORCA-job run
  C   -0.84980814480821      0.46333629194826     -0.17797215424251
  C   0.61322536514402      0.15666771880326     -0.50185445171588
  F   -1.43588871160777      0.95906775930011     -1.34026372766868
  H   0.61579885567371     -0.55619477482231     -1.33511961940943
  H   -0.89871442213658      1.26518385291217      0.56698869023159
  C   -1.63940121467727     -0.74432005831495      0.27252362265513
  H   -1.53315916291459     -1.55968122299016     -0.44704327830201
  H   -2.69513445919501     -0.47594701446830      0.33398487225706
  H   -1.31801116524267     -1.09056535707198      1.25577520374559
  C   1.37291125140301     -0.43381301167037      0.69042435860169
  H   2.43147479667463     -0.54288547841296      0.45144620237190
  H   1.28881142236760      0.21914789451501      1.56246966246026
  H   0.97990386681144     -1.41762503676132      0.94870334440961
  C   1.27197096971965      1.38056673732662     -0.96802914415662
  N   1.79502075278804      2.37406169970694     -1.31003358123769
