15
Coordinates from ORCA-job run
  C   -0.77878932898716     -0.17698799926809     -0.72262363800884
  C   0.69687712942107      0.21813800879567     -0.56725185412081
  F   -0.79175387786516     -1.49284594904524     -1.18821392738376
  H   1.16139376671253      0.06748757336540     -1.54864709991622
  H   -1.22740486387094      0.43670909075362     -1.51034776743017
  C   -1.59694925236158     -0.10051094356397      0.54451085672690
  H   -2.63114395313774     -0.37157233651376      0.32685689063445
  H   -1.58263876363557      0.91152020700207      0.95462084290659
  H   -1.21508600971929     -0.79529704955239      1.29334485537783
  C   1.44449515654438     -0.62332663140033      0.47075467571510
  H   1.29168238686301     -1.68161352803463      0.25623094486106
  H   2.51369268364936     -0.40994677129645      0.42981759983759
  H   1.09641498324107     -0.41049163842271      1.48197017648504
  C   0.78055346564009      1.64467161013875     -0.25085248201668
  N   0.83865647750593      2.78306635704206      0.03082992633192
