16

C	0.0	0.0	0.0
C	-0.408645	-0.113145	-1.475205
Br	1.993071	0.0	0.0
H	0.005975	-1.046829	-1.872991
H	-1.498857	-0.20309	-1.400698
N	-0.49803	1.235283	0.528665
H	-1.522365	1.087761	0.391481
H	-0.333278	1.201638	1.531359
N	-0.462076	-1.11187	0.797803
H	-1.489093	-0.976313	0.700263
H	-0.213074	-1.979244	0.329611
C	-0.026379	1.064731	-2.360095
H	-0.407244	1.990066	-1.928341
H	1.057562	1.159229	-2.465922
H	-0.459139	0.942085	-3.358688
F	-2.847478	0.0	0.0
