16

C	0.0	0.0	0.0
C	-0.365319	0.208866	-1.45556
Br	2.216234	0.0	0.0
H	0.104344	1.134969	-1.79268
H	-1.451752	0.350603	-1.387631
N	-0.390269	1.149159	0.755509
H	-1.422555	1.058188	0.640417
H	-0.179985	0.973843	1.734032
N	-0.423647	-1.279442	0.459272
H	-1.456564	-1.134941	0.346762
H	-0.239683	-1.333341	1.456887
C	-0.054092	-0.954595	-2.382898
H	-0.536609	-1.863247	-2.023053
H	1.020251	-1.14046	-2.448346
H	-0.432799	-0.738137	-3.387861
F	-2.771183	0.0	0.0
