16

C	0.0	0.0	0.0
C	-0.408241	0.228902	-1.46331
Br	1.995092	0.0	0.0
H	-1.49629	0.10379	-1.418515
H	0.03272	-0.570251	-2.066234
N	-0.467002	1.000713	0.927995
H	-0.195185	1.924846	0.608473
H	-1.49431	0.887695	0.803754
N	-0.482984	-1.29615	0.382154
H	-0.312879	-1.376275	1.381808
H	-1.507511	-1.144335	0.271819
C	-0.068863	1.594143	-2.043621
H	-0.389748	1.645891	-3.088756
H	-0.597771	2.388135	-1.509099
H	1.003758	1.805229	-2.009466
F	-2.841671	0.0	0.0
