16

C	-0.468558	-0.006241	-1.463932
C	0.0	0.0	0.0
Br	-2.285352	0.664752	-1.723629
H	1.091189	0.0	0.0
N	0.415424	0.96186	-2.292287
O	0.873692	1.926555	-1.709155
O	0.517217	0.68698	-3.482078
C	-0.374568	-1.321768	-2.076494
N	-0.292208	-2.38927	-2.563312
N	-0.461913	-1.298966	0.641616
O	-1.65172	-1.593365	0.484496
O	0.331994	-1.904967	1.350177
N	-0.47232	1.118139	0.735095
H	0.192039	1.35169	1.46286
H	-1.404466	0.975967	1.103894
Cl	3.217636	0.0	0.0
