18

C	-0.515276	-0.027256	-1.43664
C	0.0	0.0	0.0
F	-1.881488	-0.190096	-1.416188
H	1.089216	0.0	0.0
N	-0.268973	1.311489	-2.123717
O	-1.202915	2.106608	-2.149279
O	0.84802	1.482574	-2.593666
C	0.133884	-1.123633	-2.234583
H	1.217656	-1.011508	-2.192311
H	-0.152023	-2.073014	-1.784555
H	-0.211887	-1.079765	-3.269751
N	-0.46775	-1.161068	0.675408
H	-1.419756	-1.02382	0.991438
H	0.134793	-1.346562	1.467254
N	-0.472736	1.29367	0.658521
O	0.147151	2.316238	0.381513
O	-1.445351	1.227352	1.413048
Br	3.442252	0.0	0.0
