18

C	-0.464219	-0.036995	-1.462779
C	0.0	0.0	0.0
F	-1.800529	-0.373832	-1.511271
H	1.088491	0.0	0.0
N	-0.371249	1.345465	-2.096601
O	0.70918	1.653488	-2.583006
O	-1.380436	2.04114	-2.059071
C	0.34598	-1.013304	-2.271751
H	0.03916	-0.97422	-3.318834
H	1.407208	-0.779091	-2.174132
H	0.162972	-2.016601	-1.884096
N	-0.42033	-1.138811	0.742217
H	-1.296328	-1.530964	0.433873
H	0.320556	-1.822225	0.790117
N	-0.54582	1.254074	0.639523
O	-1.621942	1.166516	1.226054
O	0.107034	2.282136	0.484889
Br	3.448146	0.0	0.0
