18

C	-0.456889	-0.014847	-1.457229
C	0.0	0.0	0.0
F	-1.831862	-0.059716	-1.589491
H	1.104833	0.0	0.0
N	-0.03009	1.26422	-2.168246
O	0.015418	2.271905	-1.506699
O	0.199134	1.180962	-3.374849
C	0.119163	-1.206405	-2.172056
H	1.203761	-1.226847	-2.051332
H	-0.145785	-1.155974	-3.22553
H	-0.315951	-2.10653	-1.737243
N	-0.434847	-1.164406	0.728304
H	0.275568	-1.879135	0.676809
H	-1.329372	-1.51016	0.405482
N	-0.516204	1.17699	0.793455
O	0.260069	1.705588	1.593903
O	-1.698339	1.494026	0.637144
Br	3.329086	0.0	0.0
