18

C	-0.589788	-0.002403	-1.416124
C	0.0	0.0	0.0
F	0.145371	0.777408	-2.254364
H	1.092418	0.0	0.0
N	-0.423339	-1.433613	-1.930853
O	0.706386	-1.754708	-2.269474
O	-1.425595	-2.143087	-1.966588
C	-2.03911	0.404146	-1.511477
H	-2.389523	0.259041	-2.533733
H	-2.66102	-0.189354	-0.843634
H	-2.118288	1.461857	-1.257686
N	-0.445342	-1.127947	0.742121
H	-1.319168	-0.943257	1.216425
H	0.260761	-1.366889	1.425981
N	-0.413655	1.326611	0.629738
O	-1.143104	1.290342	1.623461
O	-0.019908	2.350687	0.082552
Br	3.420289	0.0	0.0
