18

C	-0.454439	0.013321	-1.469805
C	0.0	0.0	0.0
F	-0.58702	-1.286628	-1.889452
H	1.09012	0.0	0.0
N	-1.892891	0.538659	-1.565678
O	-2.251274	1.051489	-2.620743
O	-2.622289	0.326824	-0.596978
C	0.46147	0.729879	-2.418814
H	0.452877	1.79989	-2.231434
H	0.145351	0.5266	-3.441667
H	1.47196	0.352643	-2.243314
N	-0.453436	-1.108542	0.74461
H	0.15211	-1.253005	1.539433
H	-1.412877	-0.997182	1.040414
N	-0.366583	1.34655	0.639519
O	-0.39474	2.343179	-0.080477
O	-0.57293	1.347021	1.847217
Br	3.436492	0.0	0.0
