15

C	0.0	0.0	0.0
C	-0.508211	0.108346	-1.41218
F	1.36921	0.0	0.0
H	-1.569589	0.361692	-1.35291
H	0.041063	0.936686	-1.866545
N	-0.353687	1.238301	0.826858
O	-0.387232	2.299941	0.217834
O	-0.44412	1.087164	2.03881
C	-0.429075	-1.202291	0.72718
N	-0.568555	-2.244117	1.251303
C	-0.311897	-1.195699	-2.17654
H	-0.989843	-1.960852	-1.79369
H	-0.546027	-1.039823	-3.231466
H	0.715351	-1.563171	-2.105835
Br	-3.621545	0.0	0.0
