15

C	0.0	0.0	0.0
C	-0.544685	-0.211864	-1.385888
F	1.359005	0.0	0.0
H	-0.157566	0.603795	-2.00135
H	-0.085833	-1.142741	-1.737658
N	-0.359947	1.387286	0.559237
O	-0.311638	1.50522	1.778356
O	-0.549783	2.27879	-0.257333
C	-0.448599	-1.013957	0.964997
N	-0.742774	-1.889561	1.689434
C	-2.066506	-0.29153	-1.428733
H	-2.399051	-0.434598	-2.458102
H	-2.557845	0.604547	-1.054652
H	-2.463959	-1.116204	-0.838158
Br	-5.274705	0.0	0.0
