13

C	0.0	0.0	0.0
C	-0.438348	-0.034618	-1.454081
Cl	1.797957	0.0	0.0
H	-1.533305	0.001096	-1.378
H	-0.268066	-0.95541	0.46263
H	-0.049112	0.885797	-1.926137
N	-0.532931	1.170927	0.630974
H	-1.560485	0.977221	0.54585
H	-0.2881	1.147914	1.617107
N	-0.008056	-1.269823	-2.112419
H	-0.563763	-1.398349	-2.948073
H	0.960539	-1.186998	-2.395374
F	-2.858485	0.0	0.0
