13

C	0.0	0.0	0.0
C	-0.365864	0.153756	-1.509623
Cl	1.857025	0.0	0.0
H	0.523664	0.512728	-2.034737
H	-0.231616	-1.013339	0.338791
H	-0.55609	-0.875446	-1.867414
N	-0.533841	1.033523	0.821178
H	-1.554594	0.917662	0.643183
H	-0.379464	0.764124	1.789966
N	-1.445207	1.092926	-1.776677
H	-2.2597	0.736434	-1.235838
H	-1.648014	1.049914	-2.768414
F	-2.939612	0.0	0.0
