13

C	0.0	0.0	0.0
C	-0.294427	0.265195	-1.513723
Cl	1.801252	0.0	0.0
H	-0.112145	1.340365	-1.638488
H	-0.258302	-1.039102	0.240338
H	0.480916	-0.256385	-2.081712
N	-0.629674	0.971977	0.832828
H	-0.510831	0.690117	1.80163
H	-1.642643	0.799351	0.607766
N	-1.575517	-0.09166	-2.08764
H	-2.313627	0.118154	-1.383705
H	-1.604906	-1.104438	-2.14646
F	-3.051742	0.0	0.0
