13

C	0.0	0.0	0.0
C	-0.480886	0.004271	-1.459586
Cl	1.839576	0.0	0.0
H	-1.040866	0.939057	-1.599544
H	-0.220763	-0.989831	0.408085
H	0.375555	0.009713	-2.139066
N	-0.558206	1.092344	0.733785
H	-0.394051	0.918934	1.721103
H	-1.57906	0.904386	0.570916
N	-1.291069	-1.193082	-1.690946
H	-1.588779	-1.177844	-2.662029
H	-2.125047	-0.983967	-1.109675
F	-2.899567	0.0	0.0
