13

C	0.0	0.0	0.0
C	-0.483158	-0.033167	-1.443816
Cl	1.78472	0.0	0.0
H	0.01167	-0.860976	-1.963788
H	-0.271292	-0.958196	0.455677
H	-1.557288	-0.216932	-1.325475
N	-0.587237	1.131351	0.658953
H	-0.379823	1.074719	1.651109
H	-1.613579	0.888568	0.521825
N	-0.179358	1.238832	-2.127771
H	-0.971353	1.448315	-2.725975
H	-0.203716	1.942477	-1.393636
F	-2.879395	0.0	0.0
