13

C	0.0	0.0	0.0
C	-0.470645	0.324918	-1.447634
Cl	1.80058	0.0	0.0
H	-0.983658	1.286763	-1.39296
H	-0.245549	-1.049098	0.202643
H	0.404378	0.443668	-2.09467
N	-0.573058	0.919112	0.934039
H	-1.592911	0.763427	0.727216
H	-0.406352	0.570596	1.873969
N	-1.392569	-0.630124	-2.039029
H	-0.972237	-1.55367	-1.999245
H	-2.191688	-0.60293	-1.380636
F	-2.898566	0.0	0.0
