15

C	0.0	0.0	0.0
C	-0.400015	0.229193	-1.494568
Br	1.966069	0.0	0.0
H	0.172971	-0.489727	-2.087891
H	-0.028999	1.227637	-1.751004
C	-0.580473	1.035281	0.942844
H	-1.672258	0.931337	0.926622
H	-0.225188	0.88482	1.962914
H	-0.3011	2.037063	0.609951
C	-0.370134	-1.356828	0.403281
N	-0.614692	-2.475924	0.668258
N	-1.787919	0.122683	-1.829392
H	-2.378219	0.785441	-1.341247
H	-2.176735	-0.777805	-1.577898
Cl	-4.402208	0.0	0.0
