15

C	0.0	0.0	0.0
C	-0.395981	0.165108	-1.501303
Br	1.966148	0.0	0.0
H	0.178653	-0.577256	-2.064208
H	-0.027639	1.153587	-1.801414
C	-0.579866	1.08112	0.890702
H	-0.243731	0.967349	1.922831
H	-0.277447	2.063484	0.519809
H	-1.672278	0.992886	0.86072
C	-0.37372	-1.336555	0.461099
N	-0.635762	-2.440056	0.771332
N	-1.782617	0.04067	-1.834788
H	-2.384895	0.716302	-1.377844
H	-2.168053	-0.85438	-1.559202
Cl	-4.403803	0.0	0.0
