15

C	0.0	0.0	0.0
C	-0.528042	-0.470175	-1.351693
Br	1.973318	0.0	0.0
H	-0.232919	0.283494	-2.095783
H	-1.618963	-0.434443	-1.23891
C	-0.51273	1.38944	0.336042
H	-1.606522	1.327575	0.347426
H	-0.144885	1.720378	1.307866
H	-0.185237	2.09665	-0.430108
C	-0.347616	-0.961718	1.049607
N	-0.571891	-1.717185	1.920734
N	-0.101729	-1.82329	-1.667846
H	0.723347	-1.819256	-2.250624
H	-0.843766	-2.309382	-2.151864
Cl	-3.797459	0.0	0.0
