15

C	0.0	0.0	0.0
C	-0.529667	-0.441864	-1.3592
Br	1.973511	0.0	0.0
H	-1.621067	-0.402007	-1.243995
H	-0.229934	0.321995	-2.091098
C	-0.508561	1.38253	0.372058
H	-1.602818	1.326248	0.397153
H	-0.127228	1.688208	1.347877
H	-0.188062	2.107519	-0.380385
C	-0.345872	-0.982815	1.03041
N	-0.571874	-1.749948	1.890916
N	-0.109865	-1.790792	-1.697164
H	-0.856718	-2.272871	-2.176774
H	0.711645	-1.782036	-2.28609
Cl	-3.805373	0.0	0.0
