15

C	0.0	0.0	0.0
C	-0.409576	0.039749	-1.51048
Br	1.965883	0.0	0.0
H	0.282279	-0.616869	-2.045564
H	-0.20885	1.06478	-1.846234
C	-0.585513	1.141483	0.80925
H	-0.261832	2.094309	0.384195
H	-0.27374	1.089145	1.853786
H	-1.678485	1.064204	0.758948
C	-0.363165	-1.300773	0.563144
N	-0.626168	-2.368808	0.978708
N	-1.750657	-0.339507	-1.842587
H	-2.482772	0.154733	-1.332372
H	-1.909766	-1.318994	-1.640035
Cl	-4.352141	0.0	0.0
