14
Coordinates from ORCA-job run
  C   1.00080541380512      0.16200952810201      0.02477372912135
  C   -0.41998319103421     -0.18157219686727      0.48700796171286
  Br  2.27095778117802     -0.30094368535060      1.51501557046543
  H   -0.44888686597055     -1.25192151867685      0.72573186714923
  H   1.11573006625912      1.24170115782885     -0.07764260399544
  N   1.30813965269913     -0.47665341552115     -1.19923773233198
  H   2.20066012970955     -0.17175679961732     -1.56453903552659
  H   1.32637712702722     -1.48451988418646     -1.09720597626475
  C   -1.44947985737575      0.13692271905873     -0.60564362105299
  H   -2.45610085752135     -0.08586790200221     -0.24733505659541
  H   -1.24335229041796     -0.44980602912328     -1.49869352878858
  H   -1.40577055338089      1.19563233253214     -0.87047801583981
  C   -0.75374922795843      0.54831290985168      1.71153313038259
  N   -1.04434732701903      1.11846278397173      2.69571331156409
