14
Coordinates from ORCA-job run
  C   1.05204716003874     -0.27668026460841      0.17712861228613
  C   -0.40064180547957     -0.12606285021469      0.66037881935004
  Br  1.46496842593733     -2.17120799093094     -0.08680342032264
  H   -0.50574297395634     -0.71410097740513      1.57825492745994
  H   1.72669807526542      0.01704157496618      0.98975654727266
  N   1.24830840019865      0.41865911018595     -1.06915560298573
  H   1.06203509102419      1.40810172962997     -0.93399046144331
  H   2.20555767866164      0.31634010933689     -1.38303521377425
  C   -1.45006323579281     -0.56349745422160     -0.36375271483150
  H   -1.33520793237683     -1.62557069992143     -0.57910527154075
  H   -2.45218251865935     -0.39304486094703      0.03336617002239
  H   -1.33201386376577     -0.00632054443529     -1.29167361313320
  C   -0.58561286507647      1.28667652277987      1.01338671619964
  N   -0.69914963601883      2.43066659578567      1.25524450544058
