14
Coordinates from ORCA-job run
  C   1.07959086149808     -0.10682682205850      0.21530211690970
  C   -0.38024860797233     -0.08886636761290      0.68909389028132
  Br  1.64638578074184     -2.05454238889228      0.11632724898114
  H   -0.45568192774972     -0.74777494429212      1.55933704622863
  H   1.73285247177018      0.28167816194623      0.99558278770731
  N   1.26748024441272      0.61635164589039     -0.97449787182306
  H   0.79655384823881      0.20110007038137     -1.76688926177752
  H   2.24471857695381      0.74837888684225     -1.19602619023952
  C   -1.38274520845694     -0.53809411128117     -0.37631897666055
  H   -1.11783710050866     -1.52886509537135     -0.74818194934930
  H   -1.41364075767885      0.17066283933105     -1.20540946611656
  H   -2.38416804916504     -0.58734180178773      0.05353074056930
  C   -0.68859474387610      1.27404732673778      1.13678414188903
  N   -0.94566538820780      2.36009260016697      1.50136574340009
