14
Coordinates from ORCA-job run
  C   0.97576638114766     -0.37171041712289     -0.19503542877490
  C   -0.38074248962149      0.12333581041011      0.34825871330021
  Br  0.77862066612980     -0.90404796953350     -2.06833301191191
  H   -0.18728071969986      0.35865022733652      1.40466262410783
  H   1.23816236751014     -1.28793699387281      0.33992155716048
  N   2.07059028805985      0.54911252335636     -0.09874913566839
  H   1.84881226113327      1.43176601057559     -0.54489144589507
  H   2.31524493827397      0.71091009544436      0.87111461251152
  C   -1.51133877930482     -0.90363689581272      0.27724860542713
  H   -1.80225261800995     -1.09018779375521     -0.75552317702531
  H   -1.18326911627234     -1.84614663149901      0.72278877756175
  H   -2.38295818338362     -0.54579270688280      0.82812298280870
  C   -0.74961428007421      1.38268807753894     -0.30033974296513
  N   -1.02974071588843      2.39399666381705     -0.82724593063692
