14
Coordinates from ORCA-job run
  C   1.09847608043735      0.03604319438350      0.14448901472974
  C   -0.38423350290013     -0.19936209814406      0.50314857616236
  Br  2.19816800575968     -0.68553603423190      1.60222162966443
  H   -0.52090425561163     -1.27519177016503      0.66700519168574
  H   1.30197985894978      1.10935128048039      0.13260415874346
  N   1.54134850642501     -0.52869097560562     -1.09221733061034
  H   1.26385267965458     -1.49655628546243     -1.19364109070913
  H   1.22795624069941      0.01451296219011     -1.88517925106775
  C   -1.30896305388247      0.27497447610640     -0.62447624664819
  H   -2.35389079552974      0.15532864813912     -0.33455754527559
  H   -1.13819121750696     -0.30767203724166     -1.53026781330670
  H   -1.13755311055672      1.33201213050882     -0.84370401328359
  C   -0.73419359356285      0.49090034046424      1.74563801587329
  N   -1.05385184237529      1.07988616857809      2.70993670404227
