14
Coordinates from ORCA-job run
  C   1.01819024494444      0.16216186883294      0.04692523687842
  C   -0.37609214434043     -0.16904283709049      0.59076292244383
  Br  2.34376301016431     -0.11544041551132      1.44777490049428
  H   -0.33144344472887     -1.18399682210361      0.99892808940684
  H   1.07749687582694      1.23383841494629     -0.18180810644074
  N   1.33009562358223     -0.71893948789665     -1.06344891310401
  H   0.89307808643996     -0.35610182291640     -1.90434313817489
  H   2.32995261782577     -0.72999147287992     -1.22357322618573
  C   -1.43354456149630     -0.11045109001154     -0.51865055287479
  H   -1.43656499035487      0.86948131931654     -1.00393837661777
  H   -2.42724143023204     -0.28133311401538     -0.10211424219593
  H   -1.23633143295317     -0.88545844122617     -1.25940003657953
  C   -0.73116208767562      0.75577621833560      1.66888447353623
  N   -1.01819636700235      1.52849768222012      2.50500096941380
