14
Coordinates from ORCA-job run
  C   1.09785087999857      0.11277699654733      0.06353787945743
  C   -0.34000186704459     -0.18010403574962      0.54490417939566
  Br  2.33764850244188     -0.42587767083435      1.48640994827408
  H   -0.39467058582113     -1.24339045912585      0.80818535061149
  H   1.22939378820257      1.19209335720760     -0.04318242723128
  N   1.49181874261475     -0.52055357079907     -1.15650150377357
  H   1.27726667092947     -1.50949133009569     -1.16259154290957
  H   1.08554888428513     -0.06492354046047     -1.96241433698848
  C   -1.36632356574080      0.13616414496478     -0.54939705893791
  H   -1.27863485212146      1.17708434480368     -0.87132288931198
  H   -2.37980010391716     -0.01743177455706     -0.17579192352533
  H   -1.21940981138963     -0.51518677795308     -1.41153377449385
  C   -0.64705663904698      0.59657010196479      1.74683640000069
  N   -0.89263004339065      1.26327021408701      2.68186169943261
