14
Coordinates from ORCA-job run
  C   1.07493191844634     -0.10075759042920      0.23966982868637
  C   -0.39450964156396     -0.07497260249040      0.68250530084081
  Br  1.64543719227216     -2.04940011126804      0.19297926596240
  H   -0.48698021699653     -0.71619917222453      1.56424842414804
  H   1.71136539178472      0.30434229906663      1.02541877028508
  N   1.28724039429664      0.59793283336869     -0.96047834902846
  H   0.83256646504421      0.16680793946220     -1.75383456515832
  H   2.26864951335412      0.72665712452287     -1.16443930332589
  C   -1.37408732993132     -0.54769894730404     -0.39404950601187
  H   -1.10103342845910     -1.54613534040658     -0.73853129393494
  H   -1.38753810544759      0.14310066162813     -1.23867410901337
  H   -2.38440103710821     -0.58821733239564      0.01544252942899
  C   -0.71367626777708      1.29625175667828      1.09560824676243
  N   -0.97796484791439      2.38928848179161      1.43313476035873
