14
Coordinates from ORCA-job run
  C   1.09784155471872      0.13061959214958      0.05380301686795
  C   -0.32909533516757     -0.19591444718188      0.54574941741815
  Br  2.36190672427937     -0.40775136879908      1.45534911725405
  H   -0.36199757440963     -1.26469292803502      0.78937181169835
  H   1.20884149639581      1.21368570764090     -0.03696922193691
  N   1.49011788382502     -0.47611949546165     -1.18029107790505
  H   1.29192906010163     -1.46831611883722     -1.20017582697563
  H   1.06696127717056     -0.01478123326134     -1.97422129503495
  C   -1.37315673648882      0.12244846625229     -0.53119980221157
  H   -1.22544666463541     -0.51084833672943     -1.40655289897793
  H   -2.37957005877005     -0.05453570474451     -0.14899457948811
  H   -1.30622416671889      1.17031994636911     -0.83503600348788
  C   -0.63713215930238      0.55432342163663      1.76430506405672
  N   -0.90497530099836      1.20156249900160      2.70686227872281
