17

C	0.0	0.0	0.0
C	-0.486933	0.026998	-1.459268
Cl	1.798059	0.0	0.0
H	-1.570245	0.14946	-1.305919
C	-0.332943	1.300995	0.636076
N	-0.546405	2.290924	1.232148
N	-0.577806	-1.113877	0.678662
H	-1.613115	-0.88047	0.530904
H	-0.376712	-1.027158	1.670435
C	-0.207521	-1.292424	-2.16715
H	-0.651281	-2.124283	-1.621073
H	-0.638408	-1.255241	-3.17331
H	0.869354	-1.471966	-2.259989
N	0.055718	1.20217	-2.133298
H	-0.582258	1.483497	-2.866289
H	0.947595	0.979398	-2.561016
F	-2.818261	0.0	0.0
