17

C	0.0	0.0	0.0
C	-0.503768	0.027467	-1.46061
Cl	1.785746	0.0	0.0
H	-1.576744	-0.155305	-1.319547
C	-0.359483	1.272801	0.672045
N	-0.591863	2.282355	1.227764
N	-0.566127	-1.148888	0.64113
H	-0.331238	-1.119411	1.628688
H	-1.599103	-0.920309	0.532185
C	0.142173	-1.061509	-2.296301
H	1.15931	-0.783499	-2.584861
H	-0.447679	-1.220528	-3.205864
H	0.168961	-1.994995	-1.733193
N	-0.239603	1.346347	-2.05005
H	-0.386958	1.270094	-3.050977
H	-0.956963	1.978173	-1.705142
F	-2.819316	0.0	0.0
