17

C	0.0	0.0	0.0
C	-0.468423	0.381281	-1.41162
Cl	1.855281	0.0	0.0
H	-1.551189	0.480942	-1.239704
C	-0.295018	1.115125	0.932242
N	-0.488369	1.960157	1.725836
N	-0.576063	-1.236965	0.384564
H	-1.614047	-0.974074	0.272099
H	-0.395414	-1.395806	1.36968
C	-0.205329	-0.741452	-2.407761
H	0.868948	-0.924758	-2.520074
H	-0.682164	-1.665709	-2.081791
H	-0.611778	-0.45544	-3.383536
N	0.089333	1.675216	-1.789425
H	0.993699	1.548853	-2.230272
H	-0.528873	2.115238	-2.459659
F	-2.805867	0.0	0.0
