17

C	0.0	0.0	0.0
C	-0.287007	-0.057554	-1.560354
Cl	1.797629	0.0	0.0
H	0.55217	-0.645809	-1.946472
C	-0.386197	1.297609	0.594496
N	-0.603508	2.342176	1.088519
N	-0.55627	-1.124137	0.685413
H	-0.36045	-1.013959	1.676102
H	-1.580092	-0.952265	0.545453
C	-0.188731	1.355532	-2.151951
H	-1.067923	1.931559	-1.853749
H	0.713259	1.892164	-1.84599
H	-0.178287	1.279583	-3.242785
N	-1.499693	-0.759566	-1.947076
H	-1.73441	-0.451462	-2.885138
H	-2.265546	-0.468247	-1.301626
F	-2.910461	0.0	0.0
