14

C	-0.518117	0.001842	-1.433013
C	0.0	0.0	0.0
Br	-0.025169	1.624265	-2.43289
H	1.100276	0.0	0.0
H	-0.019142	-0.81585	-1.951153
C	-1.967105	-0.160005	-1.524906
N	-3.130267	-0.313237	-1.591713
N	-0.419695	-1.284015	0.546599
H	0.334654	-1.626898	1.128848
H	-1.254963	-1.151725	1.106797
N	-0.592187	1.108482	0.767779
H	-0.380458	1.971667	0.274274
H	-0.03568	1.157655	1.617949
F	2.660526	0.0	0.0
