14

C	-0.371757	0.000982	-1.46122
C	0.0	0.0	0.0
Br	-2.321441	0.246779	-1.808588
H	1.103156	0.0	0.0
H	0.101752	0.866977	-1.920562
C	0.027641	-1.217575	-2.1523
N	0.352864	-2.204232	-2.700178
N	-0.562946	-1.174484	0.693225
H	-0.189707	-2.003926	0.238078
H	-0.119905	-1.16738	1.608627
N	-0.434593	1.238364	0.604129
H	0.230895	1.476165	1.331576
H	-1.354399	1.105067	1.015426
F	2.634485	0.0	0.0
