14

C	-0.560897	0.142616	-1.407178
C	0.0	0.0	0.0
Br	-0.073773	1.83831	-2.283568
H	1.105679	0.0	0.0
H	-0.103344	-0.633938	-2.017649
C	-2.016766	0.015328	-1.460655
N	-3.18656	-0.092447	-1.504604
N	-0.411732	-1.337659	0.426047
H	0.384067	-1.752937	0.898861
H	-1.177138	-1.239278	1.08443
N	-0.553494	1.024951	0.901039
H	0.161232	1.160501	1.607834
H	-0.591326	1.90877	0.402206
F	2.655061	0.0	0.0
