14

C	-0.652616	-0.00446	-1.381473
C	0.0	0.0	0.0
Br	-0.122211	-1.551669	-2.461858
H	1.093724	0.0	0.0
H	-1.740279	-0.0967	-1.282002
C	-0.363555	1.201786	-2.150709
N	-0.135634	2.151914	-2.801955
N	-0.407916	-1.201968	0.716673
H	-1.201753	-1.025174	1.323721
H	0.3806	-1.484454	1.286793
N	-0.387083	1.279429	0.609201
H	-1.133814	1.16163	1.284427
H	0.433059	1.629759	1.090884
F	2.627103	0.0	0.0
