14

C	-0.64464	0.033825	-1.386483
C	0.0	0.0	0.0
Br	0.084793	-1.353882	-2.548764
H	1.099012	0.0	0.0
H	-1.708569	-0.197289	-1.288239
C	-0.506529	1.317744	-2.064833
N	-0.397205	2.357618	-2.601263
N	-0.44835	-1.209304	0.666537
H	0.331425	-1.564722	1.203263
H	-1.219732	-0.990585	1.28774
N	-0.523921	1.190904	0.722562
H	-0.086432	2.007429	0.298964
H	-0.082589	1.129433	1.637878
F	2.653958	0.0	0.0
