14

C	-0.412381	0.011551	-1.477904
C	0.0	0.0	0.0
Br	0.131357	1.650423	-2.397197
H	1.094562	0.0	0.0
H	0.123131	-0.789712	-1.990828
C	-1.850863	-0.155833	-1.663861
N	-3.003778	-0.372797	-1.74979
N	-0.388515	-1.277323	0.603104
H	-1.181574	-1.716983	0.146923
H	0.415087	-1.892787	0.551214
N	-0.568284	1.143493	0.695609
H	-1.224794	0.795015	1.383605
H	0.191713	1.58552	1.198933
F	2.639597	0.0	0.0
