14

C	-0.550545	0.028334	-1.429064
C	0.0	0.0	0.0
Br	0.02258	-1.526676	-2.486572
H	1.100599	0.0	0.0
H	-1.642351	-0.054812	-1.395178
C	-0.177505	1.237725	-2.153149
N	0.065506	2.234979	-2.725233
N	-0.594588	-1.172378	0.665318
H	-0.551477	-0.938512	1.65189
H	0.062168	-1.936715	0.532385
N	-0.425893	1.199295	0.706261
H	-1.314771	1.565197	0.379902
H	0.292447	1.901402	0.583906
F	2.650402	0.0	0.0
