14

C	-0.582601	0.000688	-1.416546
C	0.0	0.0	0.0
Br	-0.056693	-1.585228	-2.453953
H	1.100031	0.0	0.0
H	-1.67595	-0.035636	-1.359161
C	-0.210509	1.184195	-2.18228
N	0.057733	2.141945	-2.808415
N	-0.442143	-1.152562	0.770708
H	0.344201	-1.78929	0.818125
H	-1.216008	-1.641299	0.339737
N	-0.540205	1.241626	0.593322
H	0.247592	1.878432	0.675757
H	-0.814641	0.991641	1.538322
F	2.644674	0.0	0.0
