14

C	-0.565052	-0.0093	-1.422663
C	0.0	0.0	0.0
Br	0.102132	-1.520049	-2.473593
H	1.094209	0.0	0.0
H	-1.649143	-0.162958	-1.383518
C	-0.28757	1.218548	-2.161454
N	-0.099762	2.225902	-2.737147
N	-0.510725	-1.193425	0.681695
H	-1.055653	-0.861439	1.468226
H	0.301067	-1.664752	1.06329
N	-0.426544	1.22809	0.685916
H	-1.10197	1.767351	0.15838
H	0.403372	1.80098	0.790598
F	2.638622	0.0	0.0
