17

C	-0.466035	0.002213	-1.482872
C	0.0	0.0	0.0
Br	0.413806	1.428758	-2.518729
H	1.116056	0.0	0.0
N	-0.044851	-1.259636	-2.162046
O	-0.358077	-1.311766	-3.438409
O	1.237224	-1.529038	-1.882554
N	-1.938121	0.260118	-1.632872
O	-2.407713	0.024531	-2.840192
O	-2.289322	1.394289	-1.094442
N	-0.484006	-1.203397	0.717659
O	-1.743549	-1.103756	1.050685
O	0.355466	-1.571794	1.680159
N	-0.361509	1.204804	0.793379
O	0.188945	2.285473	0.274978
O	-0.155691	1.020575	2.081578
H	2.481971	0.0	0.0
