17

C	-0.453424	0.004317	-1.445738
C	0.0	0.0	0.0
Br	0.423162	-1.432347	-2.511042
H	1.115896	0.0	0.0
N	-1.923255	-0.376747	-1.731385
O	-2.303014	-1.332222	-1.064149
O	-2.430328	0.001041	-2.779105
N	0.029602	1.210048	-2.227925
O	-0.364976	1.348149	-3.394153
O	1.191122	1.557747	-1.826284
N	-0.239415	-1.220098	0.828876
O	-0.201072	-1.02529	2.055732
O	0.149009	-2.262106	0.277928
N	-0.505169	1.125361	0.830041
O	0.33726	1.595661	1.626278
O	-1.727722	1.140562	1.003225
H	2.456421	0.0	0.0
