17

C	-0.439976	0.029154	-1.437527
C	0.0	0.0	0.0
Br	0.175791	1.557202	-2.406084
H	1.090636	0.0	0.0
N	0.099638	-1.24079	-2.159528
O	0.301163	-2.219072	-1.447522
O	0.242955	-1.179511	-3.371819
N	-1.975043	-0.016137	-1.621903
O	-2.583073	0.857716	-1.030846
O	-2.436916	-0.889124	-2.338333
N	-0.525462	-1.189509	0.721968
O	0.207122	-1.670856	1.578335
O	-1.658721	-1.583743	0.43155
N	-0.359758	1.162189	0.814773
O	0.080633	2.252512	0.440272
O	-0.948409	0.958399	1.887745
H	2.387396	0.0	0.0
