17

C	0.0	0.0	0.0
C	-0.320948	0.113432	-1.530725
F	1.428923	0.0	0.0
H	-0.380328	-0.876933	-1.966553
N	-0.425787	1.067575	0.826139
H	-0.168251	1.950468	0.40005
H	-1.453792	0.96356	0.786756
N	-0.473287	-1.273659	0.414793
H	-1.50299	-1.131204	0.311985
H	-0.285599	-1.315018	1.41225
N	0.792117	0.825585	-2.237929
O	1.068404	1.963961	-1.872601
O	1.350481	0.212592	-3.149392
N	-1.559099	0.84545	-1.971435
O	-1.691049	2.012687	-1.630116
O	-2.263023	0.240539	-2.774486
F	-2.69666	0.0	0.0
