17

C	0.0	0.0	0.0
C	-0.525584	-0.040434	-1.439681
F	1.394481	0.0	0.0
H	-1.625276	-0.022698	-1.347304
N	-0.476256	1.237848	0.549016
H	-1.499636	1.077252	0.564844
H	-0.131591	1.310064	1.501925
N	-0.446047	-1.227035	0.602858
H	-1.473338	-1.115832	0.575393
H	-0.147459	-1.212882	1.573644
N	-0.097674	-1.283408	-2.145763
O	-0.926365	-2.180834	-2.254368
O	1.057094	-1.315897	-2.570303
N	-0.075833	1.078016	-2.322906
O	0.901053	1.754265	-2.028841
O	-0.746382	1.204304	-3.352002
F	-2.801737	0.0	0.0
