17

C	0.0	0.0	0.0
C	-0.199862	-0.075173	-1.556007
F	1.408183	0.0	0.0
H	0.128791	0.870644	-1.972998
N	-0.501352	1.269998	0.39292
H	-1.531633	1.105527	0.291978
H	-0.315009	1.34191	1.389617
N	-0.473554	-1.069205	0.79433
H	-0.195301	-1.948737	0.379504
H	-1.501182	-0.950992	0.697653
N	-1.561633	-0.335199	-2.131238
O	-2.126474	0.642926	-2.60216
O	-1.930566	-1.499872	-2.2126
N	0.692851	-1.114198	-2.164704
O	0.758912	-2.224632	-1.647927
O	1.297932	-0.772962	-3.183409
F	-2.741201	0.0	0.0
