17

C	0.0	0.0	0.0
C	-0.345177	0.157801	-1.523588
F	1.428617	0.0	0.0
H	-0.473043	-0.817605	-1.976196
N	-0.414605	1.043967	0.864335
H	-0.148842	1.937137	0.465014
H	-1.443233	0.952146	0.826958
N	-0.469613	-1.287532	0.376496
H	-0.271285	-1.371108	1.367763
H	-1.498475	-1.140983	0.281268
N	0.791848	0.820638	-2.238389
O	1.349037	0.165175	-3.119384
O	1.092146	1.96075	-1.897242
N	-1.551713	0.963232	-1.921946
O	-1.646258	2.111798	-1.511451
O	-2.273681	0.433654	-2.761878
F	-2.689839	0.0	0.0
