17

C	0.0	0.0	0.0
C	-0.543395	-0.089588	-1.444934
F	1.367909	0.0	0.0
H	-1.636415	-0.232047	-1.307433
N	-0.447369	1.220308	0.618134
H	-0.111263	2.032517	0.113125
H	-1.47458	1.150348	0.564034
N	-0.490078	-1.136891	0.708525
H	-0.258952	-0.94738	1.678375
H	-1.51533	-1.028564	0.621303
N	0.039694	-1.148377	-2.331184
O	0.274124	-0.837324	-3.501119
O	0.184256	-2.264522	-1.854321
N	-0.343421	1.202135	-2.166759
O	-1.334339	1.723205	-2.67326
O	0.795388	1.664057	-2.19857
F	-2.8094	0.0	0.0
