17

C	0.0	0.0	0.0
C	-0.545095	0.113773	-1.443173
F	1.375138	0.0	0.0
H	-1.636182	0.25939	-1.301004
N	-0.48652	1.122775	0.732551
H	-1.511687	1.016601	0.648012
H	-0.24816	0.919877	1.699306
N	-0.445277	-1.231591	0.596526
H	-1.471499	-1.16209	0.541751
H	-0.105946	-2.035823	0.082782
N	-0.351633	-1.165406	-2.188777
O	0.782194	-1.642366	-2.215185
O	-1.342074	-1.662002	-2.719183
N	0.043157	1.179907	-2.313535
O	0.270154	0.882641	-3.488186
O	0.198776	2.289619	-1.825457
F	-2.807374	0.0	0.0
