13
Coordinates from ORCA-job run
  C   -0.31685672489101      0.42132919927139      0.22692837699376
  C   1.05105972902702     -0.27133658316015      0.38652434417466
  Br  -0.37914947671956      1.70364248517652      1.82262241177146
  H   1.86421926908966      0.45228597559482      0.28035043585587
  H   1.12610810450773     -0.70045681395878      1.38754227286091
  N   -1.47502990834957     -0.40605366934654      0.36445616823285
  H   -1.48696245563428     -1.09249847209823     -0.38281965900794
  H   -1.50992793506122     -0.86258921336548      1.26588867703848
  N   -0.39353760872072      1.06245488204229     -1.01772201270392
  H   -1.29347473933953      1.50756747964156     -1.14114256828225
  H   0.35891396878680      1.71596052882949     -1.18417669076956
  C   1.18962847755998     -1.33272502085745     -0.61060266205021
  N   1.26700929974469     -2.19858077776942     -1.39884909411412
