13
Coordinates from ORCA-job run
  C   -0.14062093803476      0.38472336067844      0.23777395804886
  C   0.99150099849390     -0.36581645565481     -0.46964793654610
  Br  0.54221728693270      1.12663295608908      1.91888935999133
  H   1.81200993907428      0.33064167329157     -0.64800055562488
  H   0.62383299015294     -0.69411176755787     -1.45098466032073
  N   -1.17471085497385     -0.55445176825783      0.59616350574545
  H   -1.55306700265060     -0.98952352646401     -0.23949265081838
  H   -1.92440817729423     -0.09788783531483      1.10156183133796
  N   -0.47596564762616      1.52758379018515     -0.59507207699040
  H   -0.94904387142875      1.19462329953668     -1.43064270486440
  H   -1.10720328774829      2.14857156877362     -0.10172269696779
  C   1.46893098948181     -1.53300043958654      0.26422466385100
  N   1.88552757562101     -2.47998485571865      0.81694996315807
