11
Coordinates from ORCA-job run
  C   -0.53026561836697      0.30508969300352      0.06074558606237
  C   0.82362654383854     -0.39668965881833     -0.00744672458793
  Br  -0.92041358200335      0.79836958746582      1.90589146185689
  H   0.97646414137412     -0.76622765323869     -1.02831864929130
  H   -0.48775363879902      1.26302063929941     -0.46958715929336
  H   0.80436005218556     -1.26180618276151      0.65890725769304
  N   -1.54826320287528     -0.61473876369614     -0.39300361255081
  H   -1.41235151353730     -0.80483064442233     -1.38070760354285
  H   -2.46857040440127     -0.20919532965161     -0.27455111735309
  C   1.93571233480218      0.48474680112449      0.33611062345309
  N   2.82745488778279      1.20226151169537      0.59295993755395
