11
Coordinates from ORCA-job run
  C   -0.53173126186479      0.30842574591978     -0.04959034019596
  C   0.86164190240416     -0.31221391098754     -0.09352344525322
  Br  -1.01016531995358      0.60968191795603      1.87964366184743
  H   0.86383334701491     -1.25884337189921      0.45482116738147
  H   -0.52200414631975      1.31514111416290     -0.46503474725331
  H   1.09157809202178     -0.52775150162663     -1.14138672092330
  N   -1.44976561900779     -0.49947506681425     -0.75963024310897
  H   -1.55048722274276     -1.41415955781190     -0.33702726057631
  H   -2.36198825312887     -0.06702392814836     -0.81998054929484
  C   1.89233035303009      0.56345027107737      0.45543208176903
  N   2.71775812854661      1.28276828817182      0.87627639560798
