11
Coordinates from ORCA-job run
  C   -0.59987310491763      0.55598611628076      0.04584549189218
  C   0.80172008648449      0.17131341433417      0.55270786463386
  Br  -1.53523081581616      1.38326543474213      1.55818788703219
  H   0.70992983500642     -0.54197167694690      1.37697322686045
  H   -0.51467490538476      1.34100986057607     -0.70692343404255
  H   1.33491476963047      1.04779003615229      0.92929595559719
  N   -1.39554375045309     -0.50428279247215     -0.48794023523491
  H   -1.05999208232007     -0.78235799276265     -1.40184789878808
  H   -1.41648381783128     -1.30708952690008      0.12807140721614
  C   1.55853700937889     -0.43946133362417     -0.53952604458330
  N   2.11469677622272     -0.92220153937946     -1.45384422058317
