11
Coordinates from ORCA-job run
  C   -0.60085744266795      0.48608907488938     -0.00546720847271
  C   0.88548304358592      0.36906901766865     -0.32569468211256
  Br  -0.83503049680515      1.21421426087207      1.79260726500111
  H   0.99414439991579      0.05445689128676     -1.37090368001196
  H   -1.03562458093958      1.25371836688461     -0.65693275639957
  H   1.36421338687777      1.34611466747902     -0.22915130945223
  N   -1.22428416491211     -0.80843339902185     -0.06289986011596
  H   -1.08210180409802     -1.22392715408162     -0.97704255314508
  H   -2.21820196146103     -0.74191545150276      0.11586141253623
  C   1.57916159262597     -0.59344584673594      0.52812320869524
  N   2.17409802787839     -1.35594042773832      1.19150016347749
