11
Coordinates from ORCA-job run
  C   -0.59387246989909      0.42320293056757     -0.18190798955830
  C   0.90890207316987      0.48907642463129      0.08715948141042
  Br  -1.38532500452092      2.12093999912742      0.38028055074910
  H   1.06598302673834      0.62080220389934      1.16034727473476
  H   -0.77901938838223      0.39094687700032     -1.26158486042581
  H   1.35337375788894      1.33682163748247     -0.43803431644962
  N   -1.18523083988966     -0.63992698945181      0.58658103666056
  H   -0.76235993544609     -1.52613943501684      0.32854758218309
  H   -2.18045014415305     -0.69708859626936      0.40959555482091
  C   1.54856191485141     -0.75067280862030     -0.35332574507978
  N   2.00843700964247     -1.76696224335011     -0.71865856904535
