11
Coordinates from ORCA-job run
  C   -0.60886119769531      0.47528378221507     -0.02124887812822
  C   0.88392333750458      0.37925285843158     -0.31845208990567
  Br  -0.88084678139600      1.22184885780244      1.76443451010446
  H   1.01229029229202      0.04962795454891     -1.35683869036764
  H   -1.04690379298711      1.22805503958316     -0.68759694569612
  H   1.34400130471969      1.36619697616290     -0.23187382718016
  N   -1.20953508020074     -0.83003960665054     -0.07101240283564
  H   -2.20655707867133     -0.77909831852624      0.09499294644857
  H   -1.04868792388521     -1.25432850319012     -0.97799736938917
  C   1.58121329445636     -0.55783748080544      0.55977767340976
  N   2.17896362586305     -1.29896155957171      1.24481507353983
