11
Coordinates from ORCA-job run
  C   -0.59376127152122      0.36600864484238      0.08741061459306
  C   0.77853277084706     -0.31068053320330     -0.06244862367917
  Br  -0.96276945500330      0.57999801674191      1.99717746818290
  H   0.76594538642293     -1.27574504155658      0.45245562077435
  H   -0.55500111043342      1.37853203227124     -0.31728174204886
  H   0.94765637690599     -0.50208828773663     -1.12802448497375
  N   -1.68442766987743     -0.33338477521817     -0.52621576380119
  H   -1.63739692032168     -0.26093456305271     -1.53504727369788
  H   -1.70518945589303     -1.30763053272226     -0.25202166480820
  C   1.88168237855909      0.49857204155190      0.44827826321970
  N   2.76372897031501      1.16835299808222      0.83571758623904
