11
Coordinates from ORCA-job run
  C   -0.57855233307151      0.49117028755746     -0.22292903529060
  C   0.94172784541585      0.39264493850749     -0.30694836598226
  Br  -1.03118247453831      1.37565509434501      1.53668680058627
  H   1.20071983273872      0.08161988961529     -1.32403885824326
  H   -0.94097986811658      1.21288079313238     -0.95384217153023
  H   1.39926108830874      1.36326086964320     -0.10913913617889
  N   -1.18921308670451     -0.76034219771973     -0.43015537962720
  H   -0.91869987703021     -1.44095295977288      0.26987500610866
  H   -2.19747554561476     -0.69463885271681     -0.46155674516944
  C   1.46539102268834     -0.59775814141259      0.63099519289801
  N   1.85100339592423     -1.42253972117883      1.37105269242894
