12

C	-0.484938	0.070881	-1.422402
C	0.0	0.0	0.0
F	-1.882709	0.208313	-1.477726
H	1.093264	0.0	0.0
H	-0.056678	0.953494	-1.902398
H	-0.358048	-0.929948	0.463232
C	-0.15569	-1.131218	-2.205695
N	0.049971	-2.081676	-2.861089
N	-0.420452	1.219858	0.690785
H	-1.263033	1.064574	1.226663
H	0.327091	1.476662	1.3252
H	2.927481	0.0	0.0
