12

C	-0.479207	0.131132	-1.428807
C	0.0	0.0	0.0
F	-0.140668	1.37119	-1.94997
H	1.092911	0.0	0.0
H	0.002424	-0.629719	-2.053527
H	-0.32732	-0.980045	0.368501
C	-1.945886	-0.012439	-1.539664
N	-3.108069	-0.157225	-1.613924
N	-0.553825	1.091197	0.809634
H	0.218926	1.709226	1.033895
H	-0.891969	0.723102	1.688581
H	2.973419	0.0	0.0
