12

C	-0.496946	0.032813	-1.418522
C	0.0	0.0	0.0
F	-1.901892	0.039289	-1.468648
H	1.096359	0.0	0.0
H	-0.156298	0.953875	-1.895488
H	-0.347476	-0.924031	0.480565
C	-0.054974	-1.128617	-2.212227
N	0.231499	-2.054618	-2.873185
N	-0.431241	1.22431	0.680118
H	-1.192133	1.036411	1.31781
H	0.361811	1.553946	1.220009
H	2.920314	0.0	0.0
