12

C	-0.499888	0.045015	-1.43292
C	0.0	0.0	0.0
F	-0.045308	-1.053505	-2.152861
H	1.093286	0.0	0.0
H	-1.597272	-0.010251	-1.466052
H	-0.356158	0.903921	0.509559
C	-0.110084	1.278072	-2.141103
N	0.108889	2.27946	-2.712298
N	-0.438259	-1.203875	0.702157
H	0.270588	-1.911963	0.551704
H	-1.313113	-1.557691	0.331314
H	2.954239	0.0	0.0
