12

C	-0.484773	0.056974	-1.423412
C	0.0	0.0	0.0
F	-1.882428	0.199036	-1.480342
H	1.093275	0.0	0.0
H	-0.05248	0.933944	-1.912037
H	-0.359319	-0.925024	0.472205
C	-0.156013	-1.154729	-2.192901
N	0.054597	-2.114317	-2.833871
N	-0.421214	1.226296	0.677695
H	0.327994	1.491903	1.306409
H	-1.26145	1.07547	1.218069
H	2.927023	0.0	0.0
