12

C	-0.585827	0.016134	-1.397806
C	0.0	0.0	0.0
F	-0.265209	-1.140619	-2.098866
H	1.097956	0.0	0.0
H	-1.67829	0.067256	-1.335247
H	-0.359613	-0.913007	0.48585
C	-0.146634	1.182633	-2.186772
N	0.158781	2.099153	-2.852736
N	-0.507206	1.207838	0.681009
H	0.290737	1.827624	0.781799
H	-0.790856	0.966695	1.621486
H	2.964185	0.0	0.0
