12

C	-0.51102	0.061919	-1.429978
C	0.0	0.0	0.0
F	-0.161066	-1.075131	-2.144797
H	1.092506	0.0	0.0
H	-1.609219	0.107633	-1.445044
H	-0.370466	-0.933982	0.436903
C	-0.028658	1.254912	-2.153137
N	0.301677	2.21285	-2.744063
N	-0.431668	1.15799	0.778196
H	0.292049	1.864103	0.713566
H	-1.303228	1.558092	0.44712
H	2.94688	0.0	0.0
