12

C	-0.50491	-0.000426	-1.43088
C	0.0	0.0	0.0
F	-0.040566	-1.11127	-2.125865
H	1.093239	0.0	0.0
H	-1.602171	-0.070521	-1.455276
H	-0.358575	0.917982	0.482078
C	-0.134107	1.216154	-2.176194
N	0.118963	2.186748	-2.784491
N	-0.435873	-1.185473	0.736966
H	-1.268014	-1.593915	0.330043
H	0.3074	-1.868556	0.664065
H	2.949465	0.0	0.0
