12

C	-0.407756	0.045199	-1.45294
C	0.0	0.0	0.0
F	-1.791435	0.282177	-1.592742
H	1.093805	0.0	0.0
H	0.113514	0.858976	-1.965918
H	-0.341831	0.938047	0.45299
C	-0.13594	-1.220655	-2.154708
N	0.046969	-2.223611	-2.735407
N	-0.500908	-1.145517	0.745047
H	0.156725	-1.908198	0.641372
H	-1.404413	-1.44464	0.40035
H	2.942042	0.0	0.0
