16

C	-0.566034	0.017523	-1.417514
C	0.0	0.0	0.0
Br	-0.02536	1.683989	-2.272921
H	1.094244	0.0	0.0
N	0.122496	-1.078932	-2.311991
O	-0.635835	-1.687404	-3.063427
O	1.327479	-1.211967	-2.23727
N	-1.975613	-0.088439	-1.471334
H	-2.282655	-0.045756	-2.435657
H	-2.225615	-1.00528	-1.111607
N	-0.378187	-1.252572	0.687378
O	-0.626292	-2.235035	-0.023976
O	-0.351509	-1.270305	1.913817
C	-0.483909	1.128439	0.765151
N	-0.848657	2.05161	1.395309
F	2.419964	0.0	0.0
