16

C	-0.394148	0.006449	-1.454298
C	0.0	0.0	0.0
Br	-2.432505	0.569853	-1.641794
H	1.088298	0.0	0.0
N	0.268964	1.195336	-2.167673
O	0.517885	2.187018	-1.504126
O	0.464858	1.058815	-3.369987
N	-0.093659	-1.123716	-2.163554
H	-0.508338	-1.948652	-1.759296
H	-0.231373	-1.007576	-3.156413
N	-0.397342	-1.226272	0.742161
O	-0.13563	-1.22642	1.938736
O	-0.908625	-2.180909	0.150404
C	-0.45247	1.133011	0.778065
N	-0.786225	2.025578	1.46761
F	2.404683	0.0	0.0
