16

C	-0.44975	-0.003289	-1.447846
C	0.0	0.0	0.0
Br	0.595436	-1.224864	-2.522783
H	1.091516	0.0	0.0
N	-1.962041	-0.437024	-1.545148
O	-2.67949	0.168527	-0.751639
O	-2.34982	-1.19256	-2.423437
N	-0.311449	1.296255	-1.995359
H	-0.520773	1.310162	-2.984709
H	-0.862989	1.974955	-1.483501
N	-0.429838	-1.186798	0.759732
O	-0.276611	-1.147517	1.977885
O	-0.856502	-2.158041	0.131063
C	-0.389592	1.197406	0.712339
N	-0.648313	2.214536	1.242541
F	2.414283	0.0	0.0
