16

C	-0.48649	0.007436	-1.44887
C	0.0	0.0	0.0
Br	-2.354383	0.506842	-1.734963
H	1.092958	0.0	0.0
N	0.281234	1.150044	-2.193998
O	0.688123	2.093443	-1.529329
O	0.4152	0.985489	-3.403158
N	-0.26449	-1.243197	-2.03961
H	-0.515105	-1.23907	-3.021155
H	0.698318	-1.542635	-1.908437
N	-0.442726	-1.3167	0.596894
O	0.377562	-2.226531	0.543147
O	-1.541977	-1.356052	1.152403
C	-0.504245	1.082553	0.81704
N	-0.876625	1.946318	1.522268
F	2.487429	0.0	0.0
