15

C	-0.375476	-0.038883	-1.499245
C	0.0	0.0	0.0
Cl	-2.162902	-0.220506	-1.693811
H	1.098532	0.0	0.0
C	-0.008821	1.233693	-2.12261
N	0.276055	2.259026	-2.621291
C	0.337335	-1.198599	-2.180513
H	0.122427	-1.193656	-3.249882
H	1.411228	-1.088985	-2.005058
H	-0.006934	-2.140573	-1.749864
C	-0.451606	-1.21581	0.672604
N	-0.803482	-2.200213	1.208233
C	-0.518711	1.184122	0.675024
N	-0.942162	2.137515	1.214797
Cl	3.147199	0.0	0.0
