15

C	-0.375717	-0.038699	-1.499054
C	0.0	0.0	0.0
Cl	-2.163611	-0.2173	-1.693657
H	1.098594	0.0	0.0
C	-0.007235	1.233433	-2.122856
N	0.273767	2.259507	-2.622635
C	0.335165	-1.1998	-2.180748
H	0.11987	-1.193887	-3.249756
H	1.409367	-1.092113	-2.005971
H	-0.010898	-2.141495	-1.750158
C	-0.45249	-1.215342	0.672889
N	-0.80674	-2.198183	1.209797
C	-0.518485	1.18446	0.674972
N	-0.943794	2.137421	1.21408
Cl	3.147555	0.0	0.0
