15

C	-0.497279	-0.015943	-1.471009
C	0.0	0.0	0.0
Cl	0.204762	1.404036	-2.304622
H	1.096506	0.0	0.0
C	-0.015446	-1.229134	-2.13578
N	0.270735	-2.218771	-2.70205
C	-2.017494	0.049393	-1.57656
H	-2.316209	0.044304	-2.625865
H	-2.375428	0.967715	-1.108296
H	-2.460582	-0.813991	-1.07407
C	-0.48263	-1.195482	0.690388
N	-0.882757	-2.164106	1.22218
C	-0.485551	1.195696	0.686083
N	-0.885991	2.155709	1.232392
Cl	3.132821	0.0	0.0
