15

C	-0.436334	0.008395	-1.486554
C	0.0	0.0	0.0
Cl	0.189569	-1.488726	-2.246082
H	1.097324	0.0	0.0
C	-1.897196	-0.013964	-1.603774
N	-3.068675	-0.001135	-1.700296
C	0.16251	1.217239	-2.19527
H	1.243681	1.201338	-2.039478
H	-0.066576	1.172052	-3.260945
H	-0.256493	2.135778	-1.777647
C	-0.490006	-1.178487	0.711665
N	-0.875234	-2.128043	1.286155
C	-0.47318	1.215959	0.660259
N	-0.846705	2.209232	1.165035
Cl	3.139772	0.0	0.0
