15

C	-0.497242	-0.013707	-1.47101
C	0.0	0.0	0.0
Cl	0.204364	1.407723	-2.302428
H	1.096579	0.0	0.0
C	-0.015286	-1.225728	-2.137821
N	0.270593	-2.213515	-2.707277
C	-2.017503	0.051438	-1.576247
H	-2.316367	0.047822	-2.62553
H	-2.37558	0.96899	-1.106554
H	-2.460314	-0.812815	-1.07495
C	-0.482496	-1.196581	0.688524
N	-0.8806	-2.166867	1.218804
C	-0.485524	1.194667	0.687893
N	-0.88577	2.153751	1.235968
Cl	3.132453	0.0	0.0
