15

C	-0.396234	0.031507	-1.500641
C	0.0	0.0	0.0
Cl	0.127713	-1.515548	-2.236799
H	1.097321	0.0	0.0
C	-1.848635	0.132211	-1.661789
N	-3.011317	0.245052	-1.793608
C	0.327045	1.181298	-2.192215
H	0.125053	1.155605	-3.263687
H	-0.017457	2.134772	-1.784036
H	1.39738	1.069031	-2.004738
C	-0.526675	-1.169967	0.695073
N	-0.957199	-2.107327	1.257111
C	-0.461143	1.224307	0.653964
N	-0.82004	2.221049	1.162461
Cl	3.16455	0.0	0.0
