15

C	-0.383575	-0.029441	-1.496721
C	0.0	0.0	0.0
Cl	-2.177777	-0.152641	-1.680439
H	1.098598	0.0	0.0
C	0.023015	1.229017	-2.125005
N	0.34339	2.242585	-2.626572
C	0.284988	-1.214541	-2.180279
H	-0.092319	-2.143236	-1.748569
H	0.06609	-1.20259	-3.24906
H	1.36344	-1.142972	-2.00949
C	-0.458235	-1.213946	0.670212
N	-0.811541	-2.197069	1.207252
C	-0.506129	1.186441	0.680646
N	-0.909189	2.143705	1.229084
Cl	3.145383	0.0	0.0
