15
Coordinates from ORCA-job run
  C   0.78048890558871      0.13127890182491      0.16990874594368
  C   -0.48377216517232     -0.08112231933438     -0.25630687483012
  N   1.90649846593901     -0.37713642559914     -0.52107807335791
  H   2.43464137763649     -1.06739775697151     -0.00143212289536
  H   1.64547612836232     -0.73281882908886     -1.43141618025028
  N   1.06012984573885      0.98006032645675      1.27478538199999
  H   1.03306126531854      0.49126082829733      2.15971906294578
  H   1.97444959740012      1.39456432113878      1.14817476699949
  N   -0.71644954090521     -1.02336789032629     -1.30647627567414
  H   -0.34064697780237     -1.93605875981295     -1.07977823374568
  H   -1.70331114883731     -1.11852447267677     -1.49855682178878
  C   -1.66636840201490      0.68537401053001      0.24400434942800
  H   -1.33759549328143      1.50950681349195      0.87507515186157
  H   -2.23728591739089      1.09364202935347     -0.59894083689333
  H   -2.34931594057962      0.04973922271670      0.82031796025708
