15
Coordinates from ORCA-job run
  C   0.68102449580521      0.12492997301364      0.19610088366070
  C   -0.58139229505646     -0.25669957495328     -0.10593136157936
  N   1.48129756946510     -0.78415461351245      0.97249935977248
  H   2.05318184235751     -0.27678578280748      1.63666089091034
  H   2.09997819466368     -1.33269463977718      0.38396204165928
  N   1.20224071749357      1.37706465255675     -0.25987741451093
  H   1.35293522209316      2.01504013938603      0.51385381233595
  H   2.09293857018436      1.24314874005046     -0.72543844902004
  N   -1.06199773083908     -1.51425134863722      0.27989887053763
  H   -2.04290688394968     -1.49895173743080      0.52211159046593
  H   -0.48983789521960     -1.89706054882643      1.02293692313661
  C   -1.51350559145387      0.55167103980938     -0.95102536757936
  H   -1.85788366059960     -0.04432660605254     -1.80141489943855
  H   -1.01639666963900      1.45012317326536     -1.30823510489340
  H   -2.40067588530529      0.84194713391577     -0.37610177545726
