15
Coordinates from ORCA-job run
  C   0.83160429664158      0.11307790520137      0.06273278804535
  C   -0.47204015946036     -0.24540181971363     -0.01619508632174
  N   1.81455114060942     -0.72373258481510      0.61225182318273
  H   2.35914345065020     -0.24985155479198      1.32261145530374
  H   1.35480491200547     -1.53867165559793      1.00259420229308
  N   1.32774444931159      1.29642072273449     -0.51392785651714
  H   0.91067550237985      2.14139735723465     -0.15792902092141
  H   2.33491903393611      1.33582437293543     -0.51009005745054
  N   -0.85729729448637     -1.44860507695244      0.67808135044257
  H   -1.61427336583597     -1.25587421014684      1.32571942378492
  H   -1.20708895174238     -2.13599388514408      0.01803640203033
  C   -1.49022089474736      0.53031708988207     -0.79792029895728
  H   -1.00876687409394      1.25427207232131     -1.45885760903863
  H   -2.19180343340263      1.07215169009618     -0.14966831756855
  H   -2.09195181176521     -0.14433042324349     -1.41843919830747
