15
Coordinates from ORCA-job run
  C   0.70975087393639      0.13639767530641      0.25839250436062
  C   -0.53622685000843     -0.26812792076513     -0.06621029722139
  N   1.58864342945427     -0.69473871572155      1.00481351309839
  H   1.68249154862566     -1.61871987160575      0.60253671335551
  H   2.51120254755345     -0.29666455107790      1.10326953510172
  N   1.25383782328160      1.37483116157636     -0.19578852718867
  H   0.58431118933989      2.12527153460519     -0.07863017460927
  H   2.07949307024372      1.62161055354703      0.33590644888870
  N   -1.14801538705149     -1.41098141127825      0.53075511856727
  H   -1.72057984944608     -1.89282258087284     -0.15276685284933
  H   -0.47744607703983     -2.06555115864947      0.90923057591494
  C   -1.44829743540495      0.58547623804348     -0.89213065658918
  H   -2.09660473366010     -0.03533917888175     -1.52105538210229
  H   -0.86990932414776      1.22977881725899     -1.55706195861014
  H   -2.11165082567635      1.20957940851521     -0.28226056011688
