15
Coordinates from ORCA-job run
  C   0.76219208934988     -0.00922345680486      0.13622885994223
  C   -0.55817845082944     -0.22989125257223     -0.06226022256505
  N   1.53311546219952     -0.99828313296855      0.82584760677652
  H   1.74005525477975     -0.70718798308447      1.77483042977656
  H   2.41279007401296     -1.12379587507920      0.33864334672778
  N   1.51243815779682      1.05184185143902     -0.43897281335675
  H   0.97972412836497      1.59394970000686     -1.10379228244716
  H   1.91676789243457      1.66662243818814      0.25836508971657
  N   -1.13301379623687     -1.49514766645629      0.18616131073882
  H   -1.97719417406382     -1.43067641540545      0.74047266278464
  H   -0.45070109289734     -2.08712648077004      0.64392446839552
  C   -1.48964058262617      0.75440372477507     -0.70296098929499
  H   -1.10664963142301      1.77511639230127     -0.66345806254162
  H   -2.45551051180107      0.75001350700968     -0.18679107366592
  H   -1.68719481906076      0.48838464942107     -1.74623833098716
