15
Coordinates from ORCA-job run
  C   0.77793142831635     -0.06576836069555      0.31344575107016
  C   -0.44672561781268     -0.12351827399461     -0.26192255144697
  N   1.05205946252791      0.74402447309257      1.43086299792616
  H   1.95380765375523      0.54885511209575      1.83672054283803
  H   0.90575935233635      1.72910727883752      1.27980641660569
  N   1.83749267226265     -0.89922499245662     -0.07557779182362
  H   2.67443358637319     -0.36993795849246     -0.28808459072724
  H   1.54058958333378     -1.43312305738627     -0.88466562188110
  N   -0.57049465525844     -0.94078443168156     -1.44318954450545
  H   -1.23038121004024     -1.69437605972108     -1.27826820930123
  H   -0.94072691234181     -0.39398380565479     -2.21362997112050
  C   -1.64600201777631      0.58959156631243      0.28834451548762
  H   -2.50762005637635     -0.08731444315067      0.33069731679884
  H   -1.94684673656406      1.44393227594422     -0.33248287746032
  H   -1.45427653273558      0.95352067695112      1.29994361753995
