15
Coordinates from ORCA-job run
  C   0.72260051288244      0.08364678716015      0.26490009343526
  C   -0.52017772932923     -0.28893328485423     -0.11988017070686
  N   1.41905487537045     -0.71609419580271      1.22573546918375
  H   1.42711684363305     -0.27174109875747      2.13708168797299
  H   2.37979317248163     -0.82700167743494      0.92315403242644
  N   1.49195390376679      1.11665436173180     -0.33546908524258
  H   1.72094359403835      1.86011628607746      0.31453675949524
  H   1.05391854369229      1.50533562027868     -1.15810154622157
  N   -1.04358230159830     -1.55394158446457      0.22558012859511
  H   -0.41805123805348     -2.00484978537999      0.88209738292907
  H   -1.97724403918285     -1.49010310081192      0.61071353224506
  C   -1.38218883004720      0.49828887780500     -1.06011130713242
  H   -1.08594060990351      1.54676408195877     -1.11609149777066
  H   -1.36262096744298      0.06886829584449     -2.06681781722773
  H   -2.42457573030743      0.47299041664949     -0.72532766198111
