15
Coordinates from ORCA-job run
  C   0.85429171828006      0.11948153206813      0.17010574215264
  C   -0.45231549471723     -0.20732862594528      0.01349643714903
  N   1.68528656231688     -0.52730983449685      1.09160285428005
  H   2.56432577382427     -0.78934043230928      0.66440458024571
  H   1.19501293886841     -1.33395287036971      1.45870833475054
  N   1.54498240355925      1.11755547953043     -0.53206492598708
  H   2.06692671642852      1.71408795658871      0.09608429262565
  H   0.96266166314873      1.65912585682723     -1.15049099696876
  N   -0.89812710798459     -1.39602793340464      0.69740410373649
  H   -1.30075668659481     -2.05354618219782      0.03757071390182
  H   -1.62487683879959     -1.16927161764254      1.36835944793347
  C   -1.43920659669158      0.56300319375159     -0.81670845143770
  H   -2.37415633624027      0.70127791147033     -0.26140259718500
  H   -1.08463115928414      1.56070538886338     -1.08916672553375
  H   -1.69741755611390      0.04054017726632     -1.74690280966312
