15
Coordinates from ORCA-job run
  C   0.75488206506897      0.08824102661747      0.17399616754654
  C   -0.52486168845299     -0.10458068873536     -0.22279156899986
  N   1.88781441593211     -0.53636007486611     -0.41880254699298
  H   1.71409134381370     -0.85207578549718     -1.36212853758137
  H   2.28025536853834     -1.28760303295943      0.13645767990438
  N   1.06827478372391      1.01101658895561      1.20464822492662
  H   0.84745456129517      0.66962306143316      2.12945743318420
  H   2.04268174279554      1.27066306415234      1.14751920430842
  N   -0.93294531340121     -1.20637072510536     -1.01843650177174
  H   -1.46184251007853     -0.92052395908231     -1.83283443343678
  H   -0.16355829177496     -1.79779235134831     -1.29660924782261
  C   -1.65456384338122      0.75431496051710      0.25332949117964
  H   -2.31236720321670      1.01914130321209     -0.58317803562592
  H   -1.27290482774293      1.66876823789774      0.70495087707990
  H   -2.27241060311920      0.22253837480856      0.98442179410155
