15
Coordinates from ORCA-job run
  C   0.68235728176467      0.00687013968348      0.22762721243808
  C   -0.54859767345331     -0.09815306084988     -0.32394708631302
  N   0.91251434286656      0.84523878570825      1.36413020097329
  H   1.69523416769108      1.46697201511679      1.19458119947933
  H   1.13017839109854      0.29505843657236      2.18771326345429
  N   1.74969173215651     -0.73889718978906     -0.38479240557351
  H   2.30514223481705     -0.15407643359951     -1.00097944276172
  H   2.36793322839616     -1.11933508754000      0.32152622199377
  N   -0.75383248505188     -0.86033509506596     -1.48065392049278
  H   -1.65197149527907     -1.32337598135759     -1.48812328286734
  H   0.01221183189602     -1.50911043370680     -1.61566992758276
  C   -1.74349550360569      0.65820388177984      0.16258902684041
  H   -2.17169328120473      1.24409400103354     -0.65616590366722
  H   -2.52099638923773     -0.03165116804733      0.51098419163751
  H   -1.46567638285417      1.31749719006187      0.98118065244167
