15
Coordinates from ORCA-job run
  C   0.85644415403625      0.15514968997666      0.12430510118906
  C   -0.41473785264343     -0.17907435621911     -0.20879169005935
  N   1.95001974399919     -0.13444384452032     -0.69885980740334
  H   2.70397304043813     -0.54950546055961     -0.16687601957184
  H   1.64146028770647     -0.74441227898715     -1.44603535182484
  N   1.25553426351632      0.82013139156452      1.29270178610767
  H   1.87355487989704      1.59266136587963      1.08286081943560
  H   0.48924390979923      1.11392524135618      1.87690287972881
  N   -0.56781159074860     -1.03419507033277     -1.36002919594162
  H   -1.07607021132991     -1.87606659670442     -1.10938315992116
  H   -1.10886613359871     -0.56702779267598     -2.08034156664543
  C   -1.64461176586059      0.26152795859043      0.53253025674253
  H   -1.45563263621165      1.08467854194010      1.22683904740731
  H   -2.40632041454329      0.61287794378481     -0.17316965126452
  H   -2.09817967445644     -0.55622673309297      1.10734655202111
