15
Coordinates from ORCA-job run
  C   0.68542282110400      0.10799923967406      0.19061587014495
  C   -0.59693574060851     -0.22975632188255     -0.07786750959960
  N   1.23519903242261      1.34438823742665     -0.27503367408604
  H   1.66301627959271      1.85378012344314      0.49022355809404
  H   1.95068873783123      1.18656265038141     -0.97614743964383
  N   1.46306385506154     -0.81213326887350      0.97700056140880
  H   1.49715666761458     -0.53154570685786      1.95183113284286
  H   2.41485659942890     -0.85770532381931      0.63391571375112
  N   -1.15326237756465     -1.40402017732183      0.44422129902037
  H   -1.81223792862425     -1.83707439115976     -0.18764509850608
  H   -0.42208838898702     -2.04279235359846      0.73277200020015
  C   -1.54585299804595      0.64567832314310     -0.83262767571974
  H   -2.43506654624152      0.84113696912697     -0.22590740850950
  H   -1.88030856481575      0.14945913340843     -1.75114833463567
  H   -1.06565144816790      1.58502286690953     -1.09520299476183
