15
Coordinates from ORCA-job run
  C   0.78149403664123      0.22697759737362      0.21220756712035
  C   -0.48265006332466     -0.22318171389827      0.02977885569287
  N   1.65204991037364     -0.32654453499846      1.16316345438189
  H   1.20197816321908     -1.13820382476704      1.57114824201061
  H   2.54249334107486     -0.58320012338193      0.75447132061142
  N   1.28217060249518      1.36575329814184     -0.44565636180703
  H   1.28699013555749      1.29817658406133     -1.45076319470031
  H   2.17326823353553      1.66143449401897     -0.07870543328063
  N   -0.84316987710247     -1.43987174993090      0.71369501479860
  H   -1.19024992910440     -2.12703073877085      0.05268974897242
  H   -1.59659977458823     -1.26131770759296      1.37019193093032
  C   -1.49570216825541      0.49498651235440     -0.81132667732958
  H   -2.44879452500096      0.57795715843447     -0.27557498560360
  H   -1.70727667687415     -0.03151565641581     -1.75154465263736
  H   -1.15800140864672      1.50458040537159     -1.05477482915998
