15
Coordinates from ORCA-job run
  C   0.69044905010330      0.00643442330528      0.19742870921316
  C   -0.57137796930938     -0.12660396511337     -0.27372050172720
  N   0.99796783940066      0.94881101954451      1.22907922076334
  H   1.59654529357456      1.69021648864686      0.88147949238477
  H   1.48929645313156      0.49347090512444      1.99055173673653
  N   1.69881059011299     -0.85965647264958     -0.35594591616157
  H   1.88120938174826     -1.65186305128794      0.25184120242879
  H   2.56842581194206     -0.35469386919772     -0.47751295261196
  N   -0.88173410645547     -1.10628956792157     -1.22292763726136
  H   -1.58332157969508     -0.80839494920971     -1.88584339515802
  H   -0.03955681682842     -1.43858671017806     -1.67646065648056
  C   -1.73594805016586      0.65631866651874      0.24429227592275
  H   -1.41843476199754      1.31228347675119      1.05087705996124
  H   -2.17780847494935      1.26243780850500     -0.55523157302955
  H   -2.51352266061230     -0.02488420283807      0.60209293501963
