15
Coordinates from ORCA-job run
  C   0.68958014686858      0.00471405280354      0.20490069869865
  C   -0.55943303446470     -0.09592246296754     -0.30549594147487
  N   0.96043366916450      0.84429541168762      1.33172370258679
  H   1.73978374856045      1.46231716353043      1.13478718227470
  H   1.20463799278521      0.29404734507542      2.14787422890248
  N   1.73278577728907     -0.74662853971430     -0.44080613456584
  H   2.37412370886572     -1.12720778927343      0.24441949805838
  H   2.26791960005762     -0.16691235540030     -1.07932344359217
  N   -0.80608797412391     -0.86031453739533     -1.45270456459938
  H   -1.70571672866717     -1.31985583757838     -1.42879662254419
  H   -0.04708821522495     -1.51222920995551     -1.61074865891561
  C   -1.73451524481256      0.66608614263700      0.21898496961046
  H   -1.42755694280762      1.32400519113570      1.02821385927436
  H   -2.50347831259354     -0.02015062244941      0.59261661695312
  H   -2.18638819089671      1.25375604786450     -0.58564539066691
