15
Coordinates from ORCA-job run
  C   0.77620950700327      0.05154271170783      0.16459246627184
  C   -0.52386499414119     -0.24632041535211     -0.05935753132539
  N   1.48139471943925      1.17586181552409     -0.34002534830542
  H   1.71193018433396      1.85110680732271      0.38063429609114
  H   0.99482049541951      1.63553075361090     -1.09536586561586
  N   1.57510680942679     -0.88522983881249      0.87915120577924
  H   2.54976758150906     -0.75380966386879      0.64559424739700
  H   1.44769101568581     -0.82354229568256      1.88163542929305
  N   -1.06270551738691     -1.47073767482678      0.40640374630272
  H   -1.72841194196390     -1.85134722210563     -0.25567115398532
  H   -0.30562901842911     -2.13028432378823      0.55616321992400
  C   -1.52303458448079      0.68295704391450     -0.67466373178999
  H   -2.42669172200503      0.70752793624468     -0.05818784319898
  H   -1.14474500647642      1.70260975485734     -0.75354287128869
  H   -1.82083752793430      0.35313461125455     -1.67736026554934
