15
Coordinates from ORCA-job run
  C   0.69887206420204      0.07393769858781      0.22377036479483
  C   -0.59198248675582     -0.22789125529732     -0.03461509718576
  N   1.30042129360847      1.32425171785306     -0.12157810032750
  H   2.30751359679726      1.25179476299527     -0.07954737812918
  H   1.03973535123884      1.62844790161906     -1.05009526595625
  N   1.46707550602441     -0.82508265768532      1.02366725249751
  H   1.62555280216600     -0.43912622817529      1.94811603318358
  H   2.36867248701814     -1.01720279836026      0.60202314721879
  N   -1.19631551578294     -1.39952458625163      0.47817941682400
  H   -1.72943305025023     -1.88151184073103     -0.23571319357075
  H   -0.47521822437205     -2.00804918445623      0.84798122973055
  C   -1.51473952168939      0.70042465258399     -0.76408085974707
  H   -1.16161059852207      1.73246933060614     -0.72444200672547
  H   -1.63782553404081      0.42022029871820     -1.81740017712610
  H   -2.50171816964185      0.66684218799354     -0.29626536548116
