15
Coordinates from ORCA-job run
  C   0.75628979193544      0.11947068135145      0.14872953279550
  C   -0.52775139449897     -0.12129226528515     -0.20549331597086
  N   1.89260758547935     -0.41843404809468     -0.51776172906556
  H   2.34723133206077     -1.17083806801690     -0.01393765394307
  H   1.69488414914284     -0.70158218747344     -1.46666192687344
  N   1.06617050565616      1.01076047165896      1.20851255199891
  H   0.91175134546514      0.61190881066924      2.12394052402705
  H   2.02193954216991      1.32560686818450      1.11952822260430
  N   -0.91393646859728     -1.20513204892423     -1.03569659721903
  H   -0.12982452714988     -1.74406149457553     -1.37306358341304
  H   -1.49105430097986     -0.91009011546183     -1.81323444775845
  C   -1.67863213292588      0.65516004773493      0.35414082719037
  H   -2.37901731487001      0.92799443724673     -0.44452855445829
  H   -2.24282653467399      0.05733747678358      1.07739984734125
  H   -1.32483157821375      1.56419143420235      0.83812630274436
