15
Coordinates from ORCA-job run
  C   0.83283160957039      0.17460674346207      0.22019322821051
  C   -0.43476529949490     -0.24197306378269     -0.02189727501669
  N   1.77739621076088     -0.62911043309516      0.86753637481991
  H   1.30894607797235     -1.44859210116695      1.23446571989972
  H   2.25275839435244     -0.11371113495494      1.59703633422197
  N   1.37142160039316      1.42171340530552     -0.12674134738594
  H   0.74712731828963      2.00266471299079     -0.66291867717276
  H   2.26599235782498      1.32098585093659     -0.58746829911991
  N   -0.82657753320759     -1.48348994376306      0.59849614294327
  H   -1.07301739610898     -2.17103823038999     -0.10610815903430
  H   -1.64945058334336     -1.34572721780915      1.17620991181661
  C   -1.43458406659091      0.48986072468144     -0.87107634493575
  H   -0.98330601177213      1.27349752289098     -1.48558394041982
  H   -2.22645543702556      0.95729248801425     -0.27166686860668
  H   -1.92831724162040     -0.20597932331971     -1.55947680022013
