15
Coordinates from ORCA-job run
  C   0.86322165900724      0.12777734521635      0.10628377289548
  C   -0.42475480303588     -0.16441314783520     -0.20124640835065
  N   1.92813377819108     -0.17724793872196     -0.74807037613192
  H   2.68175452044633     -0.62549633543665     -0.24310349295679
  H   1.58412145600285     -0.76131099739483     -1.50052289258036
  N   1.30866674574176      0.75650009485914      1.27805103879712
  H   0.56472162903936      1.06423549497989      1.88387817489079
  H   1.94780016878108      1.51196587746930      1.06907879402089
  N   -0.63005425800427     -0.98954643189091     -1.36608768963053
  H   -1.15107465607254     -1.82517185675867     -1.12050541347079
  H   -1.17861432957294     -0.49368694241552     -2.06114456985226
  C   -1.62268886567992      0.30002791057361      0.57732566580330
  H   -2.08455019965528     -0.51280980819403      1.15265330020438
  H   -2.39198275190851      0.68268453131250     -0.10338530393663
  H   -1.39270009328035      1.10749220423698      1.27779540029797
