15
Coordinates from ORCA-job run
  C   0.78552902511995      0.03271578849486      0.11693158728706
  C   -0.50550910114479     -0.18432648197869     -0.22207598269824
  N   1.80711677599883     -0.54954640029690     -0.68402575793134
  H   2.65559860042049     -0.64877843473787     -0.14410503311809
  H   1.99073375390313     -0.02394178853027     -1.52937324172938
  N   1.24898907077334      0.70500861447833      1.27848341264906
  H   1.66611098314015      1.60580395717919      1.07115850399426
  H   0.53115580192030      0.81421308459622      1.97938716423660
  N   -0.81885652953090     -0.98383188800103     -1.34886585796104
  H   -0.02684512896140     -1.58287565709115     -1.55995018438520
  H   -1.64274779027170     -1.54795214443217     -1.17735761518573
  C   -1.68422389964260      0.46373065966798      0.43438420586991
  H   -2.34907847034940      0.87411486452834     -0.33166190061701
  H   -2.26819327270244     -0.25416149649002      1.02299828712356
  H   -1.39077981867296      1.28082732261319      1.09407241246558
