15
Coordinates from ORCA-job run
  C   0.76543240005202      0.08089692443253      0.19924471578166
  C   -0.50927611843280     -0.26736694039900     -0.08864699690735
  N   1.43789157724600      1.25149754647440     -0.24075219456981
  H   0.96152465113882      1.71266042666746     -1.00168181283336
  H   1.60705042335546      1.91298346584996      0.50909978967747
  N   1.57682464482380     -0.84160647590272      0.91775483472684
  H   1.40461471195592     -0.82059801854344      1.91517065979787
  H   2.55328748563311     -0.65919089657054      0.73084330241038
  N   -1.00976882088178     -1.52958081285650      0.31580691582897
  H   -1.62885209434289     -1.91733398089108     -0.38624673806474
  H   -0.22922168481695     -2.15881240205834      0.47569297947966
  C   -1.52387359536721      0.63616280470063     -0.71714323618302
  H   -1.19099407229121      1.67415337526069     -0.74548876563397
  H   -2.45336283145140      0.59775352290507     -0.14116215464336
  H   -1.76227667662090      0.32838146093087     -1.74249129886725
