15
Coordinates from ORCA-job run
  C   0.69430126466084      0.12425353937132      0.14131659557439
  C   -0.59802185740757     -0.23913865818923     -0.02786015211005
  N   1.53091535993196     -0.74651783640110      0.92354655312878
  H   2.46026123661052     -0.79985682338829      0.52464140960984
  H   1.62124486762195     -0.41590666465762      1.87888960030939
  N   1.19769205349262      1.34178122048651     -0.41690988576136
  H   1.86537494305896      1.15718937569188     -1.15746231861624
  H   1.67064350033598      1.88959701455121      0.29314202432827
  N   -1.10482107557874     -1.39208923699280      0.58468566458002
  H   -0.34754465144256     -2.00665830456967      0.85826099803699
  H   -1.79364646989690     -1.86443399992423      0.01589275538449
  C   -1.60269972398678      0.58764948324646     -0.76509432761754
  H   -1.98266906744461      0.04441880778286     -1.63822103549221
  H   -1.15290701806462      1.51942582691379     -1.09883079205604
  H   -2.45812336189105      0.80028625607891     -0.11699708929872
