15
Coordinates from ORCA-job run
  C   0.77655117346433      0.00893188049859      0.19845381012982
  C   -0.49955066905154     -0.07948907910651     -0.24837563266994
  N   1.24329791699074      0.94786434609949      1.13695501914883
  H   1.72883553950097      0.49991012346286      1.90324109430936
  H   0.52599535113656      1.57295201417904      1.46992265838216
  N   1.84067202248813     -0.80280148307663     -0.23978762834208
  H   1.54851576354347     -1.53645596050274     -0.86577603411956
  H   2.60661972004735     -0.26540426880357     -0.62375793191378
  N   -0.84343813525710     -0.74808722159776     -1.46705124534978
  H   -1.25264761408195     -1.66360482769715     -1.32056219547213
  H   -0.05595873228647     -0.82872216236155     -2.09521722239362
  C   -1.66363943824915      0.59867410322578      0.41311666066976
  H   -2.53593640911825     -0.06233437189412      0.39187730791371
  H   -1.95332146574196      1.51531072478103     -0.11239279809520
  H   -1.46699502338511      0.84025618279323      1.46035413780245
