15
Coordinates from ORCA-job run
  C   0.78785878390905      0.08139085366939      0.12502388882425
  C   -0.54019855111990     -0.15913120499320      0.00542030311236
  N   1.43342901548833      1.27385247543386     -0.25216091779800
  H   2.21453519126778      1.09498508955806     -0.86991880178178
  H   0.80765104637407      1.96241788367750     -0.64015252071728
  N   1.72051004977938     -0.81402733946843      0.68349203440782
  H   2.22062471751068     -0.41489966251957      1.46679566963764
  H   1.32146230049861     -1.71026199554287      0.91381160657958
  N   -1.20746986387647     -1.18238604060404      0.75244330833181
  H   -0.69470365809230     -1.44805215156274      1.58172436073350
  H   -1.41309340544410     -2.00965618465928      0.20430726626636
  C   -1.46828561535724      0.67747244743059     -0.82600009463581
  H   -2.05020852700240      1.37314500924015     -0.21157460925365
  H   -2.19042545515574      0.03100051779654     -1.33500179253906
  H   -0.94268602877973      1.24415030254403     -1.59820970116774
