15
Coordinates from ORCA-job run
  C   0.83666907746979      0.04144129535650      0.21030150226576
  C   -0.43955086533361     -0.15423584047058     -0.19332958779091
  N   1.87458302124928     -0.85902314120622     -0.08577641930617
  H   1.51776246823070     -1.70194830955534     -0.51232530533709
  H   2.62037168734488     -0.44282072036310     -0.62694930970784
  N   1.31958375415542      1.15304692062038      0.93338911914819
  H   1.81920060439916      0.84730928772291      1.76004808338582
  H   0.59148297565472      1.80750978495925      1.17929766491585
  N   -0.69602234991179     -1.19920017762748     -1.14573904061862
  H   -1.68520957042483     -1.30594937807085     -1.31653155724908
  H   -0.23582717886413     -1.01264971984201     -2.02866711977221
  C   -1.63385642713240      0.57231838484554      0.34492259507510
  H   -2.41841084369373     -0.14620735114997      0.61235964794385
  H   -2.06838968603218      1.26851904323550     -0.38268010722656
  H   -1.40238666711128      1.13088992154549      1.25367983427390
