15
Coordinates from ORCA-job run
  C   0.73215937322018      0.19063438466556      0.18923396995103
  C   -0.53587531863228     -0.21232373689138     -0.05977918512580
  N   1.18833118139577      1.46676112075969     -0.23052338431913
  H   1.38328801139189      1.51666664114220     -1.22065062633484
  H   2.00556369574217      1.72880575591951      0.30228627678901
  N   1.68877380133764     -0.56151902111242      0.92694185312216
  H   1.26513051938425     -1.23848507362387      1.54494202125441
  H   2.39614040628672     -1.00422336355444      0.35224998410143
  N   -0.95932219897949     -1.56108138199375      0.06043585613175
  H   -0.23255183306827     -2.17471954414933      0.39856970827400
  H   -1.78812721602154     -1.65699348078723      0.63360450918782
  C   -1.57868409103680      0.70537598426731     -0.61754201602877
  H   -1.77427470977191      0.48561666279887     -1.67224691610732
  H   -1.26295087307959      1.74311907991918     -0.52057933269507
  H   -2.52860074816873      0.57236597264012     -0.08594271820068
