15
Coordinates from ORCA-job run
  C   0.75224224449760      0.17283126977544      0.11065381389639
  C   -0.54928874736653     -0.18452612380041      0.00740161892233
  N   1.70926741119290     -0.49016494162277      0.92860613582341
  H   2.35659177349407     -1.07530601759236      0.41365563036871
  H   1.28812509942322     -1.01308777475388      1.68281377166694
  N   1.25025391465498      1.31710074206053     -0.56428178427680
  H   2.10960011617638      1.62201553066412     -0.12956079160721
  H   1.38989178644121      1.16904691305731     -1.55391685118829
  N   -1.03791918947555     -1.45677306323219      0.40142304680508
  H   -0.32632179312433     -2.04503337539508      0.80954945433176
  H   -1.83259984650556     -1.39045036246349      1.02481689519745
  C   -1.57353461513704      0.68129396289298     -0.65725416401417
  H   -1.85006741401989      0.28334845308127     -1.63907525629569
  H   -2.49211138247691      0.71306972913578     -0.05893899436086
  H   -1.19512935777455      1.69563505819276     -0.77489252526903
