15
Coordinates from ORCA-job run
  C   0.83807168484939      0.05114369355746      0.22676369598965
  C   -0.41297514164248     -0.08767619000151     -0.27171280691374
  N   1.16870329523712      0.45678411238883      1.53657326283203
  H   0.35951362489598      0.67028373813021      2.09997762347463
  H   1.81018246120304      1.24006937244256      1.51478481450143
  N   1.99350257723464     -0.21070949804576     -0.53219238080038
  H   2.56844361642461     -0.93425192219720     -0.11956528501266
  H   1.73386189732234     -0.45132863227565     -1.47989003302461
  N   -0.54817695206075     -0.76926510228279     -1.53935564232086
  H   -0.43817677134051     -1.77013133858297     -1.41031126375788
  H   -1.47188802818873     -0.61688031358308     -1.92194188528577
  C   -1.65013569173496      0.48006946150642      0.35726099733116
  H   -2.26946898766827      0.97272625953456     -0.40163186825123
  H   -1.40136591432274      1.24386840102383      1.09695212106121
  H   -2.28109167020868     -0.27370204161490      0.84328865017701
