15
Coordinates from ORCA-job run
  C   0.81456456726412      0.13923907258851      0.15943216559623
  C   -0.44165052433220     -0.23770842687076     -0.17834426547991
  N   1.95683347337458     -0.39774882544125     -0.45307306279462
  H   1.65703954577865     -0.99988778613590     -1.21151076386121
  H   2.57516594317933      0.32619030043829     -0.79845877329683
  N   1.08188467629006      1.00346100508255      1.23671121757738
  H   0.65844832786368      1.91396221567509      1.15761284953869
  H   2.06417762069316      1.05542797708271      1.45639454225617
  N   -0.57701947732206     -1.07072572884102     -1.34705678143588
  H   -1.21081552777067     -0.64312929310854     -2.01423330706305
  H   -0.98288579291586     -1.96581437149543     -1.09297576630150
  C   -1.65467408643209      0.14937321259478      0.61426442409121
  H   -1.37305536146708      0.55617646502800      1.58786657773568
  H   -2.29453631682942     -0.72424495998794      0.78652430071817
  H   -2.27247706737420      0.89542914339091      0.09684664271948
