15
Coordinates from ORCA-job run
  C   0.78104474841443     -0.04012906289959      0.14665110234741
  C   -0.49849380476216     -0.07223342246204     -0.29046186952607
  N   1.30324307527564      0.80630683608628      1.16023351232486
  H   1.53973040084030      0.30463688736787      2.00925322168330
  H   0.68967350090380      1.57714826167031      1.37912013502602
  N   1.74972570399600     -0.83767357116194     -0.52468180857187
  H   1.72787970679172     -1.80741488763489     -0.23501963553734
  H   2.67290245902103     -0.45228391610467     -0.38095457915388
  N   -0.84984404018561     -0.88065578157009     -1.39943741951829
  H   -0.01668233556291     -1.07243050670661     -1.94688856404752
  H   -1.54637597218890     -0.42474058847686     -1.97681786154491
  C   -1.65261065281249      0.59982101227673      0.38540694231346
  H   -2.03271927871345      1.44341414011721     -0.20348116100943
  H   -2.47457868334647     -0.11320513862558      0.50056427017675
  H   -1.39089482767093      0.97143973812388      1.37651371503752
