13

C	-0.471764	0.020647	-1.425593
C	0.0	0.0	0.0
Cl	-2.248012	0.015204	-1.565651
H	1.091167	0.0	0.0
H	-0.093962	0.87712	-1.974328
H	-0.399211	-0.843608	0.555219
N	0.03121	-1.205816	-2.138164
O	0.483082	-1.03097	-3.266077
O	-0.088093	-2.279305	-1.55781
N	-0.437791	1.240313	0.68331
O	-0.415382	2.285998	0.03626
O	-0.75802	1.145761	1.865657
Cl	3.234798	0.0	0.0
