13

C	-0.589607	0.069484	-1.383223
C	0.0	0.0	0.0
Cl	-2.351103	0.264728	-1.339568
H	1.090386	0.0	0.0
H	-0.170939	0.937706	-1.888738
H	-0.334352	0.868598	0.565808
N	-0.200353	-1.10224	-2.279379
O	0.99973	-1.142882	-2.508044
O	-1.063064	-1.853138	-2.709107
N	-0.480742	-1.182946	0.752168
O	-0.758711	-1.020749	1.938308
O	-0.536435	-2.251436	0.147073
Cl	3.290982	0.0	0.0
