13

C	-0.590792	0.122773	-1.38101
C	0.0	0.0	0.0
Cl	-2.328726	0.461846	-1.328792
H	1.090424	0.0	0.0
H	-0.100257	0.956753	-1.882369
H	-0.318073	0.861125	0.586936
N	-0.303508	-1.073149	-2.283486
O	-1.230315	-1.723871	-2.740145
O	0.888778	-1.236081	-2.495605
N	-0.494267	-1.188916	0.733147
O	-0.68083	-1.061415	1.941063
O	-0.648557	-2.229556	0.095352
Cl	3.267448	0.0	0.0
