13

C	-0.578168	0.039613	-1.399835
C	0.0	0.0	0.0
Cl	0.078602	-1.220656	-2.421346
H	1.088543	0.0	0.0
H	-1.661111	-0.054368	-1.380648
H	-0.38392	0.849718	0.568572
N	-0.325413	1.422611	-1.98008
O	0.417306	1.565625	-2.936764
O	-0.957972	2.308992	-1.408091
N	-0.525619	-1.21699	0.689784
O	0.218003	-1.797298	1.470953
O	-1.700022	-1.524581	0.470369
Cl	3.315182	0.0	0.0
