13

C	-0.471405	0.013988	-1.426146
C	0.0	0.0	0.0
Cl	-2.252643	-0.015309	-1.554196
H	1.092792	0.0	0.0
H	-0.11063	0.878789	-1.973447
H	-0.399722	-0.841316	0.557708
N	0.043564	-1.20385	-2.141997
O	-0.043311	-2.27592	-1.554475
O	0.473844	-1.025209	-3.277168
N	-0.451991	1.243896	0.666992
O	-0.807531	1.155479	1.839294
O	-0.41142	2.285633	0.014807
Cl	3.231674	0.0	0.0
