13

C	-0.4706	0.020474	-1.426906
C	0.0	0.0	0.0
Cl	-0.114862	1.59283	-2.150735
H	1.090924	0.0	0.0
H	-0.01229	-0.753182	-2.034396
H	-0.39367	0.827508	0.583417
N	-1.961621	-0.196238	-1.538496
O	-2.35836	-0.758002	-2.554207
O	-2.66362	0.229618	-0.626531
N	-0.44416	-1.251617	0.658888
O	-0.532626	-1.242216	1.881216
O	-0.662706	-2.227057	-0.063117
Cl	3.25244	0.0	0.0
