13

C	-0.470543	0.015762	-1.426309
C	0.0	0.0	0.0
Cl	-0.115425	1.585806	-2.155817
H	1.090276	0.0	0.0
H	-0.011247	-0.759723	-2.030909
H	-0.394394	0.827959	0.582171
N	-1.961477	-0.203221	-1.536183
O	-2.66316	0.219116	-0.622401
O	-2.358871	-0.763325	-2.552616
N	-0.442959	-1.251456	0.660644
O	-0.533813	-1.24013	1.882743
O	-0.657692	-2.228762	-0.060081
Cl	3.253506	0.0	0.0
