13

C	-0.476271	-0.031033	-1.427338
C	0.0	0.0	0.0
Cl	-0.032047	1.395341	-2.340395
H	1.087963	0.0	0.0
H	-0.003617	-0.891406	-1.905106
H	-0.346363	-0.896776	0.516035
N	-1.969569	-0.32392	-1.529729
O	-2.322002	-1.303531	-0.878619
O	-2.684109	0.350609	-2.252083
N	-0.560455	1.148356	0.760904
O	0.035003	1.489679	1.774004
O	-1.620288	1.631169	0.357247
Cl	3.294539	0.0	0.0
