20

C	0.0	0.0	0.0
C	-0.403923	-0.037672	-1.477064
F	1.427961	0.0	0.0
H	0.193997	-0.860073	-1.899152
C	-0.449016	1.225919	0.762734
H	-0.000418	2.127185	0.345071
H	-1.53712	1.30081	0.735953
H	-0.130979	1.141251	1.806058
N	-0.458545	-1.17337	0.659354
H	-0.144679	-2.002001	0.169177
H	-0.120565	-1.201527	1.612572
C	0.002966	1.243407	-2.202221
H	1.035022	1.522574	-1.976951
H	-0.086491	1.101978	-3.282891
H	-0.657232	2.070288	-1.927583
C	-1.883736	-0.346455	-1.680186
H	-2.154075	-1.331414	-1.302654
H	-2.548155	0.346508	-1.162367
H	-2.128882	-0.306211	-2.746273
Br	-5.250743	0.0	0.0
