20

C	0.0	0.0	0.0
C	-0.291389	0.127896	-1.518059
F	1.405795	0.0	0.0
H	0.371441	0.940124	-1.846045
C	-0.475864	1.197248	0.79087
H	-1.567743	1.217535	0.826332
H	-0.114432	2.119368	0.330472
H	-0.082215	1.122935	1.806473
N	-0.452996	-1.197017	0.649483
H	-1.450167	-1.114433	0.82998
H	-0.313163	-2.000585	0.049791
C	-1.724024	0.492247	-1.87153
H	-2.010564	1.475239	-1.495447
H	-1.841719	0.505277	-2.960639
H	-2.45461	-0.204816	-1.460338
C	0.134389	-1.139116	-2.261696
H	1.122211	-1.482494	-1.945387
H	0.170506	-0.945301	-3.337642
H	-0.591786	-1.943727	-2.110016
Br	-4.670878	0.0	0.0
