20

C	0.0	0.0	0.0
C	-0.28855	-0.066936	-1.531129
F	1.407358	0.0	0.0
H	0.521912	-0.708972	-1.904511
C	-0.520014	1.230213	0.703498
H	-0.256935	1.161774	1.760915
H	-0.083429	2.134988	0.285362
H	-1.609719	1.269502	0.605901
N	-0.40437	-1.164014	0.745319
H	-1.400748	-1.106922	0.940106
H	-0.250556	-1.993483	0.183657
C	-0.142819	1.299777	-2.201172
H	-0.128048	1.182554	-3.288889
H	-0.995043	1.937933	-1.950753
H	0.779796	1.804177	-1.901729
C	-1.612174	-0.707717	-1.924047
H	-1.653174	-1.762176	-1.6353
H	-1.735161	-0.664487	-3.011065
H	-2.4768	-0.230615	-1.463657
Br	-4.582505	0.0	0.0
