18
Coordinates from ORCA-job run
  C   -0.60723627841386      0.23521954587421     -0.35010893571193
  C   0.91365770534356      0.30629590855276     -0.20407929322495
  Cl  -0.92237728903309      0.83711819159871     -2.01807196854743
  H   1.26049011751057      1.33303470949355     -0.30118972690542
  C   -1.23390523444349     -1.13973538434217     -0.18458539297026
  H   -1.03205436789708     -1.52746351102834      0.81644418551564
  H   -2.31439217595871     -1.03977672639835     -0.30307836649727
  H   -0.86022429293915     -1.84755066951951     -0.91783730912214
  C   -1.22969982922125      1.23235048232330      0.62216716035273
  H   -0.78380630466147      2.22338348159464      0.52229568625212
  H   -2.29679984290897      1.31111944529562      0.40958630553869
  H   -1.10639678677675      0.89501803889247      1.65328879567843
  N   1.74189208779849     -0.48184253389835     -1.18365055523617
  O   2.87837191939667     -0.03973954185602     -1.33561521457977
  O   1.27072044687877     -1.48043832709320     -1.70938174409825
  N   1.34477389071727     -0.16201184055698      1.15972606267675
  O   1.50624372292147     -1.36850466798586      1.31264866236798
  O   1.46874251168702      0.71352339905354      2.01044164851125
