18
Coordinates from ORCA-job run
  C   -0.61202144563699     -0.03608619091558     -0.41313366390301
  C   0.88707345118761     -0.31417825759682     -0.29103739861718
  Cl  -0.91407589555326      0.00207607460292     -2.18822005618921
  H   1.13534236184003     -1.27761136004080     -0.73158634384150
  C   -1.36969419283592     -1.23197495686381      0.15506817622052
  H   -2.42948108045595     -1.11951815542601     -0.07796324076531
  H   -1.01941517555913     -2.17153608935696     -0.27559288879578
  H   -1.25735952798963     -1.28051946180334      1.24006835246628
  C   -1.10725675401877      1.25917253269567      0.20949380210147
  H   -0.63535280464044      2.12998109232970     -0.23469010894915
  H   -0.91076455564779      1.25964175374798      1.28398140105176
  H   -2.18637319057546      1.32122746936242      0.05737759222637
  N   1.30420486240267     -0.38580647602020      1.15327733869975
  O   1.30554994974741     -1.50616614722574      1.65371516742752
  O   1.57682835062388      0.67242711517129      1.71085764031198
  N   1.82908137383469      0.66683637270668     -0.93673779741338
  O   1.48089388456554      1.82897038251840     -1.09106948440798
  O   2.92182038871152      0.18406430211421     -1.22480848762314
