18
Coordinates from ORCA-job run
  C   -0.63153926763832     -0.03956768806629     -0.38577445955097
  C   0.87643331780820     -0.30216761544212     -0.34213398488661
  Cl  -1.00929294272384      0.02773819988677     -2.15090817337681
  H   1.14686731070140     -1.13251118677760     -0.99152930904452
  C   -1.36576436895356     -1.24463821810581      0.19000674539453
  H   -1.00760444607079     -2.17637206425188     -0.25442657716144
  H   -2.42940009296309     -1.15187457462059     -0.03379792428356
  H   -1.23937173007906     -1.28423475219479      1.27226459701527
  C   -1.09323940086569      1.26744792096560      0.23589795589083
  H   -0.65428063185329      2.12958478494375     -0.26452642856820
  H   -0.82881321384985      1.29818366691577      1.29182293288434
  H   -2.17815301568395      1.33119890864719      0.13399905920600
  N   1.42536672832396     -0.64959073114861      1.01763208174905
  O   0.83344623684340     -0.26753018126703      2.02058734484053
  O   2.47797322147879     -1.28240445779789      0.98858590257196
  N   1.69644575643733      0.87354780016338     -0.79817807339896
  O   1.83372705765671      1.78914738099973      0.00801619792538
  O   2.14819948143165      0.81404280715041     -1.93553788720682
