18
Coordinates from ORCA-job run
  C   -0.59092395281811      0.26210995346779     -0.13734981965340
  C   0.84681906247513     -0.18021919157113      0.14227871203475
  Cl  -0.61405949503049      1.76561378133381     -1.10797315963114
  H   0.84894143022279     -0.96271385086502      0.90106944724301
  C   -1.32330463022612     -0.83972910097095     -0.89637524150981
  H   -0.91681711408806     -0.97775972029142     -1.89611036439778
  H   -1.25948843607247     -1.78267648822785     -0.34368797076269
  H   -2.37570515787958     -0.56703940731686     -0.98661924938971
  C   -1.29992529455322      0.55314360160939      1.18254330974362
  H   -2.33603503138693      0.81908201176472      0.96824168345719
  H   -1.29101438021689     -0.33413716027374      1.82210967207569
  H   -0.83552177175118      1.37628213080160      1.72188755795546
  N   1.71012153328268      0.92403490164677      0.69330241513341
  O   1.55739356099547      1.15177943963016      1.88887291552606
  O   2.46703361033128      1.49696570304706     -0.07854115635426
  N   1.60229254294944     -0.75862079959567     -1.02043590749860
  O   2.44846259693449     -1.59286028106768     -0.70302474553306
  O   1.36173092683177     -0.35425552312098     -2.15018809843875
