18
Coordinates from ORCA-job run
  C   -0.60643989709475      0.01598090729894     -0.26338136914775
  C   0.85841745483764      0.01689396318628      0.17858619786669
  Cl  -0.73248246236120     -0.15434919171277     -2.04036844617169
  H   0.92573085433589      0.32831333409141      1.22099682253750
  C   -1.33878648069869     -1.14145992982086      0.40801352408643
  H   -1.21025001667197     -1.08765216092992      1.49395302452818
  H   -0.98272785243653     -2.10465989754501      0.04861414218320
  H   -2.40385762155740     -1.06253038498775      0.18555790628740
  C   -1.25486021742410      1.34299581730254      0.12128839562487
  H   -0.79025856907389      2.18674760567437     -0.38505158899778
  H   -1.18465829770612      1.50060767617577      1.20140475480940
  H   -2.30861565805425      1.30756654970998     -0.15900145008961
  N   1.71003394826406      0.98964485216777     -0.59370477277679
  O   2.40172689806102      0.54773939055515     -1.50107542035786
  O   1.61491191116989      2.15881116846494     -0.23519434798915
  N   1.57421134141797     -1.30248677406716      0.11519174761095
  O   2.47233997047681     -1.42474559404652      0.94644286089345
  O   1.25556469451562     -2.11541733151714     -0.74227198089744
