18
Coordinates from ORCA-job run
  C   -0.61350879547955     -0.02851532054909     -0.24388064735143
  C   0.85602986250688     -0.06767679885975      0.17976717470305
  Cl  -0.79209109142505     -0.50833824874786     -1.95884726140995
  H   0.92722187654561      0.01943790116465      1.26394111699627
  C   -1.41295231815711     -1.01857458415153      0.59869204205949
  H   -2.46447626156469     -0.94245310543899      0.31817488806123
  H   -1.31547393809949     -0.77837844184734      1.66132380814606
  H   -1.08625120402523     -2.04466810907498      0.44199479474299
  C   -1.15922070801820      1.38339759258068     -0.05570162086599
  H   -0.69271780089911      2.08972738002398     -0.73922730011873
  H   -2.23296563760473      1.37535881017666     -0.24835048052707
  H   -0.99833477484443      1.71340507600302      0.97573999363476
  N   1.73353897880985      1.02560497862763     -0.36057657596647
  O   2.66887267423028      1.32836193608837      0.37842951991937
  O   1.49149140383413      1.49626863551321     -1.46403117585007
  N   1.53952264972588     -1.36319559409377     -0.17094234855501
  O   1.30691160371672     -2.29402163181262      0.59325364335327
  O   2.24440348074824     -1.38474047560229     -1.17075957097176
