18
Coordinates from ORCA-job run
  C   -0.62927736056363      0.24393035745617     -0.30558785598032
  C   0.88917561902658      0.39388980421997     -0.17642235937873
  Cl  -1.01180002209088      1.04335952827652     -1.87981539497426
  H   1.19643145629024      1.42204738219122     -0.35743795416997
  C   -1.15013143844502     -1.18160507717067     -0.37302978944901
  H   -0.88747148602541     -1.72417924828926      0.53384482398595
  H   -0.75143468959112     -1.71666259474092     -1.23388845541258
  H   -2.23685910201497     -1.14466058360451     -0.46883974449629
  C   -1.30661488069663      1.05562929856155      0.79209636582945
  H   -1.17621983460376      0.56877453446716      1.75901217198958
  H   -0.90722326508425      2.07167402688610      0.83720561539630
  H   -2.37388579168708      1.12260661825279      0.57660439990361
  N   1.65398197349392     -0.45248429523035     -1.15670791799889
  O   1.74825190274484     -1.64705585554279     -0.88945143332874
  O   2.10851866270417      0.12523638991919     -2.13700996735526
  N   1.45440619188412      0.02784455779677      1.17157653192221
  O   0.84719471107855     -0.76425403271820      1.88300240074955
  O   2.53395735358031      0.55690918926927      1.42484856276742
