18
Coordinates from ORCA-job run
  C   -0.62707459589794      0.03502198779871     -0.36825505742109
  C   0.85401023896765     -0.35392488386043     -0.36491738481725
  Cl  -1.03149555782176      0.17072488624493     -2.11912884012832
  H   1.00565979517757     -1.27212135386693     -0.92620061708022
  C   -1.41987979006493     -1.13021498115382      0.21261865115920
  H   -2.48381953355485     -0.95213010747033      0.05090460593688
  H   -1.24548032948117     -1.21141334950154      1.28833939251981
  H   -1.15100479936564     -2.07690730404079     -0.25917845979972
  C   -0.99546907383403      1.34070927906578      0.31594160563105
  H   -0.69329551712742      1.31867175108836      1.36424152011219
  H   -0.52767599471479      2.19744893831048     -0.16037596373588
  H   -2.07991749754540      1.45484463998683      0.26327211926841
  N   1.33441481291925     -0.63877065358018      1.03311755646124
  O   1.44330595949493     -1.83021022170277      1.31353914287951
  O   1.54216602298863      0.31326090368898      1.77731598280163
  N   1.78824555081282      0.64506179526103     -0.98486827127882
  O   1.72822274799271      1.81113371577610     -0.61409095604004
  O   2.55908756105435      0.17981495795558     -1.82227502646859
