18
Coordinates from ORCA-job run
  C   -0.62421894898645      0.25278152409619     -0.30061561955900
  C   0.90040472382187      0.34003701888133     -0.21071982030698
  Cl  -1.01816413742873      0.99083033871718     -1.89585935279620
  H   1.22622648237939      1.37802254589878     -0.22433673025225
  C   -1.22140071288543     -1.14328325365020     -0.23179065303443
  H   -0.97571996291237     -1.61118465030391      0.72418176274563
  H   -0.86427107819347     -1.77845696764231     -1.03638700146899
  H   -2.30708192433791     -1.05454517873369     -0.30197114044358
  C   -1.22120327386159      1.14961478414081      0.77916278963958
  H   -0.79776635661478      2.15485827847995      0.74566421421378
  H   -2.29780804035206      1.22344980188014      0.61918006881787
  H   -1.04681489699709      0.72847544400943      1.77131977920086
  N   1.69518491615443     -0.33446297707186     -1.29621286769185
  O   1.22893771793089     -1.30930287893207     -1.86907905083669
  O   2.80294067049601      0.16471201772933     -1.48134966776198
  N   1.39615571833074     -0.24557671388784      1.08405066016905
  O   1.58305895615808     -1.45758705443868      1.11661148950741
  O   1.54254014729846      0.54961792082741      2.00715113985779
