18
Coordinates from ORCA-job run
  C   -0.63037393704471     -0.04181210425444     -0.38789101308871
  C   0.87800005572718     -0.30161503068690     -0.33896535046132
  Cl  -1.00301519203571      0.02008122064175     -2.15431125117966
  H   1.15161707671327     -1.13244266920081     -0.98640948114855
  C   -1.36438434076148     -1.24648730989323      0.18889287592742
  H   -1.00212966759359     -2.17901570396764     -0.25055904356583
  H   -1.24291825711177     -1.28198505012383      1.27184384562324
  H   -2.42715909099654     -1.15696572183640     -0.04025779554307
  C   -1.09580261418562      1.26616300934440      0.22896069094125
  H   -0.83336029366119      1.30087143397151      1.28525415458913
  H   -0.65782815241707      2.12765885914844     -0.27342616483971
  H   -2.18071045334703      1.32726786088916      0.12517979157329
  N   1.42345946754472     -0.64545145078783      1.02300432382853
  O   2.47860875502006     -1.27425674753907      0.99819848606353
  O   0.82693293381965     -0.26408604776450      2.02354109764145
  N   1.69722054810977      0.87491639719569     -0.79433886763794
  O   1.83139754535337      1.79134491808555      0.01148488892764
  O   2.15044561686669      0.81581413677815     -1.93120118765069
