18
Coordinates from ORCA-job run
  C   -0.62544670273729      0.27852599108441     -0.28347461227420
  C   0.90094066398154      0.35827180422938     -0.19079318037396
  Cl  -1.01120059324221      1.13065756236850     -1.82890095281536
  H   1.24939389619579      1.37576943431041     -0.35678846664323
  C   -1.21065368391950     -1.12082404433141     -0.36911969546995
  H   -2.29676736926194     -1.03452321492912     -0.43577627009566
  H   -0.85779130108749     -1.65231715831559     -1.25191987055573
  H   -0.94956683904198     -1.69545196012008      0.51825221851222
  C   -1.23793291369817      1.09335060562995      0.84938103216417
  H   -0.79266260411947      2.08954699489735      0.90624416192055
  H   -2.30625184460841      1.21220161365808      0.66337452875947
  H   -1.10518486090556      0.57907661393237      1.80164283509325
  N   1.60285121587041     -0.49749662438220     -1.20923295499309
  O   2.05833680144622      0.08300988454969     -2.18750428842562
  O   1.65070578967834     -1.70104939658352     -0.97174820977160
  N   1.48298783111364     -0.06386453891506      1.13343923759211
  O   0.85964369804856     -0.84578606444218      1.84216937881219
  O   2.59059881628750      0.41190249735903      1.37075510856444
