18
Coordinates from ORCA-job run
  C   -0.63313592152619     -0.01960672801350     -0.38469476683961
  C   0.85174026151868     -0.38754757825579     -0.31705191331558
  Cl  -1.00640831086999     -0.04602215605779     -2.15195989768647
  H   1.06060138123467     -1.27744570052619     -0.90758867348414
  C   -1.45223108744073     -1.12608935650009      0.26893281493714
  H   -1.16370364777005     -2.10924970536340     -0.11061349173280
  H   -1.32732333020281     -1.10159766260638      1.35184528141156
  H   -2.50670271094486     -0.97148595850313      0.03608946245355
  C   -0.99813629849988      1.35709620400462      0.14393485827992
  H   -0.49766980310513      2.14854944916275     -0.41236444494974
  H   -0.73221583506188      1.44130600205710      1.19654470494420
  H   -2.07556805454103      1.49230200455761      0.03260369506298
  N   1.37446783567285     -0.68055660733682      1.06551146990207
  O   2.37644953869256     -1.39129570334767      1.08437896977094
  O   0.81405493224324     -0.18662493464610      2.03722392841257
  N   1.75521094870389      0.69100782322636     -0.84874138148685
  O   2.20252694722308      0.51988359898503     -1.97661334708097
  O   1.95804315467357      1.64837700916339     -0.10743726859876
