18
Coordinates from ORCA-job run
  C   -0.62605051021719      0.24860224001092     -0.30205133114209
  C   0.90016462388430      0.32510175604261     -0.23407301752377
  Cl  -1.03345475176151      0.94204114828308     -1.91373744016887
  H   1.23420441706843      1.35905389711434     -0.29036147816578
  C   -1.23610405263225     -1.13853219560115     -0.18364632722946
  H   -0.97867309073008     -1.58215518757464      0.78075477054114
  H   -0.89917869678894     -1.80008864291362     -0.97555857811044
  H   -2.32184844211239     -1.03999647724205     -0.23797541534402
  C   -1.20033652238409      1.18298155141753      0.75813305873186
  H   -1.01884194369227      0.78821018443924      1.75990090197812
  H   -2.27793412660270      1.26430846857398      0.60893658230204
  H   -0.76620534068613      2.18200580297776      0.69166868062254
  N   1.67676429605036     -0.39655467645903     -1.30247380839131
  O   2.79163563813602      0.07764102692003     -1.50882794866278
  O   1.19042486989699     -1.38024342632529     -1.84264547054202
  N   1.40758662501153     -0.21598063258645      1.07510481771419
  O   1.57961970119286      0.61219645679517      1.96419667264051
  O   1.57722730636707     -1.42859129387244      1.15265533075015
