18
Coordinates from ORCA-job run
  C   -0.63979566658850      0.03931929461554     -0.36356398489604
  C   0.84151986969636     -0.34235115445910     -0.38208114721287
  Cl  -1.06264865656700      0.25212147803716     -2.10146433748697
  H   0.98852390865264     -1.27731023104191     -0.91846884196251
  C   -1.43318249933577     -1.15315914382810      0.16128797275944
  H   -2.49724687228921     -0.95839599200047      0.02019109385434
  H   -1.24743145279176     -1.30027094286301      1.22730533750788
  H   -1.17704309454901     -2.07198822861484     -0.36890083929716
  C   -1.00265872924116      1.30368279374855      0.39810855338202
  H   -2.08419426895474      1.43892106607426      0.33841881927282
  H   -0.51165122092796      2.18039816366982     -0.01238354587829
  H   -0.72513743075403      1.20373398987468      1.44974166808105
  N   1.35632626450944     -0.56813762474523      1.01377379117505
  O   1.33340393044268     -1.73000314923720      1.40864552889295
  O   1.72548937303954      0.41822455886362      1.64312927804692
  N   1.79454404452944      0.63054681505134     -1.02137411969685
  O   1.54031814345482      1.82687742247967     -0.99782321478927
  O   2.79986435767422      0.10379088437522     -1.49354201175248
