18
Coordinates from ORCA-job run
  C   -0.61688912675231      0.26609306046080     -0.30257125010272
  C   0.90850694037576      0.32448260647400     -0.20218572083411
  Cl  -0.98433194129714      1.03063044578422     -1.89154827851932
  H   1.25254678933011      1.35650550451035     -0.20750988494584
  C   -1.24507509888241     -1.11724583068447     -0.25578756242110
  H   -2.32859413748825     -1.00182451978493     -0.32088006185522
  H   -0.90489280515114     -1.74584737320985     -1.07270691827492
  H   -1.00678467172815     -1.60836964906292      0.69023096312087
  C   -1.20118051651504      1.16105016863919      0.78581823950777
  H   -0.75326943096921      2.15611318225071      0.77238402300800
  H   -1.04495713307258      0.71970446277239      1.77240469983368
  H   -2.27450155188850      1.26338095179890      0.61973209504773
  N   1.69579057146976     -0.35695656315127     -1.28812431196677
  O   1.22412052457532     -1.33533750922085     -1.85088510483060
  O   2.80312800052150      0.13915428984333     -1.48503441109165
  N   1.38574722865994     -0.27549250287329      1.09268280584416
  O   1.55876727950580      0.51588524239337      2.01473354533731
  O   1.53386907930655     -1.49292596693968      1.12724713314276
