12

C	-0.250206	-0.043633	-1.501427
C	0.0	0.0	0.0
Cl	-1.954274	-0.392236	-1.965256
H	1.09818	0.0	0.0
H	0.359264	-0.861618	-1.897601
C	0.162248	1.203461	-2.143088
N	0.438828	2.214364	-2.673007
C	-0.43807	-1.220859	0.644052
N	-0.748907	-2.242836	1.136886
C	-0.530117	1.180498	0.645413
N	-0.898127	2.160668	1.182982
H	2.452541	0.0	0.0
