12

C	-0.259501	-0.048559	-1.499941
C	0.0	0.0	0.0
Cl	-1.981514	-0.331481	-1.946727
H	1.098084	0.0	0.0
H	0.310771	-0.895991	-1.89362
C	0.19955	1.174643	-2.156875
N	0.506235	2.170593	-2.699033
C	-0.445039	-1.215509	0.649705
N	-0.765125	-2.235362	1.141041
C	-0.524445	1.186568	0.638356
N	-0.878418	2.175839	1.169143
H	2.455656	0.0	0.0
