12

C	-0.405275	-0.030655	-1.482188
C	0.0	0.0	0.0
Cl	0.180567	1.439005	-2.315153
H	1.096619	0.0	0.0
H	-1.492175	-0.027034	-1.595888
C	0.111101	-1.224556	-2.155683
N	0.415521	-2.193901	-2.745174
C	-0.467813	-1.200739	0.666722
N	-0.843446	-2.174574	1.210364
C	-0.504759	1.185447	0.662052
N	-0.855482	2.16219	1.21767
H	2.460961	0.0	0.0
