12

C	-0.397745	-0.046697	-1.483622
C	0.0	0.0	0.0
Cl	0.169142	1.428649	-2.322705
H	1.096654	0.0	0.0
H	-1.482945	-0.061419	-1.604693
C	0.142283	-1.235612	-2.147067
N	0.463996	-2.203972	-2.728758
C	-0.46502	-1.196927	0.674805
N	-0.83651	-2.169174	1.223406
C	-0.510181	1.188141	0.652169
N	-0.867387	2.167989	1.198788
H	2.459333	0.0	0.0
