12

C	-0.405314	-0.031249	-1.48225
C	0.0	0.0	0.0
Cl	0.180776	1.437427	-2.315935
H	1.096593	0.0	0.0
H	-1.492012	-0.027236	-1.595796
C	0.109528	-1.226055	-2.154699
N	0.415837	-2.195041	-2.744149
C	-0.46849	-1.199146	0.668029
N	-0.84029	-2.173251	1.214639
C	-0.505358	1.185027	0.662356
N	-0.855738	2.162738	1.216371
H	2.460912	0.0	0.0
