12

C	-0.28208	-0.019656	-1.507267
C	0.0	0.0	0.0
Cl	0.141973	-1.613349	-2.188503
H	1.09667	0.0	0.0
H	0.412465	0.703178	-1.952077
C	-1.660132	0.303144	-1.865153
N	-2.766234	0.57253	-2.157474
C	-0.554269	-1.12378	0.721104
N	-0.930572	-2.050508	1.341124
C	-0.42323	1.26656	0.56588
N	-0.737802	2.317967	0.989669
H	2.452935	0.0	0.0
