12

C	-0.266565	-0.001948	-1.510882
C	0.0	0.0	0.0
Cl	0.148591	-1.591065	-2.206027
H	1.096516	0.0	0.0
H	0.442523	0.717398	-1.938985
C	-1.635138	0.344185	-1.883099
N	-2.730056	0.644007	-2.188502
C	-0.563229	-1.130935	0.702086
N	-0.953572	-2.070764	1.293747
C	-0.419937	1.261618	0.578782
N	-0.695642	2.310803	1.034958
H	2.448517	0.0	0.0
