13

C	-0.557863	0.061221	-1.404937
C	0.0	0.0	0.0
F	-1.925486	0.107257	-1.386953
H	1.091955	0.0	0.0
H	-0.311138	0.921826	0.502634
C	-0.066565	1.218656	-2.157274
N	0.269049	2.187518	-2.728625
N	-0.179673	-1.20807	-2.180501
O	0.873738	-1.171298	-2.798895
O	-0.956269	-2.145412	-2.070482
C	-0.534664	-1.136634	0.738847
N	-0.969061	-2.022974	1.374065
Cl	3.216258	0.0	0.0
