13

C	-0.463055	-0.045757	-1.44016
C	0.0	0.0	0.0
F	-0.079992	1.051969	-2.121286
H	1.093505	0.0	0.0
H	-0.337454	-0.904564	0.51089
C	-0.028375	-1.260315	-2.142239
N	0.275984	-2.235226	-2.722426
N	-2.008497	-0.07469	-1.468223
O	-2.513284	-1.071136	-0.965612
O	-2.584215	0.887879	-1.949776
C	-0.535722	1.179305	0.665654
N	-0.987112	2.119659	1.20439
Cl	3.221969	0.0	0.0
