13

C	-0.556543	0.047519	-1.407855
C	0.0	0.0	0.0
F	-1.924303	0.104149	-1.386924
H	1.091976	0.0	0.0
H	-0.310196	0.926353	0.494421
C	-0.059246	1.202627	-2.16494
N	0.291627	2.161094	-2.745418
N	-0.185604	-1.229182	-2.172232
O	0.861388	-1.194857	-2.804343
O	-0.965051	-2.164102	-2.03957
C	-0.535493	-1.130771	0.746594
N	-0.971821	-2.024001	1.370879
Cl	3.219583	0.0	0.0
