13

C	-0.462496	-0.058416	-1.441309
C	0.0	0.0	0.0
F	-0.082546	1.035373	-2.1297
H	1.093533	0.0	0.0
H	-0.337719	-0.900458	0.518194
C	-0.022887	-1.276666	-2.132839
N	0.289568	-2.255063	-2.703821
N	-2.007504	-0.095111	-1.472777
O	-2.586301	0.863056	-1.959983
O	-2.508151	-1.091235	-0.965159
C	-0.536043	1.186184	0.653922
N	-0.978068	2.137799	1.180762
Cl	3.221639	0.0	0.0
