13

C	-0.474324	-0.000798	-1.439809
C	0.0	0.0	0.0
F	-0.080199	-1.112655	-2.092511
H	1.094814	0.0	0.0
H	-0.332397	0.922592	0.480548
C	-1.932813	0.151017	-1.583731
N	-3.098188	0.256396	-1.687757
N	0.146678	1.215878	-2.149429
O	0.82613	1.003162	-3.136813
O	-0.140076	2.293983	-1.644817
C	-0.539235	-1.154803	0.702349
N	-0.996225	-2.078897	1.264098
Cl	3.22336	0.0	0.0
