13

C	-0.560335	0.048793	-1.405752
C	0.0	0.0	0.0
F	-1.927538	0.101048	-1.384945
H	1.092049	0.0	0.0
H	-0.312028	0.925577	0.495079
C	-0.065039	1.196486	-2.170094
N	0.28455	2.153493	-2.752628
N	-0.189322	-1.23039	-2.169718
O	0.864055	-1.205597	-2.787683
O	-0.976082	-2.15908	-2.058613
C	-0.535846	-1.131826	0.745348
N	-0.965302	-2.013152	1.39068
Cl	3.219981	0.0	0.0
