16

C	0.0	0.0	0.0
C	-0.454285	0.027131	-1.468724
Cl	1.803879	0.0	0.0
H	0.265681	-0.590855	-2.030534
H	-0.273572	-0.98245	0.385585
C	-0.576366	1.092603	0.864528
H	-1.669298	1.000179	0.821319
H	-0.290011	2.074639	0.491547
H	-0.245342	0.974677	1.900096
N	-0.403244	1.424775	-1.956447
H	0.563552	1.663382	-2.162797
H	-0.920429	1.465308	-2.827021
N	-1.730892	-0.614343	-1.567314
H	-2.486385	-0.267215	-0.923401
H	-2.090274	-0.554986	-2.514213
H	-3.83074	0.0	0.0
