16

C	0.0	0.0	0.0
C	-0.561037	-0.015817	-1.412937
Cl	1.804962	0.0	0.0
H	-1.647035	0.082735	-1.2329
H	-0.292386	-0.933549	0.484199
C	-0.509823	1.177797	0.796964
H	-1.605765	1.085287	0.794178
H	-0.132238	1.153378	1.823257
H	-0.212939	2.109621	0.314624
N	-0.354545	-1.282486	-2.124198
H	-1.036954	-1.945291	-1.767655
H	0.569687	-1.646156	-1.909418
N	-0.088585	1.135023	-2.164676
H	0.882789	0.977026	-2.415742
H	-0.61416	1.145549	-3.031679
H	-3.33908	0.0	0.0
