16

C	0.0	0.0	0.0
C	-0.569492	0.000425	-1.418921
Cl	1.790856	0.0	0.0
H	-1.654697	0.108982	-1.24354
H	-0.299254	-0.934066	0.481115
C	-0.525269	1.165207	0.808378
H	-0.156863	1.128003	1.836809
H	-0.210501	2.115395	0.366896
H	-1.622228	1.078982	0.794525
N	-0.235368	-1.259798	-2.08713
H	-0.793585	-1.985754	-1.645564
H	-0.586882	-1.163155	-3.034108
N	-0.119912	1.078039	-2.282581
H	-0.556879	1.942688	-1.988847
H	0.886566	1.178432	-2.196366
H	-3.371485	0.0	0.0
