16

C	0.0	0.0	0.0
C	-0.574214	-0.053304	-1.405936
Cl	1.803592	0.0	0.0
H	-1.652124	-0.196861	-1.203851
H	-0.272987	-0.942249	0.477407
C	-0.536115	1.15703	0.806321
H	-1.633353	1.061713	0.767382
H	-0.221053	2.115413	0.38529
H	-0.193402	1.102815	1.842794
N	-0.066116	-1.223271	-2.10777
H	-0.578233	-1.272809	-2.981504
H	0.90553	-1.054406	-2.35269
N	-0.435643	1.181048	-2.181185
H	0.461461	1.617829	-1.99097
H	-1.164528	1.821553	-1.884932
H	-3.369381	0.0	0.0
