16

C	0.0	0.0	0.0
C	-0.467162	0.015271	-1.483827
Cl	1.793062	0.0	0.0
H	0.33588	-0.459122	-2.060257
H	-0.27465	-0.972948	0.412271
C	-0.565396	1.098304	0.86668
H	-0.247588	0.972844	1.905201
H	-0.229328	2.072124	0.50796
H	-1.659923	1.02193	0.815971
N	-0.55804	1.402068	-1.936953
H	-0.77836	1.345969	-2.926769
H	-1.399398	1.782433	-1.509597
N	-1.688566	-0.71528	-1.757625
H	-2.461348	-0.406852	-1.121314
H	-1.542257	-1.702271	-1.561404
H	-3.647703	0.0	0.0
