16

C	0.0	0.0	0.0
C	-0.540382	-0.14865	-1.459559
Cl	1.799511	0.0	0.0
H	0.328086	-0.260228	-2.120577
H	-0.26874	-0.913692	0.528292
C	-0.50971	1.196624	0.770161
H	-1.602841	1.130968	0.784042
H	-0.126408	1.176846	1.794004
H	-0.196806	2.135438	0.306353
N	-1.353765	0.955976	-1.963732
H	-0.895671	1.847563	-1.801282
H	-2.222934	0.929926	-1.416189
N	-1.307634	-1.38563	-1.491639
H	-1.659675	-1.477043	-2.442649
H	-2.142458	-1.189149	-0.916538
H	-3.420185	0.0	0.0
