17

C	0.0	0.0	0.0
C	-0.529329	-0.035603	-1.4553
F	1.385005	0.0	0.0
H	-1.631423	-0.092278	-1.270006
N	-0.505464	1.148601	0.672314
H	-0.258813	1.990086	0.163237
H	-1.532819	1.00147	0.622719
C	-0.429196	-1.250023	0.747615
H	-0.134343	-1.101178	1.788653
H	0.079955	-2.13262	0.349198
H	-1.513385	-1.326388	0.667213
N	-0.049566	-1.240801	-2.19558
O	1.025506	-1.167543	-2.793803
O	-0.749707	-2.25081	-2.123222
C	-0.115537	1.151737	-2.188702
N	0.195427	2.133466	-2.754286
F	-2.823828	0.0	0.0
