17

C	0.0	0.0	0.0
C	-0.557168	0.232513	-1.40532
F	1.418137	0.0	0.0
H	-1.660703	0.117111	-1.203793
N	-0.496039	1.107678	0.76317
H	-0.206549	0.972003	1.726738
H	-1.525203	0.951039	0.71589
C	-0.37981	-1.362418	0.561903
H	-0.02272	-1.390447	1.594654
H	-1.468734	-1.421107	0.530778
H	0.083276	-2.18153	0.011229
N	-0.099193	-0.806279	-2.376411
O	-0.659318	-1.899102	-2.309274
O	0.79904	-0.523005	-3.16593
C	-0.237466	1.554989	-1.931089
N	-0.090855	2.608752	-2.4315
F	-2.842788	0.0	0.0
