17

C	0.0	0.0	0.0
C	-0.567811	0.342937	-1.380483
F	1.417779	0.0	0.0
H	-1.671162	0.18971	-1.195368
N	-0.498437	1.031994	0.854652
H	-0.222604	0.804187	1.804739
H	-1.52454	0.890971	0.772735
C	-0.388616	-1.404933	0.434277
H	-0.043732	-1.528522	1.465403
H	-1.475715	-1.451036	0.388084
H	0.081139	-2.171556	-0.181414
N	-0.076602	-0.60132	-2.427488
O	-0.65328	-1.684656	-2.502049
O	0.865617	-0.252716	-3.135899
C	-0.307268	1.71048	-1.805398
N	-0.240722	2.806347	-2.230123
F	-2.84522	0.0	0.0
