15

C	0.0	0.0	0.0
C	-0.502713	-0.393919	-1.379716
F	1.399774	0.0	0.0
H	-1.596276	-0.328964	-1.333867
H	-0.23067	-1.443359	-1.558284
C	-0.483323	1.364228	0.439392
H	-0.208525	2.083158	-0.33223
H	-0.013329	1.630041	1.389818
H	-1.571338	1.336827	0.551203
C	-0.369021	-1.042307	0.982742
N	-0.547327	-1.87265	1.793267
N	0.025736	0.529861	-2.379249
H	0.947116	0.23072	-2.669098
H	-0.580382	0.52826	-3.186787
Br	-3.968285	0.0	0.0
