15

C	0.0	0.0	0.0
C	-0.509059	-0.078926	-1.424119
F	1.400347	0.0	0.0
H	-1.600685	-0.132248	-1.351632
H	-0.244679	0.8705	-1.915161
C	-0.49511	1.233114	0.722506
H	-0.07942	1.265367	1.731709
H	-0.17049	2.122399	0.175382
H	-1.587185	1.200298	0.764513
C	-0.359547	-1.226791	0.745096
N	-0.57111	-2.192833	1.376408
N	0.018397	-1.261249	-2.093075
H	-0.61507	-1.552341	-2.824232
H	0.919863	-1.063913	-2.504332
Br	-3.967164	0.0	0.0
