15

C	0.0	0.0	0.0
C	-0.486022	-0.336181	-1.401582
F	1.400148	0.0	0.0
H	-1.579124	-0.285568	-1.37015
H	-0.193779	-1.372047	-1.626796
C	-0.486739	1.342855	0.491999
H	-0.044415	1.559445	1.467007
H	-0.184693	2.098676	-0.233055
H	-1.576622	1.312576	0.568037
C	-0.371531	-1.082128	0.936361
N	-0.558472	-1.945952	1.709063
N	0.045798	0.642856	-2.346224
H	-0.534577	0.658032	-3.17397
H	0.984181	0.380554	-2.619364
Br	-3.946392	0.0	0.0
