15

C	0.0	0.0	0.0
C	-0.507037	-0.403796	-1.375924
F	1.399776	0.0	0.0
H	-0.163999	-1.427697	-1.58065
H	-1.600166	-0.411543	-1.303239
C	-0.492354	1.36019	0.434769
H	-0.062674	1.614749	1.406059
H	-0.185228	2.086379	-0.316613
H	-1.583242	1.330364	0.50205
C	-0.365537	-1.039529	0.986774
N	-0.548083	-1.870214	1.795946
N	-0.069406	0.570491	-2.372846
H	-0.745321	0.60979	-3.123241
H	0.824536	0.297922	-2.759782
Br	-3.969775	0.0	0.0
