15

C	0.0	0.0	0.0
C	-0.394189	0.129377	-1.494974
F	1.391161	0.0	0.0
H	-0.251582	1.184325	-1.758863
H	0.370978	-0.441317	-2.032636
C	-0.562829	1.084006	0.884068
H	-1.656154	1.031602	0.852409
H	-0.231343	2.056627	0.51173
H	-0.225313	0.958223	1.91502
C	-0.381107	-1.342529	0.487956
N	-0.61034	-2.433996	0.854896
N	-1.695723	-0.305661	-1.924171
H	-2.462814	0.134508	-1.417067
H	-1.809999	-1.29881	-1.760925
Br	-4.45267	0.0	0.0
