15

C	0.0	0.0	0.0
C	-0.494927	-0.296524	-1.409391
F	1.384284	0.0	0.0
H	0.17128	0.270741	-2.068363
H	-1.512739	0.091039	-1.494731
C	-0.453093	1.366506	0.474686
H	-0.139892	2.112068	-0.263461
H	0.026673	1.599105	1.428193
H	-1.537643	1.375459	0.575267
C	-0.393348	-1.052613	0.959295
N	-0.577818	-1.912662	1.736168
N	-0.38258	-1.722536	-1.714597
H	-1.236649	-2.16326	-1.391297
H	-0.348972	-1.850091	-2.716739
Br	-3.82858	0.0	0.0
