15

C	0.0	0.0	0.0
C	-0.545617	-0.286078	-1.388691
F	1.388818	0.0	0.0
H	-1.594755	0.032895	-1.393021
H	0.033057	0.344773	-2.072874
C	-0.469313	1.35072	0.504323
H	-0.174064	2.115345	-0.219258
H	-1.556178	1.342729	0.604573
H	-0.000482	1.569388	1.465696
C	-0.385069	-1.074086	0.941851
N	-0.601248	-1.949008	1.695371
N	-0.36104	-1.69305	-1.760787
H	-1.107061	-2.215937	-1.31182
H	-0.522936	-1.773276	-2.758304
Br	-3.934414	0.0	0.0
