15

C	0.0	0.0	0.0
C	-0.470903	0.137944	-1.445105
F	1.404807	0.0	0.0
H	-1.562358	0.199616	-1.426837
H	-0.070935	1.091296	-1.809665
C	-0.495053	1.112344	0.892674
H	-0.175608	2.070407	0.473704
H	-0.07718	1.003147	1.895509
H	-1.58673	1.065592	0.92794
C	-0.369724	-1.32779	0.535446
N	-0.613288	-2.383265	0.987007
N	-0.046724	-0.934763	-2.333467
H	0.922023	-1.164536	-2.143199
H	-0.602684	-1.760334	-2.140998
Br	-3.920221	0.0	0.0
