14
Coordinates from ORCA-job run
  C   -0.48573035956359     -0.15593811293921      0.41852668172504
  C   0.10952087475174      1.00015157230029     -0.37440025809128
  Br  -2.36339295978570      0.43926613523868      0.92438869538934
  H   0.16003035202214      1.84799418303665      0.31471172670328
  H   -0.60469841515390      1.26216126031448     -1.15991520147499
  N   0.29227165504362     -0.60116161388826      1.47095384313312
  H   -0.14727095466119     -1.31014499045037      2.03937484897085
  H   0.70864669125622      0.14176925137756      2.01031901433194
  N   -0.75762049375662     -1.36193647617189     -0.47880544809409
  O   -0.99237293020626     -2.41905964412793      0.08921177628218
  O   -0.71830132134073     -1.18160936370304     -1.69166806088854
  N   1.44655704101814      0.67414824403315     -0.83792862310871
  H   1.38947127185392      0.14192035454146     -1.69617764700737
  H   1.96288954852222      1.52243920043841     -1.02659134787075
