16

C	-0.221734	-0.009125	-1.496567
C	0.0	0.0	0.0
F	-1.601494	-0.006782	-1.811655
H	1.093968	0.0	0.0
H	-0.397448	-0.91464	0.463158
N	0.355591	1.1793	-2.096789
H	1.346345	1.107062	-1.851895
H	0.003743	1.941243	-1.517526
C	0.425778	-1.238401	-2.092491
H	1.458101	-1.255541	-1.729412
H	0.394551	-1.183214	-3.183103
H	-0.093053	-2.1409	-1.757318
N	-0.496721	1.238028	0.611963
H	0.188956	1.541031	1.289349
H	-1.368141	1.080299	1.096294
F	2.747889	0.0	0.0
