16

C	-0.194859	-0.009568	-1.512852
C	0.0	0.0	0.0
F	-0.037463	1.36981	-1.939394
H	1.102442	0.0	0.0
H	-0.377973	-0.944424	0.405276
N	0.85414	-0.807366	-2.034806
H	1.721782	-0.586595	-1.514326
H	0.970552	-0.637785	-3.024348
C	-1.56979	-0.385802	-2.024828
H	-2.313725	0.259926	-1.550457
H	-1.777211	-1.427636	-1.775234
H	-1.62842	-0.262105	-3.112426
N	-0.69473	1.128444	0.638563
H	-0.291411	1.958744	0.219055
H	-0.388524	1.138523	1.606174
F	2.796047	0.0	0.0
