16

C	-0.355402	0.062226	-1.471515
C	0.0	0.0	0.0
F	-0.00913	-1.219735	-2.003926
H	1.092757	0.0	0.0
H	-0.407974	-0.931022	0.428247
N	-1.755924	0.276438	-1.717758
H	-2.259136	-0.513491	-1.325767
H	-1.913378	0.267661	-2.721707
C	0.53023	1.067347	-2.171414
H	0.239836	2.071698	-1.863937
H	0.450067	0.966401	-3.259589
H	1.55096	0.866044	-1.828758
N	-0.421893	1.228302	0.678338
H	-1.350948	1.141704	1.066377
H	0.2343	1.397629	1.428116
F	2.762394	0.0	0.0
