16

C	-0.108471	0.037115	-1.513385
C	0.0	0.0	0.0
F	-1.449119	0.184217	-1.941296
H	1.093974	0.0	0.0
H	-0.420928	-0.926201	0.418691
N	0.645	1.163278	-2.032542
H	1.584603	1.00057	-1.651749
H	0.300207	1.962645	-1.50426
C	0.462758	-1.240458	-2.087338
H	1.475453	-1.331597	-1.686368
H	-0.135137	-2.102851	-1.781679
H	0.483847	-1.176811	-3.176778
N	-0.510982	1.231038	0.604058
H	0.029652	1.424521	1.436518
H	-1.4797	1.119361	0.873827
F	2.75597	0.0	0.0
