16

C	-0.370771	-0.120666	-1.460341
C	0.0	0.0	0.0
F	-1.742562	-0.572511	-1.569797
H	1.094512	0.0	0.0
H	-0.403396	0.942408	0.408883
N	-0.268178	1.145138	-2.110114
H	-0.872203	1.808506	-1.639831
H	-0.573373	1.053363	-3.072304
C	0.512216	-1.148258	-2.127474
H	0.371395	-1.156515	-3.214726
H	1.541757	-0.897371	-1.852109
H	0.264825	-2.127968	-1.718496
N	-0.425898	-1.194919	0.733632
H	-1.362479	-1.088278	1.099215
H	0.217055	-1.319169	1.504462
F	2.755226	0.0	0.0
