16

C	-0.131092	0.077297	-1.507552
C	0.0	0.0	0.0
F	-1.453081	0.372181	-1.937477
H	1.098662	0.0	0.0
H	-0.368432	0.944179	0.422209
N	0.723334	1.178335	-1.902637
H	0.908865	1.109829	-2.897899
H	1.611638	1.015502	-1.40664
C	0.263005	-1.23987	-2.147882
H	0.234972	-1.1457	-3.239445
H	1.28384	-1.445693	-1.815727
H	-0.395609	-2.046185	-1.824817
N	-0.565182	-1.204249	0.603739
H	0.033089	-1.472098	1.375714
H	-1.485388	-1.008176	0.979494
F	2.757864	0.0	0.0
