16

C	-0.254622	0.039529	-1.505037
C	0.0	0.0	0.0
F	-0.108706	1.386682	-1.887638
H	1.100316	0.0	0.0
H	-0.446688	0.867626	0.501508
N	0.773313	-0.703595	-2.2036
H	1.644471	-0.516617	-1.684005
H	0.567981	-1.684181	-2.039787
C	-1.640451	-0.383004	-1.946612
H	-1.706168	-0.352511	-3.036912
H	-1.851478	-1.391326	-1.5902
H	-2.378391	0.30685	-1.525067
N	-0.421466	-1.302717	0.544537
H	-1.258357	-1.210041	1.101933
H	0.319254	-1.628248	1.149519
F	2.744371	0.0	0.0
