16

C	-0.169816	-0.039796	-1.533359
C	0.0	0.0	0.0
F	-0.150295	1.309625	-1.97273
H	1.096743	0.0	0.0
H	-0.354369	-0.954843	0.410422
N	0.968073	-0.685149	-2.143249
H	1.791368	-0.487154	-1.538971
H	0.820392	-1.686862	-2.131163
C	-1.475516	-0.609291	-2.052542
H	-1.585661	-1.65343	-1.745999
H	-2.320631	-0.043329	-1.653584
H	-1.491923	-0.549125	-3.143855
N	-0.585642	1.123344	0.722801
H	-1.494942	1.34582	0.32973
H	0.005695	1.922356	0.529614
F	2.776274	0.0	0.0
