17
Coordinates from ORCA-job run
  C   -0.22981929255677      0.50256738456603     -0.53355911338965
  C   0.89001140040375     -0.14790778733420      0.28036266837669
  F   0.34091580199007      0.77162095025538     -1.75392588223466
  H   1.69301385064088      0.57155315260650      0.43500864392128
  N   -0.47603049419087      1.89189541473978      0.08046591019229
  O   -1.63380501622567      2.27248442034490      0.17473544940699
  O   0.53206289250148      2.52996587323106      0.36434093541023
  C   -1.51217813843351     -0.24721280568029     -0.71801546966251
  H   -2.16131111597757      0.34062048864240     -1.36530247663958
  H   -1.29903506380116     -1.20600766665806     -1.18649152469859
  H   -2.01637652949379     -0.40345441044089      0.23305858821842
  N   1.47125006583722     -1.31056690232565     -0.45960100774066
  O   0.73727807982065     -2.27790141339390     -0.62975633963194
  O   2.63308681761237     -1.18396231113750     -0.83010711009039
  N   0.43873850506281     -0.61125057096639      1.63287812435056
  O   1.03642031322423     -1.55605661549340      2.12650719342815
  O   -0.44622207641412      0.06361279904422      2.14940141078337
