17
Coordinates from ORCA-job run
  C   -0.23447459762016      0.27906384668028     -0.69043320723379
  C   0.56699865040784     -0.71910698271964      0.14415134007097
  F   0.38186366303278      0.29755575306428     -1.90489050861852
  H   0.48374084036490     -1.70337861285420     -0.31634420486982
  N   -0.14711858627332      1.67919059865678     -0.10271689354217
  O   0.14127788957761      2.59371769451047     -0.85291482426608
  O   -0.45641073348221      1.74192020292004      1.08181155546279
  C   -1.69396227919511     -0.05100556121461     -0.86384691998130
  H   -1.79846209916851     -1.05296768471939     -1.28144613394176
  H   -2.22624445833356      0.00314612250841      0.08252439261569
  H   -2.11124484656186      0.67226622889935     -1.56764462033774
  N   0.10106013534901     -0.87926142748455      1.56922912386743
  O   -0.99273164813449     -1.41711258008683      1.68145744484370
  O   0.84571213626201     -0.50449903398581      2.46074934293303
  N   2.02619010661851     -0.38584036650251      0.17062206469570
  O   2.77813602154427     -1.35397541484972      0.20424694096812
  O   2.33466980561230      0.79928721717764      0.18444510733375
