17
Coordinates from ORCA-job run
  C   -0.15331405293086      0.53934296028363     -0.58676458791637
  C   0.86501954516225     -0.15327364019880      0.32343867907177
  F   0.54240558557876      0.88793808259270     -1.70024524981619
  H   1.67448751361813      0.53613096546305      0.56245355090269
  N   -0.48347505219194      1.84243319402588      0.15591849191269
  O   -1.27717762906337      1.72255028376493      1.08344931544364
  O   0.07702019552332      2.86140594745357     -0.21830315062633
  C   -1.43873892710927     -0.14992827474869     -0.94710338134189
  H   -1.22024568394252     -1.05304002078892     -1.50997930782207
  H   -2.01327586697618     -0.39763417065650     -0.05880334803669
  H   -2.01723722053803      0.53527652934493     -1.57025721480051
  N   1.51791498908783     -1.35563120237010     -0.30459424545684
  O   0.95681242826708     -1.92174356067890     -1.23254876623755
  O   2.57847438353581     -1.67198988101124      0.22436977955794
  N   0.27203911819893     -0.62535091434291      1.61663666320737
  O   -0.44545481044028     -1.61754072416506      1.54963017792103
  O   0.56574548422034      0.02305442603244      2.61370259403734
