17
Coordinates from ORCA-job run
  C   -0.07717236512841      0.61885217078257     -0.50272391405533
  C   0.88168049942676     -0.22913815458948      0.33904756901899
  F   0.67790366554209      1.16163248304238     -1.51049294120727
  H   1.83030218239252      0.28322781548208      0.47494333129537
  N   -0.46618263796817      1.82569641056896      0.35751879118994
  O   -1.56265700407123      2.32981336372152      0.15967336322203
  O   0.39854536491412      2.22424680756184      1.13308770659617
  C   -1.27364432569494     -0.07086200265202     -1.08000127408805
  H   -1.86623310588584      0.66562231914748     -1.61999176038986
  H   -1.87578059305325     -0.52084205147062     -0.29384001914759
  H   -0.94114653325205     -0.83599627644142     -1.78247864028899
  N   1.13926287347107     -1.51516694480819     -0.38951070740674
  O   2.00304501612999     -1.45509294651642     -1.25685222244504
  O   0.43255885328155     -2.47367012977927     -0.09893828942388
  N   0.35361367326900     -0.57793091508601      1.69372414321598
  O   1.17470385186913     -1.07926263847179      2.45210431913278
  O   -0.82979941524234     -0.35212931049159      1.92373054478151
