17
Coordinates from ORCA-job run
  C   -0.27219448313864      0.29378575536423     -0.66997811156263
  C   0.56119759088713     -0.73119433130803      0.09795243677264
  F   0.26772434213356      0.32086991071915     -1.92026381706597
  H   0.43041058432526     -1.70688955888290     -0.36976914010784
  N   -0.12249108389090      1.68252693953762     -0.06811402411905
  O   0.13418571364404      2.60394722259328     -0.82145677685925
  O   -0.35449532807322      1.73167589176466      1.13459289098244
  C   -1.74544320180168     -0.00774996030946     -0.75693021218208
  H   -2.21640185503652      0.04010590687135      0.22175448470199
  H   -1.89402522852459     -1.00073347938722     -1.18257195381065
  H   -2.19257886588264      0.73393648944339     -1.42214329779555
  N   0.18306352169513     -0.90444735314378      1.54769688930631
  O   0.99097028589824     -0.55860476356070      2.39477624444946
  O   -0.91233795033278     -1.42171285901200      1.72217806170559
  N   2.02510929821551     -0.42468045173487      0.03615766761529
  O   2.75950506713289     -1.40629779071826      0.00565401226032
  O   2.35580159274922      0.75446243176354      0.05046464570898
