19

C	0.0	0.0	0.0
C	-0.351981	-0.030633	-1.512108
Cl	1.800385	0.0	0.0
H	0.169759	0.807434	-1.978278
C	-0.50282	1.322892	0.557881
H	-1.59779	1.307141	0.564733
H	-0.144489	1.452818	1.581753
H	-0.149792	2.164731	-0.043401
C	-0.521267	-1.158887	0.827712
H	-0.250753	-0.993898	1.873397
H	-1.613249	-1.18318	0.759353
H	-0.113224	-2.111762	0.498597
N	-1.717857	-0.021745	-1.899134
H	-2.091445	0.916206	-1.918467
H	-2.342257	-0.543981	-1.288951
N	0.27751	-1.235799	-2.185443
O	1.119431	-1.025132	-3.057185
O	-0.133699	-2.344772	-1.854997
Br	-4.392632	0.0	0.0
