19

C	0.0	0.0	0.0
C	-0.338953	-0.102976	-1.518188
Cl	1.800202	0.0	0.0
H	0.046932	0.799657	-1.995851
C	-0.522424	1.331884	0.507956
H	-0.122506	2.163095	-0.078401
H	-1.615319	1.322574	0.447724
H	-0.233381	1.471954	1.552087
C	-0.524395	-1.141821	0.849754
H	-0.176252	-2.10678	0.487159
H	-0.193048	-1.003532	1.881883
H	-1.618713	-1.114024	0.839088
N	-1.686788	-0.321865	-1.91014
H	-2.21755	0.538236	-1.92915
H	-2.199925	-0.929199	-1.281829
N	0.477656	-1.204443	-2.178661
O	1.268775	-0.874462	-3.059242
O	0.258824	-2.359731	-1.823847
Br	-4.350145	0.0	0.0
