19

C	0.0	0.0	0.0
C	-0.536508	-0.012717	-1.436189
Cl	1.801376	0.0	0.0
H	-1.628381	0.071274	-1.343842
C	-0.464334	1.21961	0.780191
H	-0.13786	1.118292	1.817881
H	-1.557074	1.251797	0.74469
H	-0.058449	2.146382	0.376965
C	-0.474438	-1.271447	0.688296
H	-0.120164	-1.274239	1.722036
H	-1.568772	-1.269813	0.679711
H	-0.106138	-2.154915	0.17018
N	-0.165131	-1.179495	-2.157263
H	0.811496	-1.125714	-2.418768
H	-0.725858	-1.260604	-2.994732
N	-0.09872	1.263123	-2.168273
O	-0.713228	2.299392	-1.928793
O	0.841786	1.171551	-2.96008
Br	-3.974454	0.0	0.0
