16

C	0.0	0.0	0.0
C	-0.567998	-0.02447	-1.43799
F	1.343572	0.0	0.0
H	-1.485248	0.571244	-1.414568
N	-0.279066	1.41264	0.622116
O	-0.320636	2.372438	-0.138446
O	-0.350091	1.461345	1.846091
N	-0.499478	-1.030799	0.79082
H	-0.266668	-0.841092	1.759993
H	-1.521819	-1.01667	0.697888
N	-0.935489	-1.342872	-1.924395
H	-0.32572	-2.040585	-1.517701
H	-1.875403	-1.515532	-1.579321
C	0.384336	0.612474	-2.360639
N	1.119159	1.121058	-3.123133
Br	-3.630956	0.0	0.0
