16

C	0.0	0.0	0.0
C	-0.56377	-0.070368	-1.436489
F	1.38027	0.0	0.0
H	-1.440106	0.583512	-1.458335
N	-0.236654	1.441085	0.567457
O	-0.153501	1.550395	1.787886
O	-0.39872	2.360643	-0.226186
N	-0.49075	-0.993054	0.835411
H	-1.513566	-0.98272	0.761798
H	-0.225701	-0.77917	1.790917
N	-1.011408	-1.385932	-1.859513
H	-1.965045	-1.475847	-1.517849
H	-0.448674	-2.097862	-1.409388
C	0.431941	0.458259	-2.381359
N	1.203142	0.86934	-3.165336
Br	-3.638281	0.0	0.0
