16

C	0.0	0.0	0.0
C	-0.298463	-0.021644	-1.524445
F	1.376065	0.0	0.0
H	0.504831	-0.696277	-1.839951
N	-0.318757	1.326202	0.740015
O	-0.90927	2.238555	0.179851
O	0.060798	1.332115	1.910148
N	-0.524959	-1.104166	0.660683
H	-1.54861	-1.081617	0.542846
H	-0.301432	-1.042932	1.648328
N	-0.024103	1.26046	-2.159971
H	-0.80047	1.884781	-1.979276
H	0.030254	1.10056	-3.159108
C	-1.497517	-0.704031	-2.059269
N	-2.160161	-1.2941	-2.833955
Br	-3.639819	0.0	0.0
