14
Coordinates from ORCA-job run
  C   0.60072106222396      0.42153588209236      0.34758689225672
  C   -0.59832708756581     -0.45142223461790     -0.06034988497608
  H   0.28589816076303      1.44474179513032      0.56389007705433
  H   -0.19761447770613     -1.43494343642853     -0.32145015712837
  N   1.50826244567496      0.50855699435284     -0.85941441381085
  O   1.90837203140430     -0.55854437585128     -1.30558077918225
  O   1.75136965296318      1.63028746068911     -1.28144646620119
  C   1.34215099827730     -0.14636619124538      1.46663027433642
  N   1.92306165789951     -0.61746294150337      2.37222726451012
  N   -1.19935574432511      0.13251447490205     -1.24248562679617
  H   -1.72902979442652     -0.55995751254576     -1.75521947587810
  H   -1.82031261415989      0.89537723647021     -1.00084232833312
  C   -1.50336807964241     -0.59610763270173      1.09375801667580
  N   -2.27082821138036     -0.66920951874292      1.98069660747274
