14
Coordinates from ORCA-job run
  C   0.65898858822618      0.29484894410947      0.57876155647281
  C   -0.73845596210610     -0.30411417018679      0.29939084122649
  H   0.63058587836706      0.95631871566449      1.44828936910554
  H   -0.93639220713457     -1.00569644334140      1.12542119914426
  N   1.05882427339182      1.15675985324981     -0.59991009178796
  O   0.44284358744125      2.21100521242612     -0.68727975468314
  O   1.91974871705386      0.73169210348632     -1.35594681102617
  C   1.62395358488250     -0.78039113121088      0.77332591255426
  N   2.33894002584267     -1.69234580432363      0.96436307724933
  N   -0.72428389587509     -0.90636167566670     -1.02268370099762
  H   -1.66369893890374     -1.13238884138880     -1.32364865908541
  H   -0.17400714858056     -1.75794054457834     -1.01670800292334
  C   -1.77690075773343      0.72999310246516      0.36693464890430
  N   -2.66014574487185      1.49862067929518      0.44969041584664
