14
Coordinates from ORCA-job run
  C   0.54915589274028      0.32553466684775      0.43352306733806
  C   -0.67008991865903     -0.50079891078165     -0.07433951331152
  H   0.22515207786567      1.27396390690571      0.86720055272385
  H   -0.27679700575550     -1.46036208366596     -0.42422142583662
  N   1.35793003255779      0.67426843063488     -0.78842611199766
  O   1.82313838160574     -0.27146890410976     -1.41518419846553
  O   1.42384081604872      1.86187523752631     -1.08530400778357
  C   1.37070032200033     -0.43063351253179      1.36770868740705
  N   2.00375512896660     -1.06688004787419      2.12564895902513
  N   -1.41418152999748      0.10144467096229     -1.15009127737109
  H   -0.89853977938144      0.08417322981024     -2.01947068738633
  H   -1.71576086539821      1.04381886056559     -0.93931197253839
  C   -1.54327029468887     -0.74183704563788      1.08150897517561
  N   -2.23403325790460     -0.89309849865154      2.01875895302101
