14
Coordinates from ORCA-job run
  C   0.67450522183733      0.28782494278441      0.56388213279167
  C   -0.73635798186601     -0.29343196659863      0.31604438815583
  H   0.67238157631041      0.95057116375644      1.43290607376186
  H   -0.92587134873802     -0.98921467287233      1.14894638232601
  N   1.05964996745676      1.14308211146106     -0.62443348072900
  O   1.89723945293938      0.70499206469923     -1.39910196759040
  O   0.45663834634367      2.20564558914236     -0.69955703150938
  C   1.62984710378147     -0.79903138933909      0.73969256840391
  N   2.33818409799036     -1.71934878758339      0.91452565186645
  N   -0.75839506588446     -0.90016710925678     -1.00362812563433
  H   -1.70628821007958     -1.12422112404420     -1.27870915680314
  H   -0.21044489934544     -1.75334307076310     -1.00936697873361
  C   -1.75931557871470      0.75473062494879      0.40130649299559
  N   -2.63277268203116      1.53291162366520      0.49849305069853
