14
Coordinates from ORCA-job run
  C   0.73406558368398      0.05121216269660      0.40276172116711
  C   -0.79059654039805     -0.04046613973559      0.18777857434942
  H   0.95395044973595     -0.29417608452797      1.41762847977189
  H   -1.26182227762155      0.67530282907321      0.86631558590422
  N   1.22135402341292      1.48908949829323      0.34611192235790
  O   2.37669564036751      1.67742554986265     -0.00736493468197
  O   0.42150579350408      2.33846657249395      0.72544429135198
  C   1.45953990812594     -0.76427774116713     -0.56131407239979
  N   2.01816233605888     -1.44781378943544     -1.33553931582190
  N   -1.18754889931176     -1.41640313286860      0.46536602639669
  H   -1.67318952625842     -1.83745884829193     -0.31384088879937
  H   -1.78390981975357     -1.45731031934981      1.27998380867171
  C   -1.11732644969441      0.37004185146713     -1.18208060257069
  N   -1.37088022185148      0.65736759148971     -2.29225059569722
