15

C	0.0	0.0	0.0
C	-0.608851	-0.043995	-1.384752
Cl	1.763989	0.0	0.0
H	-1.718724	-0.118658	-1.119216
H	-0.416026	0.924432	-1.858079
C	-0.51119	1.186197	0.787911
H	-1.606304	1.084354	0.750176
H	-0.168883	2.104301	0.303807
H	-0.120796	1.146736	1.804036
N	-0.404492	-1.2779	0.757659
O	-0.876387	-2.20216	0.124421
O	-0.173344	-1.283663	1.968718
C	-0.106519	-1.095899	-2.246897
N	0.29698	-1.920467	-2.986612
F	-2.863446	0.0	0.0
