15

C	0.0	0.0	0.0
C	-0.624041	-0.097897	-1.378189
Cl	1.765044	0.0	0.0
H	-0.350483	-1.036653	-1.859991
H	-1.740351	-0.082884	-1.083192
C	-0.492906	1.209599	0.760738
H	-0.06832	1.229288	1.763077
H	-1.58508	1.104351	0.768789
H	-0.184239	2.105629	0.217808
N	-0.39152	-1.273582	0.759969
O	-0.476996	-2.311277	0.112193
O	-0.507632	-1.189184	1.975292
C	-0.255966	1.025428	-2.21491
N	0.019217	1.93258	-2.910577
F	-2.857194	0.0	0.0
