15

C	0.0	0.0	0.0
C	-0.636691	-0.117	-1.369662
Cl	1.760884	0.0	0.0
H	-1.739849	-0.220968	-1.072937
H	-0.52192	0.84816	-1.869798
C	-0.519812	1.230451	0.711455
H	-1.613546	1.110887	0.687277
H	-0.124324	1.274557	1.724649
H	-0.199944	2.116717	0.157635
N	-0.394107	-1.228278	0.836488
O	-0.774332	-2.228444	0.242644
O	-0.250128	-1.132675	2.050768
C	-0.118745	-1.159012	-2.235368
N	0.273554	-1.958766	-3.001616
F	-2.880723	0.0	0.0
