15

C	0.0	0.0	0.0
C	-0.353152	0.002588	-1.493127
Cl	1.779225	0.0	0.0
H	0.150406	-0.855243	-1.945612
H	0.136287	0.891798	-1.905748
C	-0.418657	1.212954	0.800772
H	-0.070447	2.104158	0.270748
H	-1.507227	1.16532	0.842294
H	0.046377	1.186218	1.785167
N	-0.443254	-1.283294	0.659495
O	-0.548111	-1.275876	1.8792
O	-0.562883	-2.268471	-0.059021
C	-1.74401	0.003245	-1.973721
N	-2.534543	0.026104	-2.851869
F	-2.545057	0.0	0.0
