15

C	0.0	0.0	0.0
C	-0.390889	-0.263564	-1.455456
Cl	1.779248	0.0	0.0
H	-0.084337	0.629527	-2.010949
H	0.230576	-1.082958	-1.82278
C	-0.428429	1.324314	0.593568
H	-1.519513	1.292878	0.613159
H	0.002546	1.439073	1.587727
H	-0.051721	2.121563	-0.052747
N	-0.421951	-1.163803	0.872468
O	-0.511843	-2.257145	0.327183
O	-0.542971	-0.953606	2.072197
C	-1.77993	-0.584073	-1.829797
N	-2.545658	-0.960935	-2.647649
F	-2.579733	0.0	0.0
