15

C	0.0	0.0	0.0
C	-0.593067	0.019416	-1.396461
Cl	1.765792	0.0	0.0
H	-1.707599	-0.012034	-1.136553
H	-0.266394	-0.860618	-1.952545
C	-0.488221	1.141405	0.859212
H	-0.122459	2.075742	0.427432
H	-0.10414	1.040624	1.873667
H	-1.582801	1.069098	0.821893
N	-0.404432	-1.338899	0.625026
O	-0.773858	-1.346733	1.79107
O	-0.263023	-2.333425	-0.082405
C	-0.223562	1.226904	-2.10952
N	0.06267	2.20413	-2.697079
F	-2.831155	0.0	0.0
