15

C	0.0	0.0	0.0
C	-0.618126	0.039146	-1.382639
Cl	1.777101	0.0	0.0
H	-0.343422	-0.846454	-1.955034
H	-1.733147	0.023853	-1.092438
C	-0.488778	1.129796	0.876237
H	-1.581844	1.02758	0.871103
H	-0.175147	2.074471	0.426135
H	-0.066908	1.047437	1.876628
N	-0.39042	-1.341491	0.629283
O	-0.479673	-2.308313	-0.119235
O	-0.504223	-1.380065	1.847043
C	-0.250064	1.24117	-2.102751
N	0.027743	2.211012	-2.70683
F	-2.850114	0.0	0.0
