16

C	-0.539091	0.012884	-1.408894
C	0.0	0.0	0.0
Cl	-2.487901	-0.203643	-1.271963
H	1.091485	0.0	0.0
N	-0.216752	1.227396	-2.002596
H	-0.372878	1.979136	-1.340609
H	-0.650454	1.367382	-2.903046
C	-0.162823	-1.093692	-2.287876
N	0.11563	-1.878588	-3.117087
N	-0.376242	-1.21529	0.721838
O	-0.626604	-1.118422	1.931775
O	-0.299655	-2.283998	0.107765
N	-0.33831	1.211531	0.677982
H	0.456788	1.44962	1.266327
H	-1.150375	1.07522	1.266784
H	2.46875	0.0	0.0
