16

C	-0.416483	0.043779	-1.465348
C	0.0	0.0	0.0
Cl	-2.24909	-0.005563	-1.556844
H	1.095987	0.0	0.0
N	0.025927	1.274768	-2.075194
H	1.04478	1.208595	-2.114262
H	-0.18293	1.99168	-1.382009
C	0.077304	-1.066491	-2.287785
N	0.466872	-1.861004	-3.059986
N	-0.41963	-1.238362	0.67892
O	-0.806948	-1.160842	1.85289
O	-0.268842	-2.298267	0.064927
N	-0.401471	1.18802	0.678905
H	0.319928	1.409299	1.358649
H	-1.27448	1.042861	1.171093
H	2.548029	0.0	0.0
