16

C	-0.365769	0.053614	-1.478382
C	0.0	0.0	0.0
Cl	-2.183	0.199704	-1.644375
H	1.105579	0.0	0.0
N	0.237025	1.219343	-2.084771
H	1.245769	1.058365	-2.014339
H	0.037392	1.974485	-1.431191
C	0.037648	-1.115562	-2.269001
N	0.362496	-1.962958	-3.014865
N	-0.476733	-1.199904	0.693507
O	-0.438656	-2.273285	0.081044
O	-0.809753	-1.089836	1.882533
N	-0.350776	1.220085	0.653152
H	-1.228071	1.129284	1.148282
H	0.382582	1.429243	1.323541
H	2.526381	0.0	0.0
