16

C	-0.500617	-0.056918	-1.440126
C	0.0	0.0	0.0
Cl	0.182685	-1.547558	-2.28377
H	1.105729	0.0	0.0
N	-1.920516	0.044934	-1.54446
H	-2.319601	-0.753995	-1.062834
H	-2.21	0.049934	-2.515545
C	0.091376	1.077016	-2.169175
N	0.467355	2.002062	-2.786623
N	-0.487756	-1.127243	0.811822
O	0.011875	-1.238194	1.930021
O	-1.330804	-1.922652	0.347858
N	-0.329772	1.234743	0.648182
H	0.495678	1.826458	0.632135
H	-1.119159	1.693435	0.213475
H	2.529496	0.0	0.0
