10
Coordinates from ORCA-job run
  C   0.50201998343047     -0.72673414143749      0.23951111549579
  C   -0.70587872726404      0.08823975511450      0.69475588012537
  F   0.11694191969208     -1.57932920517174     -0.77155782767403
  H   -0.41759350693489      0.73690256994815      1.52694580404195
  H   0.86740045901805     -1.33667319462149      1.07073268051097
  H   -1.47135341556300     -0.60503933284859      1.05320669565482
  C   1.59146155445575      0.13848259986714     -0.23592179675182
  N   2.46531037855912      0.84011151420463     -0.58373122314787
  C   -1.25467920430301      0.89653932711331     -0.39183181401072
  N   -1.69362944109053      1.54750010783158     -1.26310951424446
