11
Coordinates from ORCA-job run
  C   0.38876125224236      0.15505272848752     -0.49053841540904
  C   -0.91741212802641     -0.03226413955454      0.29661614080922
  F   0.36334768359967     -0.67475884840584     -1.58748071384207
  H   -0.93802440808994      0.66011890562975      1.14287328397029
  H   -1.74699504040367      0.21495102243659     -0.37176068380654
  C   0.48665212940646      1.55193952123402     -0.94945548050565
  N   0.52607305524789      2.67103277410116     -1.30337671803740
  C   1.55966827967524     -0.17893897210437      0.33739433268798
  N   2.48071063973819     -0.44363000254630      1.01644587972124
  C   -1.04919287545782     -1.40841967358605      0.76553192175235
  N   -1.15358858793197     -2.51408331569193      1.14375045265961
