11
Coordinates from ORCA-job run
  C   0.45581813380933      0.13329402131250     -0.43705300391253
  C   -0.94962409506952     -0.04627114444326      0.15706214370965
  F   0.62149376550848     -0.77581068708532     -1.45608013971669
  H   -1.11707614812363      0.70332806350919      0.93555307997549
  H   -1.67390134077662      0.12150399910755     -0.64503973502728
  C   0.58370516555561      1.49519916161122     -0.98513460166752
  N   0.64540846601666      2.58658403557388     -1.41443869481585
  C   1.49496727700748     -0.09150067629753      0.58157513983429
  N   2.30633970107455     -0.26750590944999      1.41236066299268
  C   -1.11594789228140     -1.38940542738612      0.70427797089335
  N   -1.25018303272094     -2.46841543645213      1.14491717773441
