11
Coordinates from ORCA-job run
  C   0.45987223106500      0.09919254818126     -0.44150034292840
  C   -0.41440620081222     -0.65935941134384      0.56865736335541
  F   0.24474578039985     -0.43020965167225     -1.69302411658804
  H   -0.21388027472981     -0.28901542061499      1.57776691209210
  H   -0.13144393079588     -1.71487078963180      0.52594731934243
  C   0.12580693598266      1.53315455116381     -0.46140630950730
  N   -0.15153714208049      2.67445576868491     -0.45161236551828
  C   1.87956653831639     -0.07399864799575     -0.08635122773182
  N   3.00004932226480     -0.23818273152911      0.22506947197066
  C   -1.83045367697339     -0.51136168044322      0.24682990359228
  N   -2.96831958263692     -0.39080453479901     -0.01237660807904
