11
Coordinates from ORCA-job run
  C   0.44319956177353      0.09228571123061     -0.45920401012933
  C   -0.94331385816539     -0.08395716016431      0.17867980594748
  F   0.66403013942927     -0.95382636818509     -1.32473871043541
  H   -1.15848815715628      0.76705072598796      0.83098978229443
  H   -1.68096580342996     -0.09520490920462     -0.62874434981482
  C   0.47461824950157      1.35547861977883     -1.21744980052483
  N   0.46025527146425      2.36591127315474     -1.81576297306916
  C   1.50184205788055      0.10111390212974      0.56405049605121
  N   2.32940168593386      0.11370108299623      1.39749570954925
  C   -1.01493186821589     -1.33114468883807      0.93410802705901
  N   -1.07564727901550     -2.33240818888600      1.54257602307217
