11
Coordinates from ORCA-job run
  C   0.29244314905593      0.57534103254596     -0.03028015531971
  C   -0.79529628326801     -0.49040380968758     -0.23597050888862
  F   -0.21398871334299      1.57036515322970      0.77322439968307
  H   -1.65547142896647     -0.00251574033317     -0.70304294283801
  H   -0.42650093959938     -1.26431011829700     -0.91494234277877
  C   1.48389109773015     -0.00308288341106      0.61293790229337
  N   2.42298339950073     -0.49337508339415      1.12004695371486
  C   0.66222211674953      1.15464401494326     -1.33374135980029
  N   0.92863011173133      1.59691738435144     -2.38854440037694
  C   -1.19094609551325     -1.08233346906495      1.03855466209334
  N   -1.50896641407758     -1.56024648088245      2.06175779221771
