11
Coordinates from ORCA-job run
  C   0.45086317099687      0.15269250638476     -0.43580150960346
  C   -0.94759525370270     -0.08470878852903      0.15468445665925
  F   0.65559759693489     -0.74770714743898     -1.45559717625851
  H   -1.14746599281249      0.65659743732334      0.93346812517205
  H   -1.67623258755317      0.05386759469766     -0.64904370198991
  C   0.52568803188774      1.51911051614627     -0.98216841198707
  N   0.54704895399569      2.61196948986975     -1.41169075709141
  C   1.49526534754093     -0.03196236696469      0.58544606753222
  N   2.30820678432936     -0.17762347994201      1.42059421531093
  C   -1.05992289860609     -1.43423637296536      0.70011874283061
  N   -1.15145315301105     -2.51799938858170      1.13998994942529
