11
Coordinates from ORCA-job run
  C   0.49908965253718      0.09337024490777     -0.39751907660030
  C   -0.95143872041869     -0.14958511666199      0.04668181545572
  F   0.92457376244793     -0.99625193957648     -1.12202280162243
  H   -1.55618284031525     -0.28889997157409     -0.85381019958776
  H   -1.32410391102466      0.72942834518398      0.58012975957779
  C   0.55365490338711      1.28928449190445     -1.25646643336985
  N   0.55511659150400      2.24372807299504     -1.94081331785645
  C   1.38661191859792      0.27351381739058      0.76332138082485
  N   2.07466552928606      0.42006311113388      1.70394379191504
  C   -1.04413829919604     -1.33325253383258      0.89621574522127
  N   -1.11884858680558     -2.28339852187054      1.58033933604211
