11
Coordinates from ORCA-job run
  C   0.43262944757805      0.05848371240154     -0.47533523952825
  C   -0.41473948788030     -0.61495745004889      0.61521016379814
  F   0.08947184231652     -0.48090320326263     -1.69332650173189
  H   -0.20659409393544     -1.68815603977160      0.58244678651529
  H   -0.11805629521767     -0.23554385962810      1.59707940984289
  C   0.19595736721258      1.51123774867042     -0.50926615169658
  N   -0.00361134746601      2.66871240853534     -0.51281197612223
  C   1.85909599031622     -0.20759559261177     -0.21920037361600
  N   2.98515899893994     -0.44675321893411      0.01294565695655
  C   -1.83757645861168     -0.37763642895788      0.39019966660604
  N   -2.98173596325221     -0.18788807639233      0.21305855897606
