11
Coordinates from ORCA-job run
  C   0.43412515224267      0.16000165512783     -0.45067380267703
  C   -0.93800526700783     -0.11201850186878      0.18508632981311
  F   0.63780611643344     -0.75004939908188     -1.46209001759592
  H   -1.13765793518630      0.63391473750856      0.95942853853834
  H   -1.69373001884992     -0.00727159565577     -0.59852256742935
  C   0.44692011602637      1.51871901928494     -1.02086311571730
  N   0.41326618624049      2.60321335573101     -1.47043904900817
  C   1.51331843690898      0.02608051117837      0.54178259245690
  N   2.35270102395733     -0.08001924519519      1.35637526443292
  C   -0.99226263496999     -1.45646295729833      0.75145498921251
  N   -1.03648117579525     -2.53610757973075      1.20846083797400
