11
Coordinates from ORCA-job run
  C   0.52388821214833      0.03653946677042     -0.37235627965969
  C   -0.52164259967262     -0.57202097834526      0.57491424650400
  F   0.47452185937371     -0.63655115869874     -1.57102532950183
  H   -0.27600922225088     -1.62969292198925      0.70558763030111
  H   -0.46314833962569     -0.08088540301879      1.55022018435562
  C   0.25587973367123      1.46450960410101     -0.61154959666556
  N   0.02808191934376      2.60395632950386     -0.78274875429043
  C   1.86677292706380     -0.12656580825859      0.21214160491688
  N   2.92184368790916     -0.28335755963911      0.70327305916856
  C   -1.86538254179307     -0.43973974344724      0.01986380939638
  N   -2.94480563616770     -0.33719182697831     -0.42832057452505
