11
Coordinates from ORCA-job run
  C   0.30268982896551      0.57018183393131      0.02048091998659
  C   -0.81327823128452     -0.44991613508944     -0.25348715810291
  F   -0.15085187450516      1.47919855159754      0.94796242900164
  H   -0.48745171703141     -1.15017294201315     -1.02776778317999
  H   -1.68185017186450      0.09922185435458     -0.62789968816467
  C   1.50804554115858     -0.09223189479097      0.54608975948644
  N   2.46028556672891     -0.64439900677485      0.95590786083521
  C   0.63013889126599      1.28211424430645     -1.22736997931208
  N   0.85871189557482      1.83001287518162     -2.24068778776206
  C   -1.16894790994908     -1.17178948557674      0.96460069715946
  N   -1.45649181905914     -1.75321989512633      1.94217073005236
