11
Coordinates from ORCA-job run
  C   0.62912948853536      0.09970562000972      0.10318977006446
  C   -0.67453774563523     -0.66938983541392     -0.16094025447880
  F   1.12368758522029     -0.28209195135458      1.32867307411567
  H   -0.43998535485373     -1.73745808812804     -0.14381757961324
  H   -1.05530407376868     -0.41540621793341     -1.15414603061951
  C   1.61523015515256     -0.23933547044889     -0.93797856040776
  N   2.37444402508861     -0.53844073317035     -1.78258949605151
  C   0.39496926589754      1.55337522983722      0.11098164163318
  N   0.18583633863342      2.70917578192692      0.10525775971735
  C   -1.67470828543400     -0.36366071373711      0.85762983337785
  N   -2.47976139883613     -0.11747362158757      1.67473984226233
