11
Coordinates from ORCA-job run
  C   0.46337404183656      0.13384232087154     -0.57623362190432
  C   -0.81264156053341     -0.63389534660746     -0.19658491230290
  F   0.71356805184059     -0.13146407695879     -1.90587155928314
  H   -1.61576744269020     -0.29202112242930     -0.85521073096058
  H   -0.63321933735192     -1.69517658904793     -0.38940876890778
  C   0.27582848138125      1.58419902847991     -0.40761735462420
  N   0.09826602010194      2.73855117605474     -0.28247841104442
  C   1.61153979191164     -0.32242470704476      0.22402118696696
  N   2.51729429353777     -0.71515199886316      0.86053119973551
  C   -1.16999720225785     -0.42129824034820      1.20125636856182
  N   -1.44824513777636     -0.24516044410658      2.32759660376306
