11
Coordinates from ORCA-job run
  C   0.44498376110685      0.15769505152484     -0.43874736060407
  C   -0.94358645953842     -0.11913980882433      0.15758150095690
  F   0.68946712101552     -0.76430578601386     -1.43012097109983
  H   -1.67652948947721     -0.03173388995356     -0.64926470460581
  H   -1.17301373771262      0.63490017447531      0.91559827535604
  C   0.46354289620058      1.50854202791429     -1.02701740451884
  N   0.43904045171080      2.58641796004822     -1.49259902875719
  C   1.49462548220069      0.04837804161293      0.58805334553831
  N   2.31494706741397     -0.03647157064620      1.42437181244708
  C   -1.00250259356297     -1.45609184456795      0.74119505878152
  N   -1.04997449935720     -2.52919035556969      1.21294947650590
