11
Coordinates from ORCA-job run
  C   0.46792141950429      0.15239037309242     -0.56862556706216
  C   -0.78540970754668     -0.66244567489105     -0.21238193349322
  F   0.74830346039739     -0.09658643470936     -1.89526562059628
  H   -0.56490858798695     -1.71604758169072     -0.40500939635072
  H   -1.58953274254677     -0.34777695893973     -0.88334783575920
  C   0.22555697402420      1.59400793630002     -0.39573896298745
  N   0.00180992387474      2.73981370062236     -0.26591801689964
  C   1.61900966670263     -0.26688588957732      0.24760513681528
  N   2.52792078954535     -0.63018182990978      0.89701277058087
  C   -1.17376318743455     -0.46613070426238      1.17967749720341
  N   -1.47790800853365     -0.30115693603445      2.30099192854913
