11
Coordinates from ORCA-job run
  C   0.47793588151055      0.10655576951115     -0.56999037770790
  C   -0.81418137321039     -0.63314657746588     -0.18913613825397
  F   0.75412968668469     -0.21261955289142     -1.88258607809187
  H   -1.59902438607100     -0.31021802063125     -0.87869024526843
  H   -0.64193261154457     -1.70298599951973     -0.33580193589990
  C   0.30253084438563      1.56412775937646     -0.46229332570176
  N   0.13399126899144      2.72436774553374     -0.39067664372735
  C   1.60321637779346     -0.33028583971056      0.27255108602813
  N   2.49039284828441     -0.70734377852860      0.94366367881314
  C   -1.20089693852535     -0.36125807245154      1.19050455345966
  N   -1.50616159829886     -0.13819343322238      2.30145542635024
