11
Coordinates from ORCA-job run
  C   0.43706377935414      0.14247619050572     -0.45185387295570
  C   -0.94049621802350     -0.07491968292664      0.19304425442882
  F   0.60005575534281     -0.77713900102081     -1.46146084304088
  H   -1.69849493932888      0.06822620330591     -0.58246209976401
  H   -1.10105426351993      0.67277561398781      0.97503667232080
  C   0.49943608869795      1.49856956828962     -1.02482961054402
  N   0.50986804576989      2.58447340673449     -1.47197971393722
  C   1.51646872599374     -0.02952364951539      0.53465427189242
  N   2.35942042170517     -0.16194179082127      1.34181360687745
  C   -1.04731809908226     -1.42054817229538      0.74982056451442
  N   -1.13494929690912     -2.50144868624406      1.19721677020793
