11
Coordinates from ORCA-job run
  C   0.44533372747832      0.08411613849556     -0.45815534242506
  C   -0.40591367317457     -0.64134248670037      0.59528537977896
  F   0.17068473609605     -0.45809612249561     -1.69247434348176
  H   -0.16468744158551     -0.25744585696146      1.59046325303959
  H   -0.14375921477507     -1.70252878468297      0.56138990232320
  C   0.14003413135232      1.52422167125439     -0.48706888438737
  N   -0.11360133716870      2.67106719142959     -0.48615420408789
  C   1.87350058941820     -0.11495222722343     -0.15525928677355
  N   3.00125896644387     -0.29783893726984      0.11668992466355
  C   -1.82942593473074     -0.47153893185165      0.31899427096928
  N   -2.97342454935418     -0.33566165399421      0.09728933038105
