11
Coordinates from ORCA-job run
  C   0.47143478180106      0.10390255471807     -0.42802868536096
  C   -0.94513562322343     -0.15205354343646      0.11002144567573
  F   0.84867332335646     -0.97062691077517     -1.19957965811125
  H   -1.61083671610534     -0.27251184179359     -0.74926627673648
  H   -1.28004001325948      0.71388677851578      0.68779738566988
  C   0.46413073377674      1.31536876998962     -1.26662621271134
  N   0.41754859005798      2.27980739125617     -1.93505392532433
  C   1.43417152532423      0.26560027569909      0.67406010681336
  N   2.18102651998833      0.39459511690887      1.57144094945517
  C   -0.97741555708025     -1.35550924521466      0.93565884244382
  N   -1.00355756463631     -2.32245934586772      1.59957602818638
