11
Coordinates from ORCA-job run
  C   0.52188893786852      0.12154941313812     -0.35879992937301
  C   -0.93884616033964     -0.21993644275941     -0.02686368129018
  F   1.08391393885769     -0.94750131367269     -1.01763547986857
  H   -1.41671334428619      0.63952547795486      0.45172994800526
  H   -1.45598652464906     -0.42213125241337     -0.96900841945727
  C   0.56057548653335      1.30093371912423     -1.24111486164192
  N   0.55240297198352      2.23954291326571     -1.94702901645438
  C   1.29449471500713      0.39196133251153      0.86507269391531
  N   1.88823627522336      0.61321635626217      1.85394302910352
  C   -1.01440082942676     -1.38937511121984      0.84397087156389
  N   -1.07556546677191     -2.32678509219132      1.54673484549735
