11
Coordinates from ORCA-job run
  C   0.38001228743736      0.50508658694326     -0.12693973801450
  C   -0.90272751392268     -0.33429137669816     -0.02246774339390
  F   0.26652864669352      1.58720592730252      0.71492760485872
  H   -1.74217906050237      0.30297897574466     -0.31447756676022
  H   -0.84861091941044     -1.17499568167520     -0.71978333208310
  C   1.56229289644364     -0.28273396915851      0.25936203325531
  N   2.49219092779909     -0.93355102173211      0.56131436011329
  C   0.53420374344062      0.99004714604456     -1.50982887559231
  N   0.61446930308033      1.36546831623433     -2.61979000960695
  C   -1.09799856080192     -0.81849008962899      1.34087154247535
  N   -1.25718175025716     -1.20572481337635      2.43681172474831
