11
Coordinates from ORCA-job run
  C   0.46392794719936      0.14357678234288     -0.57063262058142
  C   -0.81933169254594     -0.62109302104574     -0.21057931341820
  F   0.71045919343511     -0.08889721595308     -1.90728865466898
  H   -1.61928250314794     -0.25435812556067     -0.85977497096820
  H   -0.65067269659274     -1.67873986493711     -0.43137250548060
  C   0.29189197404067      1.59102948231226     -0.36484546996786
  N   0.12699397210861      2.74447454066377     -0.21732208884536
  C   1.60887637586389     -0.34531867338480      0.21470593294448
  N   2.51677223244273     -0.76203905885957      0.83258955736747
  C   -1.17496908666539     -0.44009938330304      1.19229844129061
  N   -1.45266571613835     -0.28753546227490      2.32222169232804
