11
Coordinates from ORCA-job run
  C   0.42492851966416      0.16325902385212     -0.45723708258425
  C   -0.55688545916839     -0.70893110352572      0.34045035587572
  F   -0.07049156585488      0.33102806345703     -1.72947744201990
  H   -0.64740354256185     -1.66752472666216     -0.17823307663532
  H   -0.15423905831802     -0.89400983137583      1.34024387933628
  C   0.59210217950167      1.48407357140302      0.17161266733326
  N   0.71485886686442      2.52837937484718      0.69505218462228
  C   1.72897948174266     -0.51823842287871     -0.53708050299926
  N   2.75084022635274     -1.09536455316397     -0.58147015487894
  C   -1.86561052521290     -0.06842812011103      0.43188686226905
  N   -2.91807912300960      0.44475672415808      0.50425230968107
