11
Coordinates from ORCA-job run
  C   0.47149327447851      0.08861118348859     -0.57837658448517
  C   -0.82727400070943     -0.62287603541358     -0.16724289574279
  F   0.72322135077348     -0.25559953604999     -1.88959479364175
  H   -0.67547166432911     -1.69767827050416     -0.29907248426114
  H   -1.61657290933843     -0.29733307129942     -0.85046170753437
  C   0.32130818925682      1.55041595169350     -0.49118940862302
  N   0.16939450138461      2.71385045546375     -0.43510391511656
  C   1.60145102133255     -0.35425799052166      0.25473251358056
  N   2.49152554746908     -0.73670724592168      0.91895551556418
  C   -1.18854551667190     -0.32060156259814      1.21297473967757
  N   -1.47152979364617     -0.06782387833720      2.32337902058251
