17

C	0.0	0.0	0.0
C	-0.566535	-0.060408	-1.43162
Cl	1.794578	0.0	0.0
H	-1.659616	0.031594	-1.28437
C	-0.483608	1.242804	0.734128
H	-0.093944	1.24999	1.753732
H	-1.576834	1.220585	0.74958
H	-0.128662	2.132856	0.21055
C	-0.388423	-1.213522	0.728513
N	-0.60314	-2.204446	1.322418
C	-0.268296	-1.362431	-2.172822
H	-0.70741	-1.321596	-3.171501
H	-0.722301	-2.196482	-1.63572
H	0.80643	-1.530957	-2.266472
C	-0.099206	1.093421	-2.196951
N	0.284845	1.996023	-2.843489
Br	-3.811809	0.0	0.0
