17

C	0.0	0.0	0.0
C	-0.408392	0.205234	-1.485805
Cl	1.796253	0.0	0.0
H	-0.003594	1.186459	-1.762089
C	-0.593088	1.059956	0.908152
H	-0.19262	0.956415	1.917487
H	-0.347992	2.053612	0.526161
H	-1.680412	0.933653	0.939897
C	-0.390501	-1.342605	0.443837
N	-0.662233	-2.425222	0.811609
C	-1.91736	0.164991	-1.72657
H	-2.446002	0.956271	-1.199918
H	-2.111934	0.272699	-2.796151
H	-2.362113	-0.767434	-1.38155
C	0.253593	-0.785412	-2.341415
N	0.735587	-1.571387	-3.068557
Br	-4.850036	0.0	0.0
