17

C	0.0	0.0	0.0
C	-0.565799	-0.026256	-1.433943
Cl	1.794768	0.0	0.0
H	-1.660683	0.048542	-1.285988
C	-0.488328	1.220449	0.767507
H	-0.100494	1.199809	1.787627
H	-0.135039	2.125991	0.269737
H	-1.582105	1.195236	0.780658
C	-0.387127	-1.234445	0.694313
N	-0.602692	-2.240729	1.261213
C	-0.250015	-1.301363	-2.214443
H	-0.697757	-1.239458	-3.208097
H	-0.684627	-2.159883	-1.698803
H	0.827347	-1.447266	-2.321133
C	-0.112642	1.156186	-2.164174
N	0.261612	2.082366	-2.782898
Br	-3.822099	0.0	0.0
