17

C	0.0	0.0	0.0
C	-0.447999	0.056694	-1.516298
Cl	1.798845	0.0	0.0
H	0.480798	0.058474	-2.094276
C	-0.51801	1.146737	0.853108
H	-1.612036	1.098831	0.84558
H	-0.169675	2.103501	0.461489
H	-0.151865	1.028521	1.87507
C	-0.370313	-1.272442	0.631308
N	-0.573587	-2.279088	1.202366
C	-1.241714	1.30362	-1.921944
H	-1.436636	1.250826	-2.997167
H	-2.198812	1.329636	-1.398654
H	-0.665806	2.210538	-1.728313
C	-1.139861	-1.161303	-1.948711
N	-1.606525	-2.13048	-2.421991
Br	-3.931096	0.0	0.0
