17

C	0.0	0.0	0.0
C	-0.403684	0.145026	-1.492722
Cl	1.796269	0.0	0.0
H	0.021879	1.103925	-1.815114
C	-0.585021	1.103873	0.859609
H	-0.182805	1.04474	1.872492
H	-1.672694	0.984903	0.897131
H	-0.335055	2.077738	0.431347
C	-0.396365	-1.318754	0.503438
N	-0.667162	-2.384631	0.916392
C	-1.913944	0.125369	-1.723067
H	-2.416232	0.969365	-1.256351
H	-2.381865	-0.76757	-1.307602
H	-2.113862	0.156513	-2.79784
C	0.237217	-0.898039	-2.30141
N	0.708815	-1.723853	-2.991223
Br	-4.839789	0.0	0.0
