17

C	0.0	0.0	0.0
C	-0.416552	0.106796	-1.491917
Cl	1.796241	0.0	0.0
H	0.016393	1.051047	-1.844883
C	-0.574868	1.129523	0.834396
H	-0.315941	2.090335	0.382622
H	-0.171152	1.090506	1.847938
H	-1.663615	1.020634	0.87661
C	-0.397273	-1.302763	0.543576
N	-0.677271	-2.35376	0.988842
C	-1.929168	0.101349	-1.708531
H	-2.407461	-0.762879	-1.250234
H	-2.141655	0.091473	-2.779079
H	-2.411408	0.97246	-1.271618
C	0.206113	-0.965734	-2.274794
N	0.667911	-1.814407	-2.941782
Br	-4.880009	0.0	0.0
