17

C	0.0	0.0	0.0
C	-0.569228	0.004147	-1.431231
Cl	1.794817	0.0	0.0
H	-1.661192	0.101286	-1.276821
C	-0.477249	1.21202	0.79003
H	-1.570389	1.191498	0.810683
H	-0.080113	1.175291	1.806034
H	-0.123256	2.122177	0.30117
C	-0.388028	-1.243756	0.676579
N	-0.601332	-2.259242	1.22788
C	-0.287556	-1.271368	-2.223804
H	0.785045	-1.456662	-2.313152
H	-0.764138	-2.117438	-1.72659
H	-0.714236	-1.180703	-3.224448
C	-0.090544	1.182373	-2.150273
N	0.297559	2.109387	-2.759019
Br	-3.802938	0.0	0.0
