17

C	0.0	0.0	0.0
C	-0.416908	0.12321	-1.489783
Cl	1.796025	0.0	0.0
H	0.029369	1.063749	-1.837805
C	-0.573676	1.12209	0.846204
H	-1.662481	1.014191	0.886517
H	-0.312628	2.087093	0.405221
H	-0.171695	1.069496	1.859326
C	-0.3998	-1.3065	0.533037
N	-0.689075	-2.358071	0.970694
C	-1.929236	0.14272	-1.706598
H	-2.144272	0.133024	-2.777428
H	-2.426449	-0.710668	-1.24764
H	-2.395424	1.024782	-1.27343
C	0.192147	-0.951461	-2.280498
N	0.655816	-1.796697	-2.95109
Br	-4.877842	0.0	0.0
