17

C	0.0	0.0	0.0
C	-0.404841	0.207847	-1.488355
Cl	1.796208	0.0	0.0
H	-0.010912	1.195496	-1.758488
C	-0.605997	1.046301	0.912128
H	-0.203144	0.94637	1.921692
H	-1.690712	0.899078	0.944039
H	-0.380494	2.046547	0.53588
C	-0.385501	-1.34859	0.43025
N	-0.644875	-2.438551	0.78307
C	-1.910421	0.153201	-1.7365
H	-2.340709	-0.79315	-1.414648
H	-2.102608	0.275159	-2.805217
H	-2.453282	0.923207	-1.193315
C	0.268704	-0.773628	-2.343851
N	0.758421	-1.553062	-3.071987
Br	-4.834811	0.0	0.0
