17

C	0.0	0.0	0.0
C	-0.439688	0.018817	-1.520366
Cl	1.798897	0.0	0.0
H	0.49224	-0.018307	-2.092596
C	-0.509071	1.170436	0.825633
H	-0.14121	1.074102	1.848843
H	-0.151849	2.11308	0.409388
H	-1.603376	1.13302	0.821511
C	-0.376256	-1.257159	0.65403
N	-0.585022	-2.260476	1.229648
C	-1.196249	1.273498	-1.967141
H	-1.391757	1.190163	-3.039527
H	-0.589681	2.166838	-1.802648
H	-2.150673	1.341107	-1.444932
C	-1.147575	-1.19804	-1.931707
N	-1.597208	-2.171827	-2.412965
Br	-3.853721	0.0	0.0
