14

C	0.0	0.0	0.0
C	-0.609841	0.272807	-1.347978
Cl	1.866931	0.0	0.0
H	-1.667248	0.05168	-1.121115
H	-0.221338	-0.417715	-2.078507
N	-0.348725	0.917638	1.045626
H	0.391177	1.581126	1.264765
H	-1.123132	1.444041	0.661157
C	-0.32202	-1.372164	0.435059
N	-0.504401	-2.479936	0.744928
N	-0.424326	1.676875	-1.660454
H	-1.294362	1.964299	-2.074208
H	0.27882	1.799527	-2.364698
F	-2.847365	0.0	0.0
