14

C	0.0	0.0	0.0
C	-0.465346	0.020659	-1.461534
Cl	1.784032	0.0	0.0
H	0.030064	-0.796316	-1.995581
H	-1.545427	-0.142812	-1.374536
N	-0.595014	1.103363	0.686574
H	-0.372371	1.038602	1.674844
H	-1.632194	0.851564	0.542647
C	-0.358984	-1.316664	0.582973
N	-0.561526	-2.373734	1.054677
N	-0.095878	1.307339	-2.072828
H	-0.319149	2.010043	-1.372574
H	-0.739331	1.46102	-2.842585
F	-2.81597	0.0	0.0
