14

C	0.0	0.0	0.0
C	-0.650201	0.270839	-1.35242
Cl	1.866251	0.0	0.0
H	-0.211139	-0.399958	-2.097936
H	-1.716006	-0.000968	-1.067833
N	-0.367093	0.867312	1.08323
H	-1.103433	1.469604	0.741277
H	0.395565	1.444394	1.38985
C	-0.329463	-1.388699	0.388066
N	-0.51541	-2.511584	0.70148
N	-0.569629	1.703116	-1.691387
H	0.11748	1.862467	-2.431851
H	-1.499313	1.968338	-2.029621
F	-2.856619	0.0	0.0
