14

C	0.0	0.0	0.0
C	-0.466208	-0.002616	-1.462264
Cl	1.784645	0.0	0.0
H	-1.546764	-0.163387	-1.37448
H	0.026446	-0.831035	-1.982558
N	-0.59852	1.11241	0.667926
H	-1.635466	0.858801	0.528392
H	-0.376301	1.065263	1.657059
C	-0.356432	-1.3079	0.60335
N	-0.566411	-2.358355	1.086218
N	-0.091591	1.272378	-2.092852
H	-0.337458	1.988632	-1.414353
H	-0.714092	1.403769	-2.883972
F	-2.821718	0.0	0.0
