14

C	0.0	0.0	0.0
C	-0.413324	0.364282	-1.431883
Cl	1.866883	0.0	0.0
H	-1.506144	0.275571	-1.357194
H	0.002058	-0.36724	-2.137721
N	-0.533515	0.844691	1.005471
H	-0.392821	1.788394	0.649261
H	-1.56566	0.621469	0.85947
C	-0.354244	-1.404664	0.260948
N	-0.531383	-2.553792	0.422264
N	-0.030116	1.745445	-1.712377
H	0.897421	1.78202	-2.113625
H	-0.682964	2.146456	-2.370179
F	-2.762689	0.0	0.0
