12
Coordinates from ORCA-job run
  C   -0.73945693812092     -0.11136175467306      0.03632149692364
  C   0.54217365852945     -0.52649549734853      0.14772994182215
  H   0.70537371369010     -1.57831517898520      0.38199676463857
  N   -1.87810958713192     -0.88800107820179      0.30147256246993
  H   -2.64110001442859     -0.70920178558209     -0.33581893727692
  H   -1.67087943831789     -1.87552018036173      0.35042664513630
  C   -1.02682914855900      1.26315545384076     -0.27790275635700
  N   -1.27107777822097      2.37862609727839     -0.55938125903394
  C   1.75154612766840      0.34440104552728      0.01363824076666
  H   2.42414628318843     -0.04088381335764     -0.75815244282318
  H   2.31779807991146      0.37198131152272      0.94969450657567
  H   1.48541504179146      1.36961538034089     -0.24902476284189
