12
Coordinates from ORCA-job run
  C   -0.72924966084358      0.29945602630853     -0.09042824035509
  C   0.54763237331778      0.65359233959928      0.18061102742928
  H   0.75158468687357      1.69440468292409      0.40519340521412
  N   -1.13336889509257     -0.98304444741799     -0.47845223195939
  H   -0.52373150254222     -1.71349499165339     -0.14049695437139
  H   -2.10005032419689     -1.18503472117299     -0.27266938484959
  C   -1.76472055474340      1.29438160715865     -0.09037846723640
  N   -2.63051424922404      2.09028653477929     -0.08198352305633
  C   1.67094811155916     -0.33869389013080      0.14922072750190
  H   2.63478710679755      0.15497735643635      0.26963972487465
  H   1.69323117248073     -0.88350819369301     -0.80094801972957
  H   1.58545173561390     -1.08432230313801      0.94969193653780
