12
Coordinates from ORCA-job run
  C   -0.72924064328299     -0.12959232764066      0.10154981661572
  C   0.53342287744111     -0.53225931228542     -0.16386994495114
  H   0.67831849174307     -1.58482796119718     -0.40632796447699
  N   -1.85254865932386     -0.96620439824020      0.19755768616161
  H   -2.69229908333121     -0.55011114962029     -0.17944677576860
  H   -1.69037932869323     -1.87922358153191     -0.20406081927155
  C   -0.99515827506678      1.24750628029769      0.42263839205960
  N   -1.22848601406402      2.37541308694760      0.66080668277811
  C   1.74966636452489      0.33807312499842     -0.11594741285558
  H   2.44889599181295     -0.01193632167917      0.64975692012871
  H   1.49670438490324      1.37562299318762      0.10853333688641
  H   2.28210389333684      0.31653956676350     -1.07118991730630
