12
Coordinates from ORCA-job run
  C   -0.73097551317742     -0.15193597854516     -0.04954331410144
  C   0.55698247687610     -0.51080109859434      0.14933516907502
  H   0.74653368793254     -1.54881000797546      0.42221060425690
  N   -1.83336518352905     -1.02075988155592     -0.04276136228156
  H   -2.65967693171570     -0.61495645794362      0.37296583090795
  H   -1.61908337464268     -1.91482976633921      0.37602687622935
  C   -1.05486842877809      1.20425158556410     -0.40550804566291
  N   -1.33254676075141      2.31582069518380     -0.67119389332243
  C   1.74295835750384      0.38784849329220     -0.00786214866648
  H   1.44759482320721      1.40933857001450     -0.25319844744064
  H   2.40295657785627      0.02729495036499     -0.80286437285206
  H   2.33349026921838      0.41653889653411      0.91239310385830
