12
Coordinates from ORCA-job run
  C   -0.75489504657393      0.19018996586187     -0.15605176140219
  C   0.51554099615793      0.43252635992632     -0.55250122690105
  H   0.67296926404262      1.16322624997108     -1.33774560188502
  N   -1.12542570089731     -0.78192815273622      0.77959854882034
  H   -1.99957414437998     -0.58910244895403      1.24475106460659
  H   -0.39478693621952     -1.00220454894419      1.44039695159366
  C   -1.84384393598294      0.88747034895829     -0.78089263550186
  N   -2.74661328883737      1.45953060151430     -1.27184909795605
  C   1.68564062115415     -0.29402594159291      0.03982033071109
  H   1.82111541795544     -0.05328017827271      1.10155457846825
  H   1.55836603394425     -1.37948334416707     -0.03561779920052
  H   2.61150671963663     -0.03191891156473     -0.47146335135325
