12
Coordinates from ORCA-job run
  C   -0.70757079196139      0.33403417578972      0.12501024952016
  C   0.61953112256750      0.59236347182531      0.16207480278677
  H   0.93810795576550      1.56567366778474      0.51823637014516
  N   -1.27449894742808     -0.84148596942569     -0.38141450524356
  H   -0.66568487238887     -1.64330028734759     -0.30786206701801
  H   -2.19255131962391     -1.03965189824613     -0.01311850481557
  C   -1.64467918057732      1.34380231183319      0.53003798135257
  N   -2.42902293863627      2.15288996498563      0.86729671677717
  C   1.63714623636564     -0.41276794882572     -0.28500320630279
  H   1.41025390795825     -0.78483042400405     -1.28974279535062
  H   1.67270797964609     -1.28350217756892      0.38172433259044
  H   2.63726084831285      0.01877511319953     -0.30723937444171
