12
Coordinates from ORCA-job run
  C   -0.71900403247389     -0.10321111725508     -0.11229439300992
  C   0.55890196765477     -0.50786629821397     -0.27401975448353
  H   0.70749007120277     -1.50497410496810     -0.68746342958488
  N   -1.83758112150162     -0.90479991029859     -0.42193118659250
  H   -1.80372632855122     -1.81416516072570      0.01289819500164
  H   -2.71804581606573     -0.45047663046556     -0.23538629275787
  C   -0.99986442136471      1.21756344254060      0.38506908863421
  N   -1.26497060204535      2.29145438880562      0.78642513848714
  C   1.77396162203235      0.29320580732986      0.07131628830447
  H   1.51692344733130      1.24738321739448      0.53330227303021
  H   2.41525524038959     -0.25606814883910      0.76640682865783
  H   2.37165997339172      0.49295451469554     -0.82432275568681
