12
Coordinates from ORCA-job run
  C   -0.72777760566974      0.30711683765971     -0.03808447241345
  C   0.56238799671609      0.64080286241385      0.19566528540502
  H   0.77689810375816      1.66343698648779      0.48409996593659
  N   -1.15768744261182     -0.94496752201494     -0.48767026948348
  H   -2.11984923346741     -1.15344557223756     -0.27180265827990
  H   -0.54729766550801     -1.70168125779259     -0.21585064328062
  C   -1.75484578926794      1.30610140880351      0.06389119494793
  N   -2.61043811901905      2.10802724815276      0.15093082641774
  C   1.67253958131949     -0.35836693075374      0.05736048695350
  H   1.64302521226170     -1.11493803402004      0.85150367548107
  H   1.61510926902811     -0.87675794142086     -0.90680515102974
  H   2.64893569246040      0.12367191472211      0.11576175934533
