12
Coordinates from ORCA-job run
  C   -0.72764554305611      0.26599529495752     -0.15935292942024
  C   0.56637758939997      0.40537012359044     -0.52898998476184
  H   0.78698744281828      1.06228354410527     -1.36253691718223
  N   -1.16663906320386     -0.48217203006225      0.93706736851256
  H   -2.12616012611942     -0.78399332601233      0.87368779191918
  H   -0.55408329538569     -1.24921063340183      1.17238460611687
  C   -1.75053933930741      1.00657866785156     -0.84375607738089
  N   -2.60243924677720      1.59805501862611     -1.39797030552671
  C   1.67209508036491     -0.31332256488932      0.18552152790562
  H   1.60171381195056     -0.16184816427419      1.26887197356074
  H   1.64981447491412     -1.39328376184401     -0.00754975858122
  H   2.65051821440185      0.04554783135303     -0.13537729516185
