12
Coordinates from ORCA-job run
  C   -0.73645543814582      0.28401971748274     -0.08665653364891
  C   0.56193535570326      0.58366126019823     -0.31932468621512
  H   0.79218747477534      1.55433493392236     -0.74365190542219
  N   -1.19775852348986     -0.95467861245866      0.37189011083206
  H   -2.08363500017410     -0.90900816234372      0.85226678189212
  H   -0.51141606223642     -1.46522620458115      0.90790576126424
  C   -1.75936502117665      1.23862518730644     -0.41022663435290
  N   -2.60926631495352      2.01343100314585     -0.65642568662466
  C   1.66575282136874     -0.39066658407606     -0.03590192604673
  H   1.75882982307261     -0.60207366858487      1.03657160689616
  H   2.62760378703108     -0.00549158545523     -0.37320700136420
  H   1.49158709822534     -1.34592728455594     -0.54323988720986
