12
Coordinates from ORCA-job run
  C   -0.74920778987282      0.23376332478621     -0.11512892844673
  C   0.53221818940121      0.56778941297778     -0.39124655417859
  H   0.70771545316477      1.43136530679652     -1.02298040121076
  N   -1.13385728285713     -0.79833646111288      0.74765635069911
  H   -0.45089519293113     -1.53839946127892      0.81829404491706
  H   -2.05670253414546     -1.16220439214054      0.56492914644758
  C   -1.82485164384868      1.02523385279543     -0.64316727753997
  N   -2.71945694973102      1.65317862937255     -1.07739289647666
  C   1.69212657099407     -0.19950877890281      0.16785446618519
  H   1.73295867862824     -1.22310949693002     -0.22465725350133
  H   2.63853079481996      0.27927295134933     -0.08244625201539
  H   1.63142170637799     -0.27004488771264      1.25928555512050
