12
Coordinates from ORCA-job run
  C   -0.74247669298625      0.24610549816933     -0.13789550993275
  C   0.54903421572464      0.64201658471125     -0.20704761939791
  H   0.75905260874234      1.62222102018254     -0.61980357287665
  N   -1.18022647035337     -0.94731222658316      0.44618583014568
  H   -2.06261685554909     -1.27857953284334      0.08660806017243
  H   -0.48155087062976     -1.67584944580510      0.44365499053824
  C   -1.78362331485043      1.12263892427370     -0.59637271278884
  N   -2.64798785696098      1.82147248877682     -0.98059360288145
  C   1.67302980025614     -0.21609238713206      0.29153541442946
  H   2.62530776465791      0.31032138896974      0.23245807586096
  H   1.51717710023175     -0.50811725605799      1.33583193100506
  H   1.77488057171711     -1.13782505666173     -0.29456128427422
