12
Coordinates from ORCA-job run
  C   -0.73750635641518     -0.12426731272563      0.02720513043471
  C   0.54724269038830     -0.48419287079755      0.24378556437999
  H   0.72334009899405     -1.48453617691919      0.63925626900951
  N   -1.86915178320208     -0.88193498297448      0.36610131093742
  H   -2.61229070803682     -0.81716597524075     -0.31489994449714
  H   -1.64466096156168     -1.84612387652120      0.56717777832455
  C   -1.04127563096726      1.18005896661274     -0.49953818950961
  N   -1.29866115400828      2.23396992651949     -0.95372323426293
  C   1.74245474220116      0.38854519808546      0.02198804832968
  H   2.45174412227602     -0.09058324727429     -0.65923007720395
  H   2.27245400807604      0.57001918653804      0.96215594506324
  H   1.46531093225573      1.35521116469738     -0.40127860100547
