12
Coordinates from ORCA-job run
  C   -0.72947784988274     -0.06208970751378      0.15840102287336
  C   0.57864644882517     -0.24966913124164      0.44266068161641
  H   0.81546955033857     -0.81244285117828      1.34558083195451
  N   -1.80750842142671     -0.43437576041912      0.97676380323451
  H   -2.60290957371221     -0.77811165175818      0.45725191058635
  H   -1.53715438303876     -1.08877941045469      1.69749699754621
  C   -1.11243896653853      0.66648434697247     -1.02200853466516
  N   -1.43458392233392      1.23775721339538     -1.99830520401973
  C   1.72546579666319      0.27863641253102     -0.36029382193820
  H   1.38703434993442      0.79898284769575     -1.25785909233056
  H   2.32603486927829      0.97851711517042      0.22894811753702
  H   2.38942210189323     -0.53390942319936     -0.66963671239472
