12
Coordinates from ORCA-job run
  C   -0.72648510459622      0.31443542492302     -0.05840189680282
  C   0.50729338566520      0.35628492629176     -0.61146889551440
  H   0.65548226476465      0.99242048915639     -1.47681346665301
  N   -1.05339691285101     -0.38595494116218      1.10779693933481
  H   -0.45067908751524     -1.17640481996835      1.28392185877481
  H   -2.02715830059658     -0.64155926866385      1.17175657306346
  C   -1.78672453519649      1.10710473711832     -0.61539507341977
  N   -2.67012133377505      1.73923776446171     -1.06626970202904
  C   1.65855288380055     -0.42118579338765     -0.04721668887393
  H   1.81272159931195     -0.18938871086134      1.01229671201922
  H   2.58376482667860     -0.19254769552583     -0.57550381820447
  H   1.49775031430962     -1.50344211238200     -0.12570254169485
