12
Coordinates from ORCA-job run
  C   -0.73076016410417     -0.13188550721759      0.08928545062760
  C   0.53812331755143     -0.53001963187531     -0.15221659735678
  H   0.69205574429161     -1.58322597510407     -0.38664038612953
  N   -1.85111385278073     -0.97317563363024      0.17236965462184
  H   -2.68707509105525     -0.56606856904436     -0.22216583945405
  H   -1.67678468347781     -1.88999376410075     -0.21453716276648
  C   -1.00759971140504      1.24599470223119      0.39821657509047
  N   -1.24787245904732      2.37459329061086      0.62569614135289
  C   1.74951026090237      0.34592624928277     -0.08951716190748
  H   2.43690017117210      0.00509065513358      0.69082652104754
  H   2.29829087010361      0.31957352504700     -1.03529668228482
  H   1.48832559784920      1.38419065866691      0.12197948715881
