12
Coordinates from ORCA-job run
  C   -0.68108880421006     -0.22094732764973     -0.11297467071131
  C   0.59689074684340     -0.51920202638012      0.19723335345863
  H   0.77922844880312     -1.53630401372558      0.54013802353049
  N   -1.73513693273833     -1.15913058768597      0.04767310553112
  H   -2.55526662320219     -0.90583535982949     -0.48402808990153
  H   -1.98888853770451     -1.28448720122917      1.01741782348120
  C   -1.02306197215403      1.08212687215292     -0.62339489537392
  N   -1.33897861427142      2.12614208682492     -1.06564380289922
  C   1.75315972451529      0.42503285340174      0.13053932659198
  H   2.16892410053944      0.60212204906731      1.12730428846365
  H   1.46805345282884      1.38888918553700     -0.29435217926035
  H   2.55616501075045      0.00259346951617     -0.47991228291073
