12
Coordinates from ORCA-job run
  C   -0.73687188027020     -0.12957409232909      0.01020453905211
  C   0.54636977056816     -0.51973742933816     -0.15784585429198
  H   0.72254353591401     -1.57722559054548     -0.35443317450662
  N   -1.86852005049160     -0.94351513533433     -0.15437831616660
  H   -1.63962964584834     -1.92741284947383     -0.16691470439641
  H   -2.60048639839608     -0.75020233276949      0.51433345908613
  C   -1.04124904559305      1.25044785105812      0.28117231924211
  N   -1.29902074964788      2.37088748276945      0.52909694600821
  C   1.73925013944351      0.38303763177111     -0.12869499153668
  H   2.25251317889880      0.38245436113803     -1.09521804619583
  H   1.46258634384395      1.41258935819150      0.10459892403323
  H   2.46251480157872      0.04725074486217      0.62007889967234
