12
Coordinates from ORCA-job run
  C   -0.72860268878680     -0.15937438766286     -0.05402803638905
  C   0.55520289597025     -0.49424603601942      0.20436978151457
  H   0.74136216469085     -1.50441170217724      0.56868100087172
  N   -1.82920627790333     -1.02856867774998      0.00383438553858
  H   -1.62260404531872     -1.88270834154668      0.50220999180943
  H   -2.66540825535502     -0.59158595012256      0.36414913149215
  C   -1.04834440169851      1.15987078964874     -0.53155949505119
  N   -1.32460444972984      2.24378859300503     -0.89501852590043
  C   1.74202336187097      0.39359275876858     -0.00131747827760
  H   2.42112469481196     -0.02835836208286     -0.74889803393183
  H   2.31129944497645      0.50163784747953      0.92642166282562
  H   1.44875755647175      1.38936346845972     -0.33784438450199
