12
Coordinates from ORCA-job run
  C   -0.75445340013348      0.19804532758809     -0.14761940365937
  C   0.51636221577543      0.45426581001220     -0.53407502148657
  H   0.67500911236279      1.21769723998618     -1.28718379440670
  N   -1.12623462895245     -0.81143831513035      0.74683896908734
  H   -2.00161560422333     -0.63933247147739      1.21767673277958
  H   -0.39670541950368     -1.05935358155592      1.39885966501638
  C   -1.84209436458290      0.92297712548275     -0.74240193041344
  N   -2.74398011344829      1.51676901659650     -1.20859488672338
  C   1.68513887539949     -0.29890641184567      0.02675451222953
  H   2.60965484402481     -0.02580022360412     -0.48131860997070
  H   1.55023562236185     -1.38038642488400     -0.08393713744996
  H   1.82868286091974     -0.09453709116826      1.09500090499729
