12
Coordinates from ORCA-job run
  C   -0.74822569527084      0.23384597586170     -0.12483095230680
  C   0.53198364586172      0.51131576878943     -0.46253510497305
  H   0.70778023672606      1.29637087862283     -1.18913893079087
  N   -1.13091637481869     -0.68778787346415      0.85571597158574
  H   -2.06072709710094     -1.05795482947949      0.72911723908050
  H   -0.45533251575373     -1.42344341180803      1.00132918578920
  C   -1.82167703684741      0.98060147655156     -0.71839202745742
  N   -2.71400730778826      1.57249722887079     -1.20493970064512
  C   1.69156802249739     -0.21159628156863      0.15439275612829
  H   1.65266813142057     -0.16339461283961      1.24810808032147
  H   1.70833583394108     -1.27202930982862     -0.12618210512711
  H   2.63955015713304      0.22157499029222     -0.16364441160481
