12
Coordinates from ORCA-job run
  C   -0.73699319653971      0.28231811806240     -0.08602322101983
  C   0.56128108949522      0.58725659111108     -0.31275806692983
  H   0.78993653663100      1.56114600060158     -0.73060724429713
  N   -1.19639372200805     -0.96011829838557      0.36367909080508
  H   -2.08490041969380     -0.92082426088033      0.83973372490525
  H   -0.51079304170040     -1.47294499548748      0.89828188412388
  C   -1.76171741404605      1.23580860121898     -0.40742395266028
  N   -2.61342140133424      2.00899644606540     -0.65237264894792
  C   1.66761953507614     -0.38567811837728     -0.03401059072714
  H   2.62770783716194      0.00460034553303     -0.37065183601853
  H   1.49624585931387     -1.33881708902622     -0.54612166042895
  H   1.76242833764410     -0.60174334043557      1.03727452119540
