12
Coordinates from ORCA-job run
  C   -0.73722191110879     -0.12446042370796     -0.01267654729639
  C   0.54767560052366     -0.52312754887130     -0.14502357309868
  H   0.72161952043475     -1.58036106679200     -0.34488146342444
  N   -1.86967693060212     -0.92848723525385     -0.21676863301426
  H   -2.61900832575036     -0.73314077458245      0.43185124257743
  H   -1.64824656743818     -1.91407885555580     -0.22870150757220
  C   -1.04020459281301      1.25590241535310      0.25826935815798
  N   -1.29842732032060      2.37645627999032      0.50502560042216
  C   1.74511237850360      0.37113746521749     -0.07446325793239
  H   2.28433848102587      0.37902445973526     -1.02671943164594
  H   1.46857752446057      1.39976270191063      0.16301185793324
  H   2.44646214308461      0.02237258255656      0.68907635489348
