12
Coordinates from ORCA-job run
  C   -0.73204533552504     -0.15060648499608     -0.03764739448714
  C   0.56900355212767     -0.51693539173393     -0.05239251404328
  H   0.78392265905555     -1.58350874082409     -0.11556578717975
  N   -1.82762196921051     -1.01156701569621     -0.20655429599916
  H   -1.57812360117621     -1.98362721565201     -0.09008273241690
  H   -2.61857332495509     -0.76918363969033      0.37299686904110
  C   -1.08824256473229      1.24076833071725      0.05234991686957
  N   -1.39004867693347      2.37322253758247      0.15093286861169
  C   1.73521298265967      0.42008740015679     -0.02362897627884
  H   1.41724176791831      1.45995722140754      0.06911377291557
  H   2.39712135242569      0.19077715970176      0.81646964511666
  H   2.33115315834573      0.32961583902683     -0.93699137214952
