12
Coordinates from ORCA-job run
  C   -0.70282297833215     -0.10256161477506      0.23457876658376
  C   0.55558258312979     -0.53466830811906     -0.00410122217665
  H   0.75998279866334     -1.59050745715642      0.17232925090409
  N   -1.73936371623031     -0.86586854738697      0.79346747908103
  H   -1.54373972404442     -1.85680012570514      0.77829884965876
  H   -2.64365524745930     -0.66759142354292      0.38984396216900
  C   -1.04552712840987      1.27741706753725      0.01264479955656
  N   -1.34281451366003      2.39701105849691     -0.19063140392626
  C   1.69585321518981      0.32141698249636     -0.45727412249688
  H   1.38176692889807      1.35037570067367     -0.64126693203142
  H   2.13220092812767     -0.07009717792238     -1.38070892669440
  H   2.49253685412739      0.34087384540378      0.29281949937241
