12
Coordinates from ORCA-job run
  C   -0.73520609979465     -0.15062426303520     -0.02732217560283
  C   0.56440914585142     -0.52288071717739     -0.03644352555415
  H   0.77390805840431     -1.59072884744770     -0.06250589252814
  N   -1.83783863076987     -1.01074291274677     -0.15928677140548
  H   -1.57924479372525     -1.97745131337073     -0.01289506119632
  H   -2.60966429794732     -0.75115674351210      0.44109389451813
  C   -1.07949256280545      1.24539408634511      0.04028591974150
  N   -1.35975367205769      2.38308725222274      0.13926208495900
  C   1.73168239548975      0.41196681058416     -0.07219147710684
  H   2.49083679063220      0.11416317034461      0.65509928125706
  H   2.20559287623909      0.41117699698252     -1.05897569776252
  H   1.43377079048348      1.43779648081075      0.15487942068059
