12
Coordinates from ORCA-job run
  C   -0.71735205183208     -0.19358951102005     -0.08818911503881
  C   0.53861796279525     -0.41664757172490      0.35939382329711
  H   0.70151389570688     -1.31667771439603      0.95194186500476
  N   -1.80363325343959     -1.07170994515518      0.05036027834485
  H   -1.63444900031104     -1.79109524376044      0.73912994485720
  H   -2.67936915326037     -0.60012441729996      0.22615232791559
  C   -1.00689614057482      0.97913869620781     -0.87032078899677
  N   -1.25978016141181      1.94763274504965     -1.48784627724660
  C   1.72657430137913      0.44946398138200      0.08144555566337
  H   2.48633228555273     -0.09918273789492     -0.48381375005189
  H   2.19393165181249      0.77783569535435      1.01441525960197
  H   1.45550966358321      1.33695602325766     -0.49266912335077
