12
Coordinates from ORCA-job run
  C   -0.73524871765453     -0.13631278062043      0.01729335042672
  C   0.54966708534654     -0.51403424056806     -0.16485787347587
  H   0.73323684312042     -1.56931405076259     -0.36595089874575
  N   -1.86086676152842     -0.96106865034004     -0.13642985162994
  H   -1.62268292787463     -1.94292828806418     -0.14891490752433
  H   -2.58665404915909     -0.77421530276952      0.54094301516009
  C   -1.05063764212088      1.24019315859148      0.29381264268565
  N   -1.31668486161121      2.35768728452925      0.54619094669021
  C   1.73436090145586      0.39989715744332     -0.14725384547292
  H   1.44983638969766      1.42689634618053      0.08736287964091
  H   2.23951244851675      0.40221138230853     -1.11801752386113
  H   2.46716129181153      0.07198798407173      0.59582206610636
