12
Coordinates from ORCA-job run
  C   -0.73644410403393      0.27198035945024     -0.10302528895608
  C   0.52507223017062      0.38591255253717     -0.57766255934262
  H   0.71347892073560      1.12014913593936     -1.35280118698439
  N   -1.14614384367760     -0.67618827536024      0.84212678379350
  H   -0.41230199279707     -0.94666678478075      1.48016354451851
  H   -1.98664769501539     -0.42024492093092      1.33778240141584
  C   -1.77993813197302      1.09665114887426     -0.64452695340226
  N   -2.64310653917039      1.77420237635642     -1.06774989414163
  C   1.64321086285990     -0.47826468058399     -0.07793289803300
  H   2.52514072274723     -0.38455255615587     -0.71166679094635
  H   1.94566759433059     -0.20896039186612      0.94166193770353
  H   1.35201197582347     -1.53401796347953     -0.06636909562506
