12
Coordinates from ORCA-job run
  C   -0.72067899873173      0.32594161469744     -0.07311407522069
  C   0.53033204550211      0.36434459333598     -0.58626665289610
  H   0.71443277961946      1.01975770023396     -1.42993677247108
  N   -1.09282138032965     -0.39818564583633      1.06475393165445
  H   -2.07074442211622     -0.64468475222167      1.09042726143250
  H   -0.50431398675886     -1.19929754982007      1.24021798751424
  C   -1.75213568140211      1.14658395486375     -0.64309095916093
  N   -2.61258724036492      1.80059852332143     -1.10710755724530
  C   1.65282365992333     -0.44234954603386     -0.00551619373838
  H   2.59787549942540     -0.21367801995099     -0.49768232541872
  H   1.77530524536928     -0.23981327308791      1.06415233183841
  H   1.48151247986389     -1.52021759950173     -0.11683697628839
