12
Coordinates from ORCA-job run
  C   -0.71305653157886     -0.19028601526724      0.12242547669208
  C   0.54363525308936     -0.45959594350088     -0.29629847671653
  H   0.71925179889561     -1.43663049303970     -0.74614186722269
  N   -1.78584980022895     -1.09552348394576      0.12998095205440
  H   -1.61021843953003     -1.90862339465814     -0.44339565652332
  H   -2.66969263552087     -0.66878602433985     -0.10853510197684
  C   -1.01723012677125      1.08403657105647      0.71743529132540
  N   -1.28242871388644      2.13176453646583      1.18133240757556
  C   1.71768069895391      0.45872243547401     -0.16330729060254
  H   2.48829462409130      0.01725204368942      0.47617306521583
  H   1.43287968561120      1.42012065068438      0.26755680757003
  H   2.17673418687505      0.64654911738146     -1.13822560739138
