15

C	-0.538074	-0.01182	-1.52863
C	0.023612	0.063949	-0.105703
Br	0.225633	-1.563458	-2.464675
H	1.110621	0.013914	-0.022475
H	-0.183822	0.844411	-2.106555
N	-1.981912	-0.080423	-1.675041
H	-2.323695	-0.856478	-1.118185
H	-2.363942	0.771671	-1.272976
C	-0.392693	-1.074612	0.826668
H	-1.452749	-1.063251	1.105922
H	0.255412	-0.984749	1.695851
H	-0.136894	-2.022325	0.3509
C	-0.4369	1.344697	0.417382
N	-0.856664	2.382821	0.780786
F	2.355249	-0.452052	0.837135
