18

C	0.0	0.0	0.0
C	-0.486192	0.131717	-1.461404
Br	1.975838	0.0	0.0
H	-1.575317	-0.000524	-1.400298
N	-0.472623	1.108802	0.773222
H	-1.468629	0.93576	0.93485
H	-0.406915	1.943405	0.19892
C	-0.433312	-1.292076	0.6709
H	-1.52267	-1.364669	0.605655
H	-0.132769	-1.237733	1.718639
H	0.018216	-2.167138	0.209205
N	0.012649	-1.019343	-2.333456
O	-0.483655	-2.127147	-2.144527
O	0.874127	-0.771682	-3.178935
N	-0.154947	1.400063	-2.015949
H	-0.747542	1.598088	-2.809868
H	0.812009	1.404497	-2.315258
Br	-3.827806	0.0	0.0
