18

C	0.0	0.0	0.0
C	-0.516503	0.084552	-1.461582
Br	1.965352	0.0	0.0
H	-1.594836	-0.109049	-1.393056
N	-0.479621	1.202148	0.645046
H	-1.505606	1.136867	0.607449
H	-0.22157	1.157742	1.626901
C	-0.421208	-1.284439	0.704854
H	-1.513234	-1.331348	0.682266
H	-0.00542	-2.173742	0.233987
H	-0.082041	-1.245216	1.743745
N	0.053785	-1.041492	-2.282
O	-0.454239	-2.153962	-2.138568
O	0.996402	-0.788515	-3.027989
N	-0.284558	1.312411	-2.156009
H	0.67611	1.606824	-2.010415
H	-0.888081	2.009869	-1.736782
Br	-3.799673	0.0	0.0
