17

C	0.0	0.0	0.0
C	-0.538624	0.080111	-1.435754
F	1.389313	0.0	0.0
H	-1.617972	-0.134015	-1.346886
C	-0.484647	1.130198	0.881856
H	-0.130785	0.964717	1.901047
H	-0.076787	2.074578	0.518803
H	-1.576989	1.145563	0.864908
C	-0.375735	-1.308212	0.580395
N	-0.577204	-2.376758	1.023372
C	0.098849	-0.949862	-2.257786
N	0.620362	-1.741709	-2.951452
C	-0.356069	1.460506	-2.071715
H	0.678672	1.801047	-1.985162
H	-1.024461	2.175437	-1.590756
H	-0.620181	1.415205	-3.129535
Br	-3.804321	0.0	0.0
