14

C	0.0	0.0	0.0
C	-0.553481	-0.105036	-1.422664
Cl	1.793386	0.0	0.0
H	-0.279987	-1.081426	-1.833893
H	-1.652204	-0.05552	-1.317594
C	-0.381956	1.284913	0.599863
N	-0.598901	2.332182	1.085642
C	-0.499324	-1.163398	0.845282
H	-0.142846	-2.101489	0.412412
H	-0.12115	-1.076776	1.865226
H	-1.592677	-1.130883	0.843556
C	-0.072905	0.943174	-2.315572
N	0.30886	1.773307	-3.05293
Cl	-3.66298	0.0	0.0
