14

C	0.0	0.0	0.0
C	-0.550562	0.346451	-1.385353
Cl	1.793042	0.0	0.0
H	-0.273535	-0.452186	-2.080219
H	-1.649303	0.360427	-1.27464
C	-0.380011	1.032436	0.973215
N	-0.592916	1.864112	1.775017
C	-0.50267	-1.367993	0.437026
H	-0.126505	-1.607442	1.432783
H	-0.147352	-2.123236	-0.268844
H	-1.595831	-1.333354	0.442568
C	-0.068403	1.621095	-1.904615
N	0.309549	2.634409	-2.361272
Cl	-3.658904	0.0	0.0
