14

C	0.0	0.0	0.0
C	-0.533722	-0.190974	-1.421961
Cl	1.796252	0.0	0.0
H	-0.242471	-1.186483	-1.770432
H	-1.633025	-0.145372	-1.340022
C	-0.38443	1.31767	0.521084
N	-0.601678	2.384926	0.960952
C	-0.499784	-1.115563	0.905071
H	-0.127117	-2.07249	0.53066
H	-0.136764	-0.965706	1.922852
H	-1.5933	-1.09437	0.88676
C	-0.043255	0.806659	-2.366325
N	0.354686	1.590572	-3.14424
Cl	-3.646755	0.0	0.0
