14

C	0.0	0.0	0.0
C	-0.277324	0.238635	-1.511952
Cl	1.795917	0.0	0.0
H	0.39488	-0.449489	-2.033654
H	0.076701	1.246605	-1.749253
C	-0.423827	1.124071	0.833572
N	-0.674908	2.027872	1.540791
C	-0.508653	-1.331781	0.512164
H	-0.132419	-2.132639	-0.129843
H	-1.602344	-1.294135	0.483847
H	-0.161125	-1.497298	1.534124
C	-1.575293	0.053641	-2.170324
N	-2.319854	-0.089074	-3.070627
Cl	-3.563344	0.0	0.0
