14

C	0.0	0.0	0.0
C	-0.541879	-0.181317	-1.42054
Cl	1.793093	0.0	0.0
H	-1.641893	-0.138777	-1.330263
H	-0.251778	-1.173821	-1.779313
C	-0.382007	1.314857	0.530653
N	-0.624018	2.372753	0.979877
C	-0.501301	-1.117908	0.901716
H	-0.129331	-2.074869	0.526675
H	-0.137354	-0.970954	1.919989
H	-1.595105	-1.096057	0.885107
C	-0.060664	0.824521	-2.360837
N	0.329765	1.614634	-3.136474
Cl	-3.659238	0.0	0.0
