14

C	0.0	0.0	0.0
C	-0.556839	-0.563329	-1.311847
Cl	1.79539	0.0	0.0
H	-1.655772	-0.500472	-1.217749
H	-0.231843	0.051518	-2.155413
C	-0.385486	1.413255	0.097972
N	-0.599889	2.565428	0.175312
C	-0.491244	-0.786229	1.206667
H	-1.584174	-0.749369	1.205493
H	-0.144584	-1.819189	1.128131
H	-0.098311	-0.346612	2.125029
C	-0.142576	-1.943792	-1.534048
N	0.191524	-3.052525	-1.728338
Cl	-3.659725	0.0	0.0
