15

C	-0.3582	0.127173	-1.484396
C	0.0	0.0	0.0
Cl	-0.208804	-1.525147	-2.310097
H	1.097148	0.0	0.0
H	-1.411978	0.374571	-1.635144
N	0.484373	1.114403	-2.047689
H	0.370785	1.182231	-3.0496
H	1.457847	0.91413	-1.819889
C	-0.549011	-1.194301	0.625714
N	-1.042652	-2.098559	1.189974
C	-0.461641	1.246538	0.764802
H	-0.022533	2.129138	0.30162
H	-1.552736	1.336298	0.759017
H	-0.120417	1.187797	1.799901
Cl	3.349756	0.0	0.0
