15

C	-0.277516	-0.076714	-1.493135
C	0.0	0.0	0.0
Cl	-2.055593	-0.205611	-1.853585
H	1.099035	0.0	0.0
H	-0.001138	0.89055	-1.928564
N	0.407253	-1.209608	-2.044141
H	1.353709	-1.216253	-1.665606
H	0.463532	-1.130469	-3.051521
C	-0.476487	-1.192447	0.693764
N	-0.861308	-2.125633	1.293922
C	-0.514086	1.273712	0.659697
H	-1.605427	1.323986	0.636907
H	-0.176609	1.313391	1.696949
H	-0.103294	2.143328	0.140572
Cl	3.323397	0.0	0.0
