15

C	-0.3598	0.132086	-1.485632
C	0.0	0.0	0.0
Cl	-0.223649	-1.513756	-2.317901
H	1.097171	0.0	0.0
H	-1.412877	0.384495	-1.631804
N	0.485866	1.118012	-2.045952
H	0.36578	1.193439	-3.046848
H	1.460568	0.915693	-1.823434
C	-0.550614	-1.200579	0.614813
N	-1.044296	-2.123785	1.149186
C	-0.459651	1.245915	0.766009
H	-0.016831	2.127294	0.303855
H	-0.119476	1.186497	1.801464
H	-1.550334	1.340194	0.758396
Cl	3.351875	0.0	0.0
