15

C	-0.549426	0.004835	-1.426075
C	0.0	0.0	0.0
Cl	0.169108	-1.332461	-2.36363
H	1.09482	0.0	0.0
H	-1.625447	-0.222345	-1.39273
N	-0.243883	1.260027	-2.089933
H	-0.293209	1.133505	-3.092642
H	-0.939009	1.948336	-1.824692
C	-0.492699	-1.18884	0.695356
N	-0.931087	-2.107611	1.281853
C	-0.450473	1.257656	0.752906
H	-0.119474	1.198508	1.79077
H	0.026278	2.126653	0.299175
H	-1.540531	1.376442	0.743316
Cl	3.396406	0.0	0.0
