15

C	-0.256616	0.005978	-1.509329
C	0.0	0.0	0.0
Cl	-2.028318	-0.010777	-1.870935
H	1.098491	0.0	0.0
H	0.114367	0.957133	-1.896437
N	0.389295	-1.058157	-2.231089
H	0.113585	-1.947538	-1.825935
H	1.390647	-0.951212	-2.066247
C	-0.478954	-1.242573	0.593118
N	-0.892874	-2.238522	1.059056
C	-0.518898	1.225818	0.740535
H	-1.610363	1.266054	0.73786
H	-0.127644	2.126317	0.259926
H	-0.161831	1.216426	1.771867
Cl	3.317534	0.0	0.0
