15

C	-0.465045	-0.030399	-1.460528
C	0.0	0.0	0.0
Cl	-0.031038	1.497344	-2.288774
H	1.095243	0.0	0.0
H	0.120777	-0.794097	-1.983492
N	-1.903457	-0.19341	-1.559477
H	-2.159067	-1.063169	-1.103043
H	-2.164985	-0.263896	-2.536
C	-0.447806	-1.254945	0.60593
N	-0.872494	-2.241466	1.083889
C	-0.524593	1.190602	0.802283
H	-0.23808	1.077739	1.849243
H	-0.066911	2.10498	0.425986
H	-1.610308	1.270985	0.725728
Cl	3.358982	0.0	0.0
