14
Coordinates from ORCA-job run
  C   -0.61623632280006     -0.05509488256807      0.34155146623496
  C   -0.01911084860277      0.29135902842449     -1.03030718525570
  Br  -2.62701506347571      0.13023610941852     -0.02861141066343
  H   -0.38711045663898     -0.36901659214427     -1.81288661064765
  H   -0.21165176068227      1.33423400959536     -1.27574072108600
  N   -0.20913673658336     -1.33716479911834      0.72358649425661
  H   -0.58545952819696     -1.58946924886390      1.62733341058859
  H   -0.37938396620061     -2.05442404745673      0.03249702403660
  N   -0.35995860780128      0.83483814062259      1.43025465208939
  H   0.64313809598851      0.89718677540909      1.57044489635221
  H   -0.73256379874153      1.75710903961658      1.24817148289578
  N   1.45958620306871      0.10379023675892     -0.96816481135751
  O   2.09419677403873      0.92479677145447     -0.30665844916926
  O   1.93170601662757     -0.86938054114872     -1.54947023827457
