14
Coordinates from ORCA-job run
  C   -0.46759222548207     -0.05395063618097      0.32321064373835
  C   0.44684087486372      0.67715868831325     -0.66319947753565
  Br  -2.10580831584168     -0.68452025999992     -0.65683043930245
  H   -0.10706318594543      1.41094606522095     -1.24688040880900
  H   1.24450555694875      1.15015414034030     -0.09062444820706
  N   0.16831342213779     -1.24232645294845      0.80077975604016
  H   -0.46459894796023     -1.80238346082852      1.35693850269994
  H   0.98479896955922     -0.99395157033797      1.34950347785526
  N   -0.80722843466948      0.88578734995165      1.34814021073678
  H   -1.39855110048431      0.44544209845467      2.04358132411257
  H   -1.30657484661587      1.68511122259320      0.97300196323207
  N   1.10436073490180     -0.25853130851934     -1.61178882775333
  O   0.51033057083037     -0.51927209136469     -2.65392120525707
  O   2.19926692775742     -0.70066378469416     -1.27091107155058
