14
Coordinates from ORCA-job run
  C   -0.46814074058521     -0.12740208476424      0.41053871584229
  C   0.57151190408008     -0.32430391104669     -0.69631048592510
  Br  -2.10276969015005      0.63350891047392     -0.55990164284855
  H   1.50489021666773     -0.65568154570769     -0.23171386183240
  H   0.21862300045796     -1.05033789647801     -1.42433963612772
  N   -0.93205959416881     -1.35856444213965      0.97935877849859
  H   -1.34426976970495     -1.97220427067578      0.28982164228335
  H   -0.17077488892629     -1.81485816947044      1.46888875650518
  N   0.01756100741627      0.66944032986478      1.45317137894222
  H   -0.69069331720273      0.80258078595577      2.16282614729790
  H   0.39995655482874      1.54698483064650      1.12846779368619
  N   0.90475264705128      0.90941421578571     -1.46800698344428
  O   0.89086869238285      0.82730697855215     -2.69097894513847
  O   1.20054397785314      1.91411626900366     -0.82182165773920
