14
Coordinates from ORCA-job run
  C   -0.56957465224512     -0.02564571494747      0.23498497483643
  C   0.41651906982028      0.65566117516237     -0.71483310412742
  Br  -2.15948094798711     -0.61633516272855     -0.77057629153575
  H   -0.11169236521834      1.32966863137454     -1.38307191623634
  H   1.15714405286562      1.19717524919319     -0.12338353174836
  N   0.02812632500515     -1.19356405229268      0.80142753203115
  H   0.98065213831036     -1.03329334278434      1.10586228647946
  H   -0.53547539576952     -1.58647176643704      1.54286044171219
  N   -1.04535656318292      1.03561542095461      1.11200334783831
  H   -1.91738597557166      0.77010038773634      1.55329540803242
  H   -0.35074654737041      1.18794380686631      1.83751318393893
  N   1.17735257882860     -0.32477157994385     -1.53287169893510
  O   2.22406136899432     -0.75120017137928     -1.04397723200084
  O   0.70585691352076     -0.64488288077414     -2.61923340028507
