14
Coordinates from ORCA-job run
  C   -0.36598809709511      0.02644670385227      0.44840361826164
  C   0.66525007064271      0.59828666331835     -0.51413544794737
  Br  -2.03022192240514     -0.42612930393646     -0.81646603836919
  H   0.32214406950628      1.54374576626942     -0.92546753409303
  H   1.59683069608510      0.73016572615381      0.04178194031610
  N   0.07264774502018     -1.11369612694577      1.12151830833737
  H   -0.66454429383899     -1.55086325814580      1.65890141579936
  H   0.48967274786809     -1.78134244066737      0.48638867715159
  N   -0.74743533523346      1.05009198393309      1.34195349462288
  H   -1.22183308909066      0.68279945015182      2.15658512643436
  H   -1.33428076824354      1.74028948471646      0.89330787069294
  N   0.97838183823236     -0.28074739484952     -1.67493539658764
  O   1.28589659667492     -1.44684762727807     -1.42760267286747
  O   0.95247974187727      0.22780037342778     -2.78923336175156
