14
Coordinates from ORCA-job run
  C   -0.72575890849044      0.01591107582485      0.27761516989607
  C   0.03553164838214      0.53052559506394     -0.95478745688564
  Br  -2.65130282799372      0.37198675106262     -0.24799164177136
  H   -0.31744638543685      0.03896522452862     -1.85677759618906
  H   -0.03607426969175      1.61464471982331     -1.03174577123455
  N   -0.67423266423756     -1.39822627534927      0.51870091777801
  H   0.27249186359324     -1.67902043668196      0.75031534058433
  H   -1.01271083933758     -1.93924518576361     -0.26681756630897
  N   -0.37531455098644      0.75334825809867      1.41783699461213
  H   0.53724520623725      1.18245089614402      1.38699167013872
  H   -0.56439515062623      0.25421524997384      2.27388791957879
  N   1.47752415756016      0.18154698602626     -0.80845008157618
  O   2.16515133264118      0.91821672966000     -0.09793378863119
  O   1.87029138838661     -0.84531958841131     -1.35984410999109
