14
Coordinates from ORCA-job run
  C   -0.72886389185553     -0.06607088958908      0.26205739395951
  C   -0.01194741988137      0.06857973616633     -1.09110051469835
  Br  -2.66849190798004      0.18230345700907     -0.27015388261765
  H   -0.26709644502990      1.00989604675975     -1.56921263583558
  H   -0.23178135615470     -0.78343158125058     -1.73307198273691
  N   -0.52209770573816     -1.34320764453114      0.80508760291032
  H   0.32751547746087     -1.79964058983927      0.50843900995438
  H   -0.66896764958135     -1.36453907233737      1.80308374325492
  N   -0.48336118481076      0.97131996571027      1.22342509795584
  H   0.48536136047461      0.94885847532028      1.52314443410247
  H   -0.71452059456078      1.89137598513793      0.87072126178521
  N   1.45993349151150      0.09006930637136     -0.85476363602557
  O   2.01740461358206     -0.99599550360985     -0.68075327450511
  O   2.00791321256355      1.18948230868230     -0.79490261750348
