14
Coordinates from ORCA-job run
  C   -0.35719755636074      0.03498066673235      0.45472915876680
  C   0.63172184362250      0.59680185773833     -0.55680120827429
  Br  -2.02920822611777     -0.53886990077916     -0.74984918084881
  H   0.24509237603423      1.50812871553624     -1.00497122546378
  H   1.56928943731637      0.78918401199895     -0.02937472860565
  N   0.13772675343503     -1.05444591740498      1.17142066459974
  H   0.56566963201262     -1.73671360047107      0.55949051275016
  H   -0.57153100256907     -1.49119854933561      1.74551886082842
  N   -0.75873940740674      1.08585761739478      1.30671965039035
  H   -1.38117761943564      1.73099800036148      0.83942255081048
  H   -1.20047090931150      0.74149472860170      2.14923033289479
  N   0.95322681570755     -0.32556656742068     -1.68127228218357
  O   1.30888609619677     -1.46648796758745     -1.38550772532939
  O   0.88471176687638      0.12683690463512     -2.81775538033525
