14
Coordinates from ORCA-job run
  C   -0.44576580171307     -0.20013078432466      0.40174830982286
  C   0.59933806012800     -0.27327023440457     -0.72202994462803
  Br  -2.16126692604878      0.40035780226204     -0.50030322949534
  H   1.57137801909392     -0.47091414425094     -0.26401050172702
  H   0.35102942467195     -1.04457453751657     -1.44889079339754
  N   -0.53697859289490     -1.49400169398692      0.96547958397861
  H   -0.83338268464283     -2.19187112735489      0.29617136400227
  H   -1.17937102802974     -1.47539357259194      1.74858301663796
  N   -0.22196978827499      0.71973998027495      1.47172288222529
  H   -0.08790370634150      1.65774461619354      1.11805423479659
  H   0.61166167762666      0.43100512171843      1.97362928846551
  N   0.73579284893499      0.99424880572695     -1.48837645239247
  O   0.58477158263531      0.93989994768423     -2.70455865339056
  O   1.01266691485498      2.00615982057034     -0.84521910489813
