14
Coordinates from ORCA-job run
  C   -0.50482793027560     -0.04492783714794      0.38312889183184
  C   0.61426004580113      0.57307389932759     -0.45980645401656
  Br  -2.02376240755064     -0.37041589099528     -0.95150598914457
  H   1.49242702117683      0.69875392732216      0.18037478113997
  H   0.29483096307579      1.52494867349132     -0.87638867635460
  N   -0.07654583204116     -1.18483751899431      1.07211404527082
  H   0.36588987954859     -1.86376440030458      0.46796802036221
  H   -0.83527472356317     -1.58752848149615      1.60605458624670
  N   -1.06167622788394      0.86357667449748      1.34187121840333
  H   -0.36151012078924      1.09476226601141      2.03739832648004
  H   -1.43921701152456      1.69664977832157      0.91128948710710
  N   1.05735501629772     -0.25944607696434     -1.61700150132373
  O   1.13888597469779      0.29356974902795     -2.70793771056652
  O   1.33916535303045     -1.43541476209689     -1.38855902543603
