14
Coordinates from ORCA-job run
  C   -0.56504236213599      0.00093543360239      0.34326699413074
  C   0.42392896325779      0.57699136828365     -0.68411330444962
  Br  -2.07174914833128     -0.75400053546365     -0.67746853087135
  H   1.30071346601712      0.96190365196361     -0.15382380293945
  H   -0.05381495902150      1.35705438145560     -1.27041752640498
  N   -0.09549490880165     -1.05085473881706      1.20624611496350
  H   0.65836191494231     -0.69092879522374      1.78362182082718
  H   0.26614197176096     -1.83173549749097      0.67131486660507
  N   -1.05999214768425      1.13457652916228      1.07824068408268
  H   -1.71466599761157      0.80106347502073      1.77773546232993
  H   -0.29004517889009      1.59339012874629      1.55685887767485
  N   0.93493107460718     -0.44202980523521     -1.63909789427626
  O   0.69220094654149     -0.27487843365259     -2.83006788703645
  O   1.57352636534948     -1.38148716235133     -1.16329587463584
