14
Coordinates from ORCA-job run
  C   -0.45081616552917     -0.04867762050026      0.34638343597721
  C   0.37022371127250      0.62192653095472     -0.75816806178961
  Br  -2.06271570591856     -0.91861664695382     -0.48234747311618
  H   -0.25969180739134      1.23412158412261     -1.40193721109675
  H   1.14489115774253      1.22166747024940     -0.28061621668368
  N   0.29276215277157     -1.11708043867442      0.93827317416793
  H   1.09952752714571     -0.74094773573112      1.42510717959802
  H   -0.27728055686154     -1.65532994197570      1.57758653755616
  N   -0.83196413721790      0.98232371897885      1.26308358033504
  H   -1.40433283066816      1.69000622442888      0.81528278905747
  H   -1.36410932829935      0.58829266904709      2.03037839049293
  N   1.07018825137731     -0.37126943084073     -1.61376715051153
  O   0.46558476063655     -0.80195552679027     -2.59137198161186
  O   2.20673297093985     -0.68446085631521     -1.26688699237514
