14
Coordinates from ORCA-job run
  C   -0.55849465924957     -0.03527742089869      0.25841813123379
  C   0.34719550785484      0.59380422682991     -0.80096860950812
  Br  -2.13453549252563     -0.84208029731422     -0.60916655181271
  H   -0.24750967400651      1.15005751996348     -1.51985323885328
  H   1.06682788237249      1.24770454005850     -0.30484572507942
  N   0.13681131206849     -1.08772459280414      0.93027331053275
  H   1.08392829734945     -0.82904258546744      1.17900604707844
  H   -0.37512920666982     -1.42855064624498      1.73251485651746
  N   -1.07890985429051      1.08757703232741      1.02701801563707
  H   -0.37398053114945      1.36736141167616      1.70298300018142
  H   -1.91604528046501      0.81854644935312      1.52956687122586
  N   1.14780039292625     -0.42358353316605     -1.53138931311222
  O   2.23760402680965     -0.71919806518999     -1.04005233865441
  O   0.66443727897533     -0.89959403912307     -2.55350445538663
