14
Coordinates from ORCA-job run
  C   -0.31192031518807     -0.26011003532344      0.41332483729960
  C   0.32262614682258     -0.16094557525299     -0.96664337160676
  Br  -1.72651683944141      1.34445296316563      0.42768292666804
  H   -0.40656885131689     -0.38441845532610     -1.74069243248638
  H   1.15425451986042     -0.86925175588181     -0.99819310297131
  N   -1.01761125490111     -1.47986862301642      0.48538567776994
  H   -1.24216332538779     -1.73126044055597      1.43927147967069
  H   -1.86508791478035     -1.45641137533765     -0.06526007223310
  N   0.60305242130905     -0.12667237998605      1.45761871742993
  H   0.15053036776965     -0.06978029633292      2.36059171922336
  H   1.21140009322221      0.66909967208816      1.31724769508834
  N   0.88767933003182      1.17875165301864     -1.29052804186982
  O   0.57932758550117      1.67423874081963     -2.36773477229088
  O   1.66199803649872      1.67317590792131     -0.47107125969164
