14
Coordinates from ORCA-job run
  C   -0.42078414112543     -0.14699882730897      0.45288431923040
  C   0.31596185134249     -0.16213146579997     -0.88924928647489
  Br  -1.79670788684417      1.35779698353258      0.25856856831270
  H   -0.36928483969493     -0.40638907038995     -1.69695482654906
  H   1.12536262705722     -0.89534013958357     -0.82501437580685
  N   -1.20857349325457     -1.32244955430771      0.68178454966018
  H   -1.90400766529565     -1.46787819380623     -0.03736272995287
  H   -0.59938662605205     -2.12759339208413      0.77167844652449
  N   0.45617339287262     -0.00225768199384      1.53335570062649
  H   1.07713244379955      0.78855915937877      1.42988360491221
  H   -0.05257937320239      0.02474678596152      2.40707020616531
  N   0.95583700789085      1.13336650929669     -1.26554314412431
  O   0.74259147706832      1.55687166231918     -2.39595934329921
  O   1.67726522543815      1.66969722478563     -0.42514168922460
