14
Coordinates from ORCA-job run
  C   -0.30381391290905     -0.28571382307299      0.40204630552063
  C   0.28992781862807     -0.09219891865838     -0.98605018789975
  Br  -1.68986995459673      1.33235964320365      0.58128993461658
  H   -0.46628937926541     -0.24580651364486     -1.75114937101259
  H   1.10791674958027     -0.80832647578494     -1.09698371657707
  N   -1.02688193903219     -1.49798954068711      0.40493652356780
  H   -1.89200571086825     -1.41981286841383     -0.11226789465682
  H   -1.22381520659739     -1.81736060946288      1.34453334402479
  N   0.64499080485323     -0.24502054821431      1.42379815686825
  H   1.26313265008271      0.54932097964514      1.32386631850428
  H   0.22112918446302     -0.24844522544444      2.34235316146064
  N   0.86712819248178      1.25970117593877     -1.22610942520602
  O   1.67648031194702      1.67815397998731     -0.39821764514319
  O   0.53197039123293      1.84113874460885     -2.25104550406756
