14
Coordinates from ORCA-job run
  C   -0.32481939582108      0.05182989120433      0.53992948566041
  C   0.13375268171293      0.38600564979277     -0.88799923236913
  Br  0.98523732390107      1.00422371834615      1.76069609635710
  H   -0.46665262761422     -0.20822242262752     -1.58087394989480
  H   0.03137222197597      1.44838475030867     -1.10205220008089
  N   -1.65144273334355      0.52629544174450      0.66848571405237
  H   -1.72211400866092      1.52642733984556      0.53526490256388
  H   -2.00994641478556      0.27714052009558      1.58271989485894
  N   -0.31757454819652     -1.31754207793567      0.94684150568878
  H   0.59743688293290     -1.72779856282671      0.81552860699042
  H   -0.99349687251699     -1.82294317282234      0.38307964808014
  N   1.55708110051923      0.04275915492339     -1.14929188819998
  O   2.29141676570867      0.93916667619465     -1.55171273191674
  O   1.89074962418807     -1.12672690624335     -0.96161585179049
