14
Coordinates from ORCA-job run
  C   -0.42109112285592     -0.00953186143522      0.47156514221284
  C   0.36788210246809      0.54005644452513     -0.72694063658430
  Br  -1.97193043551592     -1.03902430146020     -0.33378462183159
  H   -0.21670585211837      1.26395747917438     -1.29189604873524
  H   1.28420090231456      0.99605962574990     -0.34472248006245
  N   0.23944103068125     -0.91910926296647      1.35314258513680
  H   0.61121225307583     -1.70945608726522      0.84330276000640
  H   1.00188539054720     -0.42755710441325      1.80831620995514
  N   -0.83197406708632      1.10469974270283      1.24048700717021
  H   -1.43159698144559      1.73460476538867      0.72407831804709
  H   -1.31204362227212      0.78034699289961      2.07160397232284
  N   0.78193719327252     -0.50954674872015     -1.69588172692562
  O   0.44080843335481     -0.36718370902317     -2.86554010783152
  O   1.45797477557997     -1.43831597515683     -1.25473037288060
