14
Coordinates from ORCA-job run
  C   -0.63383220448593      0.00230684648838      0.31300558647515
  C   0.05313216352180      0.28328846854720     -1.03177414945620
  Br  -2.58730847229337      0.45734952978765     -0.12192757899519
  H   -0.09973279118257      1.30926044628523     -1.36035724098576
  H   -0.28665453859933     -0.42419571539490     -1.78602173938594
  N   -0.66695318394079     -1.34792588476120      0.78114592923406
  H   -1.17226769535191     -1.94741414261528      0.14252284741125
  H   0.28627683358919     -1.68269304205304      0.87633020879886
  N   -0.05826507404707      0.79385282648449      1.31155268635903
  H   -0.48821397674077      0.62409716966422      2.21058283993585
  H   -0.01751257946721      1.77990238660950      1.09478567780132
  N   1.52383491956038      0.09911248904532     -0.86377195161719
  O   2.22255276536162      1.10871864861625     -0.84658213677683
  O   1.92394383407595     -1.05566002670382     -0.71949097879840
