13

C	0.0	0.0	0.0
C	-0.286145	0.080072	-1.511849
Cl	1.769947	0.0	0.0
H	0.326041	0.89821	-1.898725
H	0.13105	-0.8394	-1.933217
N	-0.430698	1.252797	0.733952
O	-0.496745	2.274628	0.064807
O	-0.548714	1.163367	1.945518
C	-0.510061	-1.198568	0.653351
N	-0.631474	-2.257795	1.152692
C	-1.641621	0.2495	-2.037597
N	-2.451956	0.401049	-2.879816
F	-2.28512	0.0	0.0
