13

C	0.0	0.0	0.0
C	-0.317188	-0.145975	-1.502572
Cl	1.770112	0.0	0.0
H	-0.060173	-1.179698	-1.761326
H	0.385501	0.494228	-2.04161
N	-0.409111	1.359701	0.530918
O	-0.452627	2.265334	-0.28964
O	-0.530872	1.463702	1.741299
C	-0.500773	-1.068165	0.850509
N	-0.594788	-2.025981	1.528624
C	-1.65699	0.155473	-2.015164
N	-2.461874	0.384093	-2.845826
F	-2.280892	0.0	0.0
