13

C	0.0	0.0	0.0
C	-0.322309	-0.174183	-1.499465
Cl	1.76988	0.0	0.0
H	-0.090947	-1.219811	-1.728924
H	0.394401	0.434849	-2.055015
N	-0.40772	1.3682	0.508459
O	-0.532092	1.492214	1.716863
O	-0.448675	2.260494	-0.32678
C	-0.499294	-1.053145	0.870252
N	-0.597532	-1.995285	1.568882
C	-1.652896	0.142581	-2.022381
N	-2.455297	0.374806	-2.853976
F	-2.27794	0.0	0.0
