15

C	-0.455118	-0.005649	-1.41025
C	0.0	0.0	0.0
F	-0.032908	1.014434	-2.140241
H	1.089049	0.0	0.0
H	-0.303866	-0.913253	0.504206
N	0.038224	-1.291494	-2.094572
O	0.456848	-1.170265	-3.237399
O	-0.06927	-2.327657	-1.451951
N	-1.982242	-0.101988	-1.599103
O	-2.469611	0.507415	-2.54157
O	-2.572756	-0.824648	-0.8042
N	-0.568605	1.12567	0.737887
O	-1.278169	1.93947	0.131739
O	-0.295961	1.196648	1.93335
F	2.471936	0.0	0.0
