13
Coordinates from ORCA-job run
  C   -0.56155131913601     -0.69104513331399      0.05073413899864
  C   0.67254587397119     -0.15096770205705      0.04763599905966
  H   -0.58611582881319     -1.75783349105913      0.26659619304250
  C   -1.87718244878977     -0.02542291021309     -0.22686884780916
  H   -2.68893539531170     -0.66112810501968      0.12985810548137
  H   -2.02188134990008      0.14531122402826     -1.29655267801258
  H   -1.96154407830490      0.94756430580076      0.25858581541237
  N   1.88685444271303     -0.80512401982454      0.19785119759948
  H   2.56588226761207     -0.24999777982454      0.69822600803120
  H   1.78824623238628     -1.73308168878406      0.58040461158317
  N   0.87166511619049      1.28984118571542     -0.18390883058038
  O   0.02479124373161      1.90318632743288     -0.82858397438783
  O   1.88722524365099      1.78869778711874      0.30602226158157
