13
Coordinates from ORCA-job run
  C   -0.72060758331160      0.24937280510080     -0.49855360122795
  C   0.51755213170180      0.27405946447150      0.02326695210821
  H   -0.95688050519943      0.95896660376497     -1.28061442622835
  C   -1.74461425842731     -0.73085428318643     -0.01700732497107
  H   -1.67335646993067     -0.86801863618335      1.06629565596360
  H   -2.75319695597383     -0.38843534016626     -0.25052294079975
  H   -1.62172963034644     -1.71543379913117     -0.48439467104938
  N   1.02039197243971     -0.53061936695405      1.02825119809472
  H   0.72580250697125     -1.49269641565356      0.96416927090709
  H   2.01896672128757     -0.43200803688735      1.13726930014702
  N   1.47764376711602      1.29941541921946     -0.44863527916865
  O   2.63578524771483      1.20114956321618     -0.03483690402721
  O   1.07624305595810      2.17310202238926     -1.20768722974828
