13
Coordinates from ORCA-job run
  C   -0.82043977443024      0.38380821766326      0.08802852767725
  C   0.51767640430526      0.26066420478544      0.08416947377136
  H   -1.24513715728418      1.30639009204954      0.46162573920020
  C   -1.70318963062827     -0.72087529658504     -0.40343280398027
  H   -1.25337869277512     -1.22591170374090     -1.26345049835762
  H   -1.88180895664162     -1.47742716477758      0.37024485587562
  H   -2.67753865191442     -0.33579552491634     -0.70615616252633
  N   1.25962465599704     -0.82131481548116     -0.35255789748078
  H   2.23698458520665     -0.73700673853899     -0.11457650875209
  H   0.86896536809973     -1.71263119017597     -0.08879168421052
  N   1.34683608165737      1.40572759215949      0.52899078483680
  O   2.55996396673221      1.20280579029052      0.62538771269050
  O   0.79344180167559      2.47156653726773      0.77051846125588
