13
Coordinates from ORCA-job run
  C   -0.72251948447416      0.33544129051600     -0.43956974337792
  C   0.52837898902956      0.24803213913363      0.04357447740484
  H   -0.94838760296764      1.14579532945608     -1.12032964886527
  C   -1.77528128490249     -0.65675497634453     -0.05482841187463
  H   -1.66062827115759     -0.96179837281177      0.98953071378205
  H   -2.77289788033573     -0.23347227627413     -0.17746121685052
  H   -1.73091187366812     -1.56173336040761     -0.67267898797433
  N   1.02480998173403     -0.69703673434312      0.92235456732124
  H   2.02789443757856     -0.64059392847813      1.01989866129229
  H   0.70314768283666     -1.63373888886738      0.73346021948445
  N   1.51623185712588      1.28982880728378     -0.32540523939074
  O   1.13087527186270      2.26530424242327     -0.95816704979777
  O   2.67928817733835      1.09972672871392      0.03962165884631
