13
Coordinates from ORCA-job run
  C   -0.63994490717190      0.11799931643677     -0.63480373352537
  C   0.50453777551377      0.29205144938436      0.04732459913556
  H   -0.75963118789042      0.64965073233063     -1.56982594199002
  C   -1.71886421763364     -0.78687379307647     -0.12746936682318
  H   -2.69067074550445     -0.49713883743501     -0.52906770833783
  H   -1.77720796652883     -0.75137891424036      0.96429210430849
  H   -1.54809355095861     -1.83029435759121     -0.41854068197087
  N   0.85882516162460     -0.28418463674573      1.25364269162957
  H   0.61235438130537     -1.25942136103613      1.32245675055245
  H   1.82322313919722     -0.10694310557436      1.49332542362554
  N   1.51456077666727      1.24428071683733     -0.47453100600451
  O   2.59431370149477      1.28244539418809      0.12106330962318
  O   1.22659763988487      1.92980739652209     -1.44786644022300
