13
Coordinates from ORCA-job run
  C   -0.79916069040081      0.43528698309955      0.02970939798046
  C   0.52952330750291      0.24679845580713     -0.03992166179096
  H   -1.16363720786704      1.44878029302734      0.13486665089084
  C   -1.75079635433677     -0.71870317074093     -0.02991249855620
  H   -1.39597294825025     -1.48081639577354     -0.73018874456664
  H   -1.87469203177923     -1.19845603650500      0.94851218889693
  H   -2.73947037697072     -0.39278369691202     -0.35479283326103
  N   1.19995292563487     -0.95415006748883     -0.18100986878675
  H   2.19661904672120     -0.85452918059789     -0.05634071895710
  H   0.80961392682187     -1.70269877075644      0.37025219803065
  N   1.42532639119793      1.42727766153550     -0.03267647895543
  O   2.63640658665403      1.19919022091515      0.02572797114522
  O   0.92428742507199      2.54380370438997     -0.08622560206998
