13
Coordinates from ORCA-job run
  C   -0.63533734944399     -0.67618196717590      0.15069994288067
  C   0.61996531319332     -0.20560862515544      0.17190929863268
  H   -0.70564891267215     -1.70290500324508      0.49982323046816
  C   -1.89874364352228      0.00688184844664     -0.27007914105472
  H   -2.66337910688196     -0.73702153964575     -0.49681900081400
  H   -2.27457598184832      0.64987353848914      0.53008184791659
  H   -1.75356152833097      0.64701254998721     -1.13984511623137
  N   1.72432562606480     -0.97260928040311      0.58773896791392
  H   2.44922053054436     -0.94284195365759     -0.11946490291915
  H   2.12013769255042     -0.59525571515178      1.44131269134678
  N   0.92105863864799      1.16468017606525     -0.32434116870192
  O   0.04518463323202      2.02470340634894     -0.25404346360881
  O   2.05235408846677      1.34027256509748     -0.77897318582883
