13
Coordinates from ORCA-job run
  C   -0.64983963256672     -0.60653303307883      0.06822642309384
  C   0.56743624676192     -0.11861442242505      0.37608908418367
  H   -0.86117983611089     -1.58819500227828      0.48892812374132
  C   -1.73911364816911      0.03109968003811     -0.74275605078933
  H   -1.35862482569255      0.51423293410655     -1.64339883512089
  H   -2.26412358772189      0.80145840396942     -0.17240481425578
  H   -2.46462818803884     -0.72831364611421     -1.03821795977946
  N   1.51829214380471     -0.67690417964443      1.21850309786000
  H   2.46208567198451     -0.50184543572232      0.90494067196135
  H   1.34911042701555     -1.65280259019833      1.40876831982111
  N   1.02251516148486      1.17939959168686     -0.15054767520362
  O   0.17776519249631      2.01706378160207     -0.45662036464382
  O   2.24130487475214      1.32995391805844     -0.26051002086838
