13
Coordinates from ORCA-job run
  C   -0.73559251471403     -0.33153003915743      0.37936192758630
  C   0.58027943344139     -0.04304443826177      0.37273792357105
  H   -1.06662244630621     -0.90463789151330      1.24380422499892
  C   -1.78554417525743      0.05228097353277     -0.62116891872496
  H   -2.67139341407548     -0.56759985391718     -0.47503784885607
  H   -1.44424976579830     -0.06960088559972     -1.64978011216504
  H   -2.07942394441981      1.09918012177021     -0.51138548514232
  N   1.51391863443013     -0.31314776835619      1.36301244785081
  H   2.42491675548824     -0.53130393362410      0.98600825427937
  H   1.19426489376035     -1.00273957641449      2.02590409394964
  N   1.19290314763158      0.68934955115476     -0.74840990657238
  O   0.48366604745153      1.43355463766584     -1.42077669197654
  O   2.39387734836803      0.48923910272061     -0.94326990879879
