13
Coordinates from ORCA-job run
  C   -0.69875366657807     -0.56716067506040      0.26766593441422
  C   0.58796563610509     -0.18878280526775      0.27455144301950
  H   -0.88118241185632     -1.44015961753411      0.88875533772144
  C   -1.86178980583179      0.02713954212096     -0.46341641287343
  H   -1.84241163658214      1.11682730978512     -0.45329442075689
  H   -2.79494664165219     -0.31711773462263     -0.01637484696555
  H   -1.85276563054260     -0.27350005019939     -1.51414032297318
  N   1.58367222565877     -0.85376361144095      1.01318717364182
  H   2.12680887996011     -0.18132059825122      1.54135217598764
  H   2.22191179611801     -1.34205873815834      0.39539675019142
  N   1.02114183452757      1.02867909677921     -0.46406388180328
  O   2.01955250775990      1.60213799192213     -0.02607943856798
  O   0.37179691291367      1.38907988992738     -1.44353949103573
