13
Coordinates from ORCA-job run
  C   -0.55126516586818     -0.63380774314015     -0.29499143311764
  C   0.67526565240722     -0.13579347172809     -0.04592075973670
  H   -0.55597604222508     -1.66078773559194     -0.65672220347542
  C   -1.88297505368696      0.04613344739515     -0.17734443211892
  H   -1.96018376840068      0.65589589789694      0.72334863384694
  H   -2.07081634232951      0.70761235203720     -1.02672385644924
  H   -2.67374919653637     -0.70554480103558     -0.15005492060269
  N   1.90088029110351     -0.74904329424063     -0.26520181010610
  H   2.58456248903182     -0.50605564109296      0.43694612202694
  H   1.82362615486753     -1.74574831653410     -0.39827288002589
  N   0.85089328402307      1.22686728716227      0.48116754085124
  O   -0.00972891147719      2.06680028047876      0.22910292696911
  O   1.86946660909081      1.43347173839314      1.14466707193839
