17
Coordinates from ORCA-job run
  C   -0.59603338685315     -0.63117003145217      0.01088635831893
  C   0.46970244948469      0.47520815058575      0.03606631166905
  Cl  -0.05290581953209     -2.06218524330782     -0.84915286550517
  H   0.07520087031337      1.22396892107665      0.73519579610372
  N   -1.79837458715015     -0.02160939780569     -0.77908631118061
  O   -2.21317379568803      1.02091368924650     -0.26926527903892
  O   -2.26403986261497     -0.57366519184880     -1.76012783377166
  N   -0.99821246488435     -0.98653304889236      1.32623238461811
  H   -1.42503566154918     -0.18826270907117      1.78185657747630
  H   -1.64212140171044     -1.76814957298158      1.32236321826653
  N   0.60945612529354      1.01704781568230     -1.30562366908892
  H   0.10221577936260      1.88514604251044     -1.40760639984774
  H   1.57921637692191      1.17726251034049     -1.53731039926851
  C   1.79034683783332     -0.04809996655966      0.57560154384044
  H   2.45035321402037      0.79370753048456      0.79918688441659
  H   2.27762747826324     -0.68444616764259     -0.16537318334854
  H   1.63677784848932     -0.62813333036485      1.48515686634041
