17
Coordinates from ORCA-job run
  C   -0.77394331261142     -0.39057337384233      0.26061219713849
  C   0.67369236379380      0.08953428769442      0.39536656594324
  Cl  -1.38151284597849     -0.80687507316154      1.96188827072741
  H   1.21389711367306     -0.66923077006358      0.96953590437186
  N   -0.85633229864216     -1.74051128116043     -0.44072586927262
  O   0.08975977496422     -2.50478611109445     -0.29048959078614
  O   -1.88221947528481     -1.96949282329945     -1.06906109127462
  N   -1.55300797095129      0.52795537102622     -0.42471304922673
  H   -1.39610720198310      1.45076854616843     -0.03719199955688
  H   -2.52897360260804      0.27478615334059     -0.47875033378590
  N   0.60614377596786      1.39040800861788      1.06391037236067
  H   0.49507480566187      1.26567482096391      2.06291825222148
  H   1.46851681510193      1.89663953725059      0.90762733144651
  C   1.32594391138695      0.26169254718426     -0.96936881502831
  H   0.80491919596317      1.02669998692386     -1.54536156137553
  H   2.36775300655468      0.56591358842025     -0.83428355620709
  H   1.32839594499176     -0.67060341496864     -1.53291302769584
