17
Coordinates from ORCA-job run
  C   -0.76355563735691     -0.39743163991072      0.28286350050721
  C   0.67797237589773      0.08624475557177      0.43274998881063
  Cl  -1.32516579918158     -0.98917487108324      1.97550449744681
  H   1.20398891395268     -0.65400116809912      1.04008151177015
  N   -0.89890812296441     -1.67987918203305     -0.50967324893405
  O   -1.80464368401108     -1.70038844787667     -1.33105006915047
  O   -0.07527578036275     -2.56455665637367     -0.30422222198020
  N   -1.55764462093378      0.55287276759922     -0.30724307327559
  H   -2.48922783625458      0.30407565937879     -0.61312970993486
  H   -1.33198461063671      1.50671779077641     -0.05657759616431
  N   0.58791406452532      1.41751681971218      1.04114604066507
  H   1.50122335959639      1.85408526488005      1.03462776204413
  H   0.28949759437012      1.33767252017307      2.00382157507542
  C   1.35789565379872      0.20698928446200     -0.92322138742101
  H   0.81199671612360      0.89437410895710     -1.56685454370039
  H   2.37428894756161      0.58769021360669     -0.78295896075220
  H   1.43862846587562     -0.76180721974081     -1.41486406500635
