17
Coordinates from ORCA-job run
  C   -0.73995331505532     -0.26261299757589      0.41843441940932
  C   0.76112476394137      0.09460296451011      0.43106684380493
  Cl  -1.35445664393202     -0.46251336190967      2.07201798914970
  H   1.26224177961755     -0.71118312306540      0.97230825544747
  N   -0.85601633069532     -1.67512021699018     -0.23228720993474
  O   -1.53362512348788     -1.75820897831163     -1.25308471717003
  O   -0.21329060416297     -2.57857585533045      0.28557301812207
  N   -1.51594522745127      0.70936505043535     -0.24841853296955
  H   -2.50588419930364      0.53296542755407     -0.13003443149247
  H   -1.30900473904015      0.70145226527576     -1.23974066476005
  N   1.04059059590274      1.34318906848194      1.10871836142688
  H   0.85141936605805      1.25626861188552      2.09951518605468
  H   0.42754692633072      2.06391939326941      0.74345705913658
  C   1.30450502744572      0.16230444631492     -0.99211501099514
  H   2.38386945063948      0.30294658293308     -0.93712288238635
  H   1.10301196053358     -0.74194162389887     -1.57037829997984
  H   0.89386631265934      1.02414234642194     -1.52590938286347
