12
Coordinates from ORCA-job run
  C   -0.29181776362462     -0.05092845812021      0.48953231235445
  C   0.88595546039377      0.29757335686065     -0.41467274573134
  F   0.10778907151227     -1.09656648302674      1.31566072237785
  H   0.59859151504410      1.08752086180595     -1.11470841038378
  H   -0.52431451072717      0.79558448941967      1.14256165919969
  H   1.15607726908784     -0.58642899464958     -0.99961806984796
  C   -1.50947975473548     -0.48727867318651     -0.29173384044822
  H   -1.87896732130753      0.32330546110075     -0.92368953182994
  H   -2.30421109734130     -0.78021620770531      0.39554336334607
  H   -1.26564726456301     -1.34544838000565     -0.92151628437343
  C   2.05104520004018      0.73788807009882      0.35048458723406
  N   2.97497919622094      1.10399495740818      0.97315623810255
