12
Coordinates from ORCA-job run
  C   -0.54709943181481      0.44718809123423      0.30525861680982
  C   0.97372411147480      0.58664636088845      0.25074883748983
  F   -0.92400732577488      0.82095881585129      1.59425519415566
  H   1.25225736264413      1.60405205653992      0.53715687946667
  H   -1.00834491806588      1.16429227621266     -0.38036640992099
  H   1.42160202393309     -0.09769029879768      0.97711214859920
  C   -1.03715121364943     -0.95516735281967      0.03829094903265
  H   -2.12168519602940     -0.99561224704246      0.14760979038178
  H   -0.59126764759298     -1.64879084632658      0.75436898252531
  H   -0.77645350681165     -1.27304053899977     -0.97282272358577
  C   1.48934115629131      0.29425118028437     -1.08334433407068
  N   1.86908458539571      0.05491250297524     -2.16726793088345
