12
Coordinates from ORCA-job run
  C   -0.53304419169061      0.41704935701863      0.42057965822664
  C   0.78442246953729      0.85533396265658     -0.21428157110935
  F   -0.30144004347757      0.22051895330187      1.77880409038437
  H   0.61597193223234      1.13957808854702     -1.25740506416256
  H   -1.24421874199162      1.24564239770031      0.33848530282690
  H   1.16028199184080      1.73518250008771      0.31440934459067
  C   -1.10755912809371     -0.85064883767620     -0.16476714763579
  H   -1.31321408993748     -0.72559531782797     -1.23049182940911
  H   -0.40850086140513     -1.67829667175246     -0.03428516328271
  H   -2.04039296765873     -1.10121876560054      0.34203845680967
  C   1.79623228659358     -0.19897733047836     -0.16338866335688
  N   2.59246134405082     -1.05956833597659     -0.12869741388185
