18

C	-0.440239	0.011636	-1.443737
C	0.0	0.0	0.0
Cl	-2.227689	0.319871	-1.581527
H	1.095235	0.0	0.0
N	0.21329	1.19496	-2.182389
O	0.445829	1.03847	-3.371782
O	0.373788	2.216783	-1.534028
C	-0.090763	-1.266949	-2.158332
H	-0.657537	-2.09073	-1.72763
H	0.981663	-1.442376	-2.02516
H	-0.324313	-1.187656	-3.216634
C	-0.450789	-1.263435	0.75217
H	-1.533094	-1.404064	0.688949
H	-0.173358	-1.155285	1.800711
H	0.064673	-2.142165	0.36606
C	-0.391432	1.166654	0.783078
N	-0.612516	2.035792	1.601723
Br	3.348803	0.0	0.0
