18

C	-0.353838	-0.082909	-1.494976
C	0.0	0.0	0.0
Cl	-0.039229	-1.72349	-2.121198
H	1.093248	0.0	0.0
N	-1.853543	0.144966	-1.709939
O	-2.622242	-0.477516	-0.984148
O	-2.194631	0.92451	-2.595572
C	0.452888	0.911548	-2.297066
H	1.508294	0.719346	-2.086089
H	0.205865	1.928089	-1.984477
H	0.24791	0.807886	-3.361416
C	-0.453722	-1.114415	0.944422
H	-0.120953	-2.078103	0.560756
H	0.041024	-0.951665	1.903935
H	-1.532285	-1.129882	1.085682
C	-0.458079	1.29923	0.487819
N	-0.875889	2.323654	0.882039
Br	3.46066	0.0	0.0
