14

C	-0.337315	0.038024	-1.486266
C	0.0	0.0	0.0
Br	-2.228831	0.519142	-1.874187
H	1.104626	0.0	0.0
H	0.255867	0.821023	-1.964937
C	-0.087558	-1.234752	-2.148868
N	0.102291	-2.26367	-2.682996
N	-0.588949	-1.183442	0.620774
H	0.112036	-1.920175	0.58476
H	-0.70374	-0.939631	1.597535
N	-0.378213	1.197861	0.716764
H	0.404906	1.841202	0.686214
H	-1.200885	1.637301	0.323279
H	2.812112	0.0	0.0
