14

C	-0.437882	0.03082	-1.469761
C	0.0	0.0	0.0
Br	0.039152	1.704402	-2.364263
H	1.094562	0.0	0.0
H	0.105343	-0.74886	-2.010752
C	-1.874002	-0.172027	-1.621927
N	-3.019637	-0.428503	-1.695052
N	-0.372425	-1.277814	0.601163
H	-1.151304	-1.732175	0.137499
H	0.442837	-1.880335	0.573818
N	-0.547186	1.135654	0.726196
H	-1.097617	0.758059	1.487344
H	0.241269	1.626686	1.139704
H	2.827558	0.0	0.0
