14

C	-0.625761	-0.007356	-1.390046
C	0.0	0.0	0.0
Br	-0.159695	-1.603342	-2.452341
H	1.099869	0.0	0.0
H	-1.713885	-0.053257	-1.283545
C	-0.279009	1.174191	-2.169528
N	-0.06082	2.111473	-2.84257
N	-0.519704	-1.141325	0.769678
H	-0.397196	-1.979743	0.20933
H	0.141741	-1.253172	1.536834
N	-0.433985	1.250039	0.607743
H	-1.13922	1.042968	1.304821
H	0.372599	1.676982	1.050282
H	2.865722	0.0	0.0
