14

C	-0.479527	0.102113	-1.452235
C	0.0	0.0	0.0
Br	0.002938	1.806237	-2.302033
H	1.099734	0.0	0.0
H	0.028927	-0.671368	-2.028513
C	-1.927127	-0.054493	-1.562089
N	-3.09869	-0.126845	-1.627437
N	-0.429227	-1.334379	0.423647
H	-1.16304	-1.218203	1.112773
H	0.368997	-1.75807	0.889482
N	-0.465054	1.06416	0.870471
H	0.309785	1.700952	1.019558
H	-1.233759	1.586452	0.466647
H	2.836513	0.0	0.0
