14

C	0.0	0.0	0.0
C	-0.547368	0.048379	-1.395172
F	1.384806	0.0	0.0
H	-1.720219	0.067968	-1.020321
H	-0.366349	0.849924	0.57205
C	-0.41538	-1.266594	0.638316
N	-0.629179	-2.297015	1.159603
N	-0.138405	-1.087641	-2.159932
H	0.861764	-1.022919	-2.329138
H	-0.593238	-1.068543	-3.063075
N	-0.18594	1.329673	-2.020619
O	-0.266666	2.34596	-1.312152
O	0.071852	1.350049	-3.241548
H	-2.67392	0.0	0.0
