14

C	0.0	0.0	0.0
C	-0.617748	0.094939	-1.371909
F	1.382316	0.0	0.0
H	-1.742418	0.224232	-0.982364
H	-0.336365	0.848511	0.59581
C	-0.423962	-1.257096	0.640772
N	-0.537127	-2.301955	1.166801
N	-0.526221	-1.040302	-2.215372
H	0.323495	-1.566255	-2.081502
H	-1.329838	-1.631922	-2.054293
N	-0.139505	1.334879	-2.008555
O	-0.067036	2.34022	-1.280986
O	0.094614	1.351229	-3.222306
H	-2.755408	0.0	0.0
