18

C	-0.350358	0.00488	-1.484825
C	0.0	0.0	0.0
F	-1.684669	-0.298082	-1.703613
H	1.098254	0.0	0.0
N	-0.194457	1.424924	-2.00588
O	0.933963	1.787401	-2.321662
O	-1.197963	2.139381	-2.029406
C	0.561038	-0.914399	-2.250407
H	0.293252	-1.930823	-1.962482
H	0.45305	-0.786078	-3.330475
H	1.579099	-0.703835	-1.908817
N	-0.434159	-1.297829	0.51189
H	-1.352389	-1.188682	0.929078
H	0.211812	-1.527852	1.258524
N	-0.510806	1.133717	0.76055
H	0.214386	1.839268	0.802617
H	-1.329263	1.543158	0.324679
F	2.676322	0.0	0.0
