18

C	-0.660456	0.151919	-1.356854
C	0.0	0.0	0.0
F	-0.062422	1.165276	-2.065786
H	1.093917	0.0	0.0
N	-0.400627	-1.110771	-2.168424
O	-1.329867	-1.907081	-2.310854
O	0.727524	-1.248906	-2.623333
C	-2.143525	0.426776	-1.317313
H	-2.273196	1.375396	-0.797709
H	-2.545618	0.501803	-2.329098
H	-2.672168	-0.369182	-0.793355
N	-0.382694	-1.28663	0.566147
H	-1.223402	-1.229663	1.131879
H	0.387352	-1.59539	1.14694
N	-0.337725	1.197696	0.791217
H	-1.008393	0.969092	1.516664
H	0.528721	1.472892	1.239934
F	2.622822	0.0	0.0
