18

C	-0.283031	0.125858	-1.48731
C	0.0	0.0	0.0
F	0.115862	-1.039517	-2.104842
H	1.101647	0.0	0.0
N	-1.776038	0.213726	-1.762603
O	-2.317661	1.291059	-1.51488
O	-2.36145	-0.790688	-2.16065
C	0.475087	1.280974	-2.077064
H	1.502748	1.137471	-1.723245
H	0.079094	2.217213	-1.691933
H	0.419527	1.25517	-3.168574
N	-0.64215	-1.218436	0.523553
H	-0.400677	-1.981515	-0.102452
H	-0.156246	-1.42395	1.393013
N	-0.424454	1.186651	0.709065
H	-1.370673	1.057875	1.052073
H	0.203888	1.31889	1.492266
F	2.691784	0.0	0.0
