18

C	-0.336171	-0.242749	-1.474191
C	0.0	0.0	0.0
F	-1.583329	-0.819518	-1.651124
H	1.100352	0.0	0.0
N	-0.405034	1.089827	-2.187892
O	0.60454	1.781696	-2.110237
O	-1.425363	1.382684	-2.80226
C	0.740526	-1.080044	-2.12529
H	0.671994	-1.05673	-3.216467
H	1.702644	-0.715862	-1.743742
H	0.60207	-2.109242	-1.786267
N	-0.413234	-1.135344	0.814081
H	-1.198663	-1.626762	0.405434
H	0.37753	-1.760852	0.901446
N	-0.633173	1.237027	0.480372
H	-0.895242	1.044375	1.439863
H	0.100299	1.936509	0.515805
F	2.697418	0.0	0.0
