15

C	0.0	0.0	0.0
C	-0.712435	-0.510679	-1.236037
F	1.33985	0.0	0.0
H	0.059755	-0.970421	-1.860843
H	-1.414195	-1.280121	-0.903802
N	-0.390046	1.440825	0.325381
O	-1.446553	1.596296	0.913988
O	0.398582	2.295879	-0.050809
N	-0.3267	-0.798025	1.27484
O	-0.86316	-1.891166	1.157904
O	0.096077	-0.299203	2.311766
N	-1.36626	0.587896	-1.938041
H	-1.51795	0.299904	-2.895832
H	-2.296446	0.679537	-1.515356
Br	-4.187147	0.0	0.0
