15

C	0.0	0.0	0.0
C	-0.715345	-0.449879	-1.257364
F	1.339827	0.0	0.0
H	-1.437308	-1.214471	-0.959626
H	0.047676	-0.90509	-1.895635
N	-0.382243	1.430627	0.38451
O	-1.448435	1.568036	0.958483
O	0.419833	2.294229	0.060838
N	-0.325458	-0.845792	1.239054
O	0.073405	-0.380044	2.300428
O	-0.831628	-1.94689	1.070335
N	-1.340883	0.691829	-1.91588
H	-2.281742	0.761454	-1.513158
H	-1.460278	0.466031	-2.894579
Br	-4.164621	0.0	0.0
