12

C	-0.326837	0.128487	-1.447284
C	0.0	0.0	0.0
F	-1.679113	0.123295	-1.745997
H	1.091751	0.0	0.0
H	0.12736	1.004194	-1.906584
H	-0.370532	-0.951068	0.385888
N	0.2347	-1.053928	-2.198283
O	-0.059289	-2.169867	-1.780129
O	0.887449	-0.81532	-3.211349
C	-0.54421	1.112414	0.747269
N	-0.969133	2.022862	1.35783
F	2.517652	0.0	0.0
