12

C	-0.455163	0.038396	-1.439583
C	0.0	0.0	0.0
F	-0.065657	-1.068892	-2.118238
H	1.094259	0.0	0.0
H	-1.530821	0.165221	-1.585602
H	-0.323686	0.920248	0.49197
N	0.158592	1.251541	-2.102891
O	-0.189851	2.326288	-1.62652
O	0.88735	1.092415	-3.066632
C	-0.57938	-1.142728	0.672768
N	-1.049024	-2.070753	1.221004
F	2.523512	0.0	0.0
