12

C	-0.326047	0.115491	-1.450269
C	0.0	0.0	0.0
F	-1.675126	0.181462	-1.745634
H	1.091708	0.0	0.0
H	0.179002	0.952714	-1.928494
H	-0.379873	-0.94267	0.398897
N	0.164171	-1.117358	-2.174053
O	-0.243809	-2.197447	-1.758015
O	0.884166	-0.951192	-3.15345
C	-0.534678	1.126948	0.733539
N	-0.947534	2.051286	1.331882
F	2.519505	0.0	0.0
