12

C	-0.395086	0.094524	-1.439706
C	0.0	0.0	0.0
F	-1.721903	0.409103	-1.649322
H	1.091655	0.0	0.0
H	0.233763	0.82312	-1.952879
H	-0.288903	0.947318	0.468022
N	-0.150915	-1.209428	-2.160256
O	0.914046	-1.318002	-2.760022
O	-1.029297	-2.064813	-2.078177
C	-0.614309	-1.088732	0.72745
N	-1.083768	-1.959938	1.360647
F	2.52211	0.0	0.0
