12

C	-0.444627	0.006911	-1.442814
C	0.0	0.0	0.0
F	-0.35458	-1.245202	-1.974418
H	1.095343	0.0	0.0
H	-1.451771	0.388801	-1.631985
H	-0.326854	-0.951362	0.430426
N	0.452254	0.92415	-2.254114
O	1.114843	0.45451	-3.166016
O	0.38038	2.10378	-1.927066
C	-0.575011	1.089798	0.757868
N	-1.040968	1.965127	1.388113
F	2.518407	0.0	0.0
