12

C	-0.310121	0.08102	-1.455109
C	0.0	0.0	0.0
F	-1.65727	0.113253	-1.770805
H	1.092065	0.0	0.0
H	0.181836	0.921053	-1.941049
H	-0.377753	-0.934488	0.416613
N	0.217867	-1.150088	-2.150318
O	0.910655	-0.977847	-3.14929
O	-0.14258	-2.235991	-1.705082
C	-0.542592	1.140403	0.704178
N	-0.969643	2.070956	1.281991
F	2.516864	0.0	0.0
