12

C	-0.440207	0.091544	-1.441858
C	0.0	0.0	0.0
F	-0.416775	-1.138425	-2.028062
H	1.093544	0.0	0.0
H	-1.42454	0.536578	-1.614661
H	-0.33066	-0.971968	0.377143
N	0.50893	0.992593	-2.210901
O	0.495409	2.160193	-1.838732
O	1.152994	0.525676	-3.137267
C	-0.568699	1.04938	0.817626
N	-1.036158	1.88564	1.499367
F	2.519808	0.0	0.0
