18

C	-0.351802	0.002465	-1.488559
C	0.0	0.0	0.0
F	-0.073611	-1.335292	-1.943149
H	1.096343	0.0	0.0
N	-1.713124	0.306752	-1.778776
H	-2.281745	-0.418734	-1.359246
H	-1.849029	0.287799	-2.783385
N	0.530058	0.916778	-2.117152
H	1.489614	0.703514	-1.844848
H	0.448969	0.844568	-3.124528
N	-0.511128	-1.232448	0.65873
O	-1.692821	-1.534691	0.452616
O	0.234638	-1.841727	1.415961
C	-0.532465	1.205901	0.747945
H	-0.144926	1.202121	1.769442
H	-0.176336	2.102068	0.240725
H	-1.623163	1.212966	0.757106
Cl	3.402993	0.0	0.0
