18

C	-0.385718	-0.014354	-1.49249
C	0.0	0.0	0.0
F	-0.193278	-1.350859	-1.905271
H	1.092889	0.0	0.0
N	-1.738587	0.290013	-1.867891
H	-2.3623	-0.281207	-1.309898
H	-1.913567	1.265104	-1.663969
N	0.485416	0.888111	-2.144048
H	1.453183	0.702691	-1.885154
H	0.361234	0.803388	-3.144939
N	-0.533067	-1.225028	0.650038
O	-1.765313	-1.353553	0.649331
O	0.245142	-2.022936	1.156985
C	-0.509777	1.219283	0.741046
H	-0.129425	1.213481	1.765022
H	-1.600853	1.248206	0.764842
H	-0.124175	2.108908	0.241424
Cl	3.396808	0.0	0.0
