14

C	-0.553384	-0.001858	-1.409781
C	0.0	0.0	0.0
Br	-0.074126	-1.678972	-2.343551
H	1.09943	0.0	0.0
H	-0.030226	0.76361	-1.987756
H	-0.324229	0.955273	0.439375
C	-2.060536	0.160431	-1.485768
H	-2.335418	1.121313	-1.03463
H	-2.42039	0.141454	-2.517387
H	-2.542074	-0.634356	-0.915914
N	-0.585073	-1.088626	0.806537
H	-0.101808	-1.934528	0.516591
H	-0.270131	-0.930361	1.75897
H	3.094671	0.0	0.0
