14

C	-0.558709	-0.057274	-1.407131
C	0.0	0.0	0.0
Br	-0.13283	-1.791899	-2.257698
H	1.096036	0.0	0.0
H	-0.020961	0.666179	-2.024327
H	-0.319539	0.974603	0.398407
C	-2.061771	0.140783	-1.480764
H	-2.558635	-0.599705	-0.852888
H	-2.433886	0.062359	-2.504975
H	-2.304012	1.138385	-1.094663
N	-0.586605	-1.047617	0.858389
H	-0.097722	-1.90627	0.618799
H	-0.286174	-0.837399	1.80371
H	3.091582	0.0	0.0
