13

C	-0.547237	-0.033809	-1.410218
C	0.0	0.0	0.0
Br	-0.225203	1.826798	-2.19655
H	1.088967	0.0	0.0
H	-1.633757	-0.087738	-1.428323
H	-0.400833	0.842988	0.560354
N	0.036596	-1.089471	-2.119452
H	-0.274192	-1.153669	-3.077999
H	1.050065	-1.073876	-2.055534
N	-0.521409	-1.230157	0.674285
O	-1.74639	-1.286487	0.822841
O	0.266419	-2.100425	1.022447
Cl	3.361329	0.0	0.0
