13

C	-0.552623	-0.005688	-1.420336
C	0.0	0.0	0.0
Br	-0.230757	-1.803534	-2.127013
H	1.089651	0.0	0.0
H	0.036736	0.664032	-2.04253
H	-0.393962	-0.814546	0.606118
N	-1.950754	0.311378	-1.585556
H	-2.505584	-0.218349	-0.922837
H	-2.072475	1.29843	-1.396995
N	-0.42148	1.25799	0.670949
O	-0.780226	1.196064	1.847311
O	-0.377688	2.296542	0.007991
Cl	3.321288	0.0	0.0
