13

C	-0.556753	0.071964	-1.40949
C	0.0	0.0	0.0
Br	-0.234569	-1.707183	-2.317612
H	1.086182	0.0	0.0
H	0.087569	0.732194	-1.988187
H	-0.365263	0.881655	0.534668
N	-1.905312	0.496833	-1.471796
H	-2.481371	-0.099278	-0.89058
H	-2.248243	0.488772	-2.422582
N	-0.549664	-1.166323	0.742314
O	-1.783602	-1.231399	0.829509
O	0.222044	-1.979308	1.231602
Cl	3.397654	0.0	0.0
