13

C	-0.500805	-0.017585	-1.416474
C	0.0	0.0	0.0
Br	-2.603811	-0.024658	-1.323168
H	1.092281	0.0	0.0
H	-0.332571	-0.97636	-1.895623
H	-0.375485	0.855959	0.558987
N	-0.005746	1.039443	-2.162751
H	-0.310948	1.051667	-3.124725
H	-0.094979	1.943572	-1.723712
N	-0.437884	-1.207191	0.74031
O	-0.381705	-2.285153	0.152491
O	-0.79303	-1.057778	1.906787
Cl	3.337112	0.0	0.0
