16
Coordinates from ORCA-job run
  C   -0.79366755346940     -0.44374493429439      0.18188648676117
  C   0.42348130664843      0.41431739203140     -0.11626648750077
  H   -0.55887750963760     -1.50655477662529      0.10715740892595
  H   0.21031624860824      1.45954052712572      0.10705073358020
  C   -1.90269333085883     -0.09880582997376     -0.69983303499774
  N   -2.77751593436742      0.19078393598069     -1.42868137464930
  N   -1.26337186726113     -0.25091864159700      1.61633364734722
  O   -0.96622227853605      0.80400153221302      2.16320114652265
  O   -1.91985842705157     -1.17039426816865      2.08286813036786
  C   0.93772399379225      0.23024816764484     -1.53476331255853
  H   1.83725782927033      0.83100561445179     -1.67244441553858
  H   1.17793440340001     -0.81827649167674     -1.72688612387549
  H   0.18737107255988      0.56019519857305     -2.25487970143058
  N   1.52263537309885      0.02869932348249      0.83773789280367
  O   1.46482556006623     -1.08179188016643      1.36170095493087
  O   2.41966111373779      0.85069513099929      0.97681804931141
