16
Coordinates from ORCA-job run
  C   -0.96002887771513      0.21706544944089      0.32612134173534
  C   0.32338704368141      0.39219629557590     -0.49362129048619
  H   -1.55876017984983      1.12764533261858      0.28449330595292
  H   0.02696598092904      0.69281708548054     -1.50304624438898
  C   -0.68458256112582     -0.15269561834479      1.70740880247007
  N   -0.42011879170131     -0.41407932900305      2.82127007512476
  N   -1.77922720895732     -0.85168542747862     -0.36779370646846
  O   -2.18438706526489     -0.53417636947506     -1.48078558553483
  O   -1.94743682791892     -1.92276973610904      0.20018386204752
  C   1.20891790765752     -0.83336138385881     -0.50792113293140
  H   0.66275847095561     -1.68017281353039     -0.92843578599416
  H   2.08974104553175     -0.65416693218414     -1.12128447500869
  H   1.53515968097887     -1.09119658670802      0.50091685792181
  N   1.05381222221050      1.59712285070103      0.06532869425908
  O   2.27716957051846      1.58997028288098      0.00986629394671
  O   0.35662959007005      2.51748689999401      0.48529898735449
