16
Coordinates from ORCA-job run
  C   -0.77228132524657     -0.41004247566817      0.30759075241532
  C   0.40620862267010      0.39483037615350     -0.21130902968224
  H   -0.51088777394495     -1.46362270231799      0.42052887070602
  H   0.18368692145762      1.46085347400121     -0.17129275793648
  C   -1.93164071233252     -0.25885977350557     -0.56356097986598
  N   -2.83904223049924     -0.11598835368481     -1.29557186436562
  N   -1.17721776360375      0.03749623207183      1.70526223445397
  O   -1.89713041124004     -0.74084712256650      2.31429876594249
  O   -0.76591022832292      1.12513514935807      2.08953197552274
  C   0.84675987728870     -0.04276788875966     -1.59927186319345
  H   0.05112394408737      0.13565283551776     -2.32391289010124
  H   1.10316626410424     -1.10467595019676     -1.60562308678960
  H   1.72213823590297      0.53503559308726     -1.89811552271229
  N   1.56519361625433      0.20165289309582      0.72881001192378
  O   1.60311605507170     -0.84007285036976      1.38030069407089
  O   2.41171690835294      1.08622056378377      0.72433468961169
