16
Coordinates from ORCA-job run
  C   -1.04226302750483      0.09683185046290     -0.01715269274837
  C   0.38308388304157      0.50087038711301     -0.42542509217535
  H   -1.62124879988410     -0.07872807776677     -0.92740719020558
  H   0.30942139939325      1.48921462182020     -0.88426336400297
  C   -1.70048074101919      1.09923734744853      0.81230242989887
  N   -2.26139351702918      1.89850331029388      1.46487239585194
  N   -1.02574034938324     -1.23542393236960      0.70661205465622
  O   -1.05484624771742     -2.22313188535222     -0.01989344163036
  O   -0.95463013497799     -1.21314561554962      1.92829215065533
  C   1.07408689405053     -0.49142393996684     -1.33651202303195
  H   0.48199582550580     -0.63584614415876     -2.24242557830912
  H   1.21184754218304     -1.45350497782443     -0.84857716687123
  H   2.05303311778832     -0.10104893917339     -1.61989550613802
  N   1.19029719219009      0.72677967492452      0.82734959159843
  O   1.20832360626960      1.87342487225557      1.26755974832356
  O   1.74851335709373     -0.25260855215698      1.31456368412860
