13
Coordinates from ORCA-job run
  C   0.52922203990747     -0.03787981020885      0.51748698584354
  C   -0.82106351149052     -0.52654663044264     -0.02600862734016
  Cl  0.79072925113216     -0.99795871319873      2.08554927510135
  H   -1.54606970507379     -0.44881234875241      0.79378241174059
  H   -0.70188338346334     -1.59049592293480     -0.25277814185845
  C   0.42645747105804      1.36562090151843      0.93295486137311
  N   0.29425680835868      2.49439191565208      1.22931299067455
  N   1.57240720843181     -0.18288647195823     -0.41459571363293
  H   2.48000053982911      0.03360004466936     -0.02565889990128
  H   1.57265052246693     -1.09585400031882     -0.84821527163697
  N   -1.17296373855060      0.18372268006133     -1.24084751285185
  H   -1.90996705901186     -0.30959727886110     -1.72682703846755
  H   -1.51277644359410      1.11269563477437     -1.02415531904395
