17

C	-0.369799	-0.011158	-1.47933
C	0.0	0.0	0.0
Br	-2.284631	0.031379	-1.919257
H	1.09364	0.0	0.0
N	0.231402	1.202071	-2.210141
O	0.201446	2.25801	-1.597667
O	0.630816	1.014352	-3.349979
C	0.152456	-1.223489	-2.097542
N	0.504035	-2.241053	-2.570508
C	-0.506663	-1.221252	0.74642
H	-0.158114	-1.152527	1.779054
H	-1.596383	-1.276234	0.732478
H	-0.076257	-2.125024	0.314526
N	-0.48865	1.211747	0.73319
O	-1.706244	1.396334	0.758879
O	0.34376	1.885026	1.326024
Cl	3.220173	0.0	0.0
