17

C	-0.547154	-0.052083	-1.425309
C	0.0	0.0	0.0
Br	-2.498028	0.034472	-1.45811
H	1.09279	0.0	0.0
N	0.035314	1.074904	-2.346601
O	1.246167	1.168726	-2.269465
O	-0.727278	1.681719	-3.07693
C	-0.154983	-1.298102	-2.072149
N	0.122719	-2.305506	-2.612103
C	-0.438313	-1.182666	0.843058
H	0.038296	-1.101909	1.818193
H	-0.086574	-2.103622	0.374546
H	-1.521676	-1.221491	0.971563
N	-0.413171	1.292988	0.632212
O	-0.520047	2.272101	-0.105051
O	-0.567683	1.309999	1.849717
Cl	3.234202	0.0	0.0
