15

C	-0.393654	-0.111619	-1.446592
C	0.0	0.0	0.0
F	-0.194966	-1.380181	-1.905884
H	1.094183	0.0	0.0
H	-0.380304	-0.91474	0.467832
C	-1.79131	0.259019	-1.755968
N	-2.924834	0.506602	-1.943973
N	0.483021	0.809579	-2.307306
O	1.298291	0.295097	-3.05094
O	0.264785	2.008149	-2.160742
C	-0.504289	1.243586	0.716586
H	-0.042439	2.136129	0.294397
H	-0.18989	1.181208	1.761113
H	-1.593921	1.366291	0.689295
F	2.597573	0.0	0.0
