15

C	-0.405909	-0.006386	-1.441662
C	0.0	0.0	0.0
F	0.008795	-1.131011	-2.086398
H	1.095153	0.0	0.0
H	-0.360492	0.935398	0.436669
C	-1.861052	0.127633	-1.67785
N	-3.026308	0.185338	-1.820274
N	0.240175	1.189482	-2.154161
O	1.026751	0.962743	-3.056953
O	-0.120198	2.287094	-1.742989
C	-0.535267	-1.218105	0.736443
H	-1.630397	-1.285369	0.755669
H	-0.175267	-1.184214	1.7672
H	-0.133979	-2.128865	0.288335
F	2.602302	0.0	0.0
