15

C	-0.408412	-0.008504	-1.441928
C	0.0	0.0	0.0
F	0.021452	-1.124806	-2.090026
H	1.095209	0.0	0.0
H	-0.3631	0.933859	0.43727
C	-1.864837	0.105396	-1.674101
N	-3.031473	0.143195	-1.811822
N	0.220329	1.198576	-2.1488
O	1.028831	0.985922	-3.036198
O	-0.171496	2.289489	-1.746133
C	-0.52987	-1.220285	0.737218
H	-1.624541	-1.285818	0.770411
H	-0.135327	-2.129483	0.280084
H	-0.155318	-1.190943	1.762817
F	2.606176	0.0	0.0
