15

C	-0.372151	0.003799	-1.444814
C	0.0	0.0	0.0
F	0.00615	1.164624	-2.050767
H	1.093913	0.0	0.0
H	-0.38424	0.936129	0.420228
C	0.174905	-1.131813	-2.205613
N	0.605919	-2.034772	-2.819603
N	-1.9043	-0.05718	-1.608483
O	-2.50671	1.008993	-1.567286
O	-2.41469	-1.173986	-1.660869
C	-0.481797	-1.225494	0.760815
H	-0.090938	-2.136083	0.299509
H	-0.066331	-1.180446	1.770037
H	-1.570796	-1.31815	0.835614
F	2.586289	0.0	0.0
