13
Coordinates from ORCA-job run
  C   -0.76488763437812     -0.69515557581173     -0.13499523894723
  C   0.63234848918941     -0.18991741531898     -0.50592090185729
  Br  -0.71595055079169     -2.42152335297188      0.70693795055191
  H   0.98475610380615     -0.88402506971696     -1.27724064218740
  H   -1.39316898477483     -0.78030052665543     -1.02119179187282
  N   -1.49472244004214      0.26449473191071      0.77121806329953
  O   -2.71622471498750      0.25720305044029      0.69029520340689
  O   -0.81717627826441      0.96526722510574      1.51876347294084
  N   1.57889392867509     -0.22751907452100      0.58287925601644
  H   2.51818333875575     -0.09559821980174      0.23191706340893
  H   1.36813314556930      0.49243649913551      1.26027346147944
  C   0.46458951743999      1.13011418445620     -1.15690354825874
  N   0.35522607980290      2.18352354374932     -1.66603234798050
