13
Coordinates from ORCA-job run
  C   -0.92049749194414     -0.04294897795568     -0.27611043713940
  C   0.60090011712483     -0.16850535211197     -0.26746701655187
  Br  -1.73863031220670     -1.13542922382671     -1.62914920120760
  H   0.82976891236655     -1.22000738626549     -0.07573720181538
  H   -1.25495525377181      0.98461021335615     -0.40880833130312
  N   -1.41296252098621     -0.47325366480586      1.08008175310886
  O   -1.00929476137065     -1.54964003018362      1.49847831698029
  O   -2.16652021145443      0.30513143809879      1.65175432663782
  N   1.09455704187849      0.62792430677098      0.84185866020322
  H   1.21216697148305      1.59645634364348      0.57498775924987
  H   1.98220406476993      0.27563559472695      1.17205260007621
  C   1.15120349525256      0.21206687510611     -1.57888638827573
  N   1.63205994885857      0.58995986344682     -2.58205483996320
