13
Coordinates from ORCA-job run
  C   -0.85712912903701     -0.05861500820168     -0.27771294060836
  C   0.67459397294171     -0.15187812336323     -0.37397722360069
  Br  -1.74474444324307     -1.18364732425166     -1.56077664851151
  H   0.93962009259114     -1.21123857972904     -0.31462605645834
  H   -1.22223123972686      0.96047334322807     -0.40093222961760
  N   -1.25949309132518     -0.48190582841031      1.10750462833145
  O   -0.76668713695577     -1.52127655699821      1.53371136114128
  O   -2.01904234752305      0.26946680063906      1.71067623996363
  N   1.38254688236826      0.55124352947420      0.67237812644463
  H   1.26648967158523      0.09616305010879      1.56747394280461
  H   1.11771130854932      1.52581463685443      0.73398576860397
  C   1.08463776166460      0.36807389900942     -1.68464231317218
  N   1.40372769811065      0.83732616164012     -2.71206265532089
