13
Coordinates from ORCA-job run
  C   -0.90951216283288      0.07883571835244     -0.30544771438573
  C   0.59369796825874     -0.18611277512055     -0.26415057421909
  Br  -1.76867081753145     -0.78637615773615     -1.79097580563268
  H   0.72215789588005     -1.26867715434640     -0.18179171478358
  H   -1.14659284755671      1.14119250094066     -0.33624236458873
  N   -1.49074205965881     -0.44381313014001      0.98167463703153
  O   -2.19988044951057      0.33416159978320      1.60818215307832
  O   -1.20303143769577     -1.59204188955155      1.29132877384175
  N   1.10949887163070      0.44036047158936      0.94086676324660
  H   1.32867708695875      1.41628006392493      0.78457417791792
  H   1.94456369747265     -0.02971060561245      1.26368296358388
  C   1.23031749268553      0.27057081466973     -1.51038685577222
  N   1.78851676189976      0.62533054324676     -2.48131443931798
