13
Coordinates from ORCA-job run
  C   -0.92218877763059     -0.03431295413852     -0.26865237022176
  C   0.59567010555781     -0.19833923740670     -0.25892783468473
  Br  -1.77761144206936     -1.18363707866863     -1.54987384905757
  H   0.79923208514031     -1.24181026475713     -0.00419882408476
  H   -1.23060213351033      0.99224465079534     -0.46054808685175
  N   -1.41841492299523     -0.37037267236129      1.11269709598471
  O   -2.16046669529748      0.45335425803036      1.63382792440680
  O   -1.03785419761688     -1.42879090528495      1.59445727626742
  N   1.11548915568078      0.65242145611772      0.79757442691282
  H   1.99136478278049      0.29318972736621      1.15301905667676
  H   1.26452259885846      1.59834700746230      0.46889724165001
  C   1.14828572862681      0.08623502392993     -1.59332573797427
  N   1.63157371247524      0.38047098891540     -2.62294631902363
