13
Coordinates from ORCA-job run
  C   -0.67893780914951     -0.67014623485751      0.12650479984613
  C   0.51826455729152      0.13331150470908     -0.38652992916370
  Br  -0.40814152451950     -1.33304995290341      1.90088774519305
  H   0.24290926805080      0.46141033888071     -1.39372450781833
  H   -0.84720901877008     -1.51437178578119     -0.54015030113105
  N   -1.91232919917122      0.20812832180718      0.02045018426925
  O   -2.22121562939001      0.44942014973702     -1.14447483352392
  O   -2.47481361873698      0.60908790726369      1.02647317652053
  N   1.66865589285610     -0.74198971389037     -0.49613950411166
  H   2.38119067146251     -0.30540423247337     -1.06775971647973
  H   2.06382587852069     -0.92491240164339      0.41852619669402
  C   0.72387354700781      1.33837821492799      0.44176425032955
  N   0.94392698454786      2.29113788422358      1.09317243937585
