13
Coordinates from ORCA-job run
  C   -0.92035279662030      0.19024286829385     -0.20577486452110
  C   0.54839610577088     -0.20219777553434     -0.34498610173336
  Br  -1.97874040861804     -0.37967660755772     -1.70532053191189
  H   0.57919953356174     -1.29245805584490     -0.41981233064309
  H   -1.05602611698393      1.26219814292326     -0.07061616866756
  N   -1.44036374565590     -0.45982220066985      1.04902788091381
  O   -1.23976897032022     -1.66047512378538      1.17336805545012
  O   -2.01708514801163      0.27794171021845      1.83894966386896
  N   1.22208408109786      0.20338315679176      0.87655739229488
  H   1.52174803383434      1.16935972010640      0.82826238156494
  H   2.03209144501287     -0.37618975455487      1.05153166107318
  C   1.11758103638596      0.37857603626040     -1.57224498911807
  N   1.62823695054636      0.88911788335293     -2.49894204857083
