13
Coordinates from ORCA-job run
  C   -0.67823689185430     -0.65360629740787      0.19923995266383
  C   0.53631652228185      0.07651691966192     -0.37748056407954
  Br  -0.49714990456276     -1.01121339683389      2.07038497920518
  H   0.31082472365272      0.22884403573332     -1.43762718181396
  H   -0.80344465966740     -1.59877816578030     -0.32665530717373
  N   -1.91298556787202      0.17302033738404     -0.11295095418865
  O   -2.53141102963997      0.72376546140443      0.78331635618842
  O   -2.15365404823102      0.22552350588784     -1.31699441415168
  N   1.69977653305295     -0.78350343077693     -0.28385513238295
  H   2.44618325048673     -0.41676646032213     -0.86162400498590
  H   2.03202539232496     -0.82467151894461      0.67255261594435
  C   0.68585579239068      1.40514450305726      0.24973664944359
  N   0.86589988763757      2.45672450693689      0.74195700533101
