13
Coordinates from ORCA-job run
  C   -0.71843140939798     -0.57710237213787      0.05534319114450
  C   0.57476743667743      0.12732852432937     -0.33974225742514
  Br  -0.69787845757271     -1.14434284763897      1.89340863717245
  H   0.43750152986922      0.47505386255903     -1.36734802309104
  H   -0.84326889023229     -1.46999859987453     -0.55860111644164
  N   -1.93723006504354      0.28772068052596     -0.20058886362792
  O   -1.74446696428020      1.35235618927126     -0.78267489756118
  O   -3.01774446102076     -0.17378927901484      0.13486653611077
  N   1.64509577744073     -0.85665402944933     -0.33549777303076
  H   1.90651242666702     -1.08557733493178      0.61651171067190
  H   2.46072633189290     -0.47479287051706     -0.79865579981024
  C   0.82459829944425      1.31190233817044      0.50284861449976
  N   1.11081844555591      2.22789573870833      1.18013004138854
