13
Coordinates from ORCA-job run
  C   -0.91087036429584     -0.11592941785809     -0.28484236769794
  C   0.61091930521562     -0.21192711303873     -0.20742293482508
  Br  -1.67828684943827     -1.48987897348456     -1.38809111518027
  H   0.84479057952204     -1.19244542853361      0.21564882780106
  H   -1.25077869753980      0.85279662184570     -0.64791815614051
  N   -1.44063437126485     -0.24798653933047      1.11836587679325
  O   -1.04118715585424     -1.20168876948530      1.77257406999833
  O   -2.22568341708872      0.61947889365297      1.48171755827455
  N   1.06310235261171      0.81607679964586      0.71369200082774
  H   1.18170838424691      1.70492849852480      0.24352734265960
  H   1.94301598842661      0.55799568499020      1.14009106739707
  C   1.19734785203020     -0.11944839665196     -1.55475578703392
  N   1.70755639342863      0.02902813972326     -2.60258638287384
