13
Coordinates from ORCA-job run
  C   -0.74002843817142     -0.58900289888402     -0.28831742881617
  C   0.70575440391491     -0.08479348004876     -0.53256980773480
  Br  -0.74603689554655     -2.39728544142850      0.36508382609672
  H   1.08131873099834     -0.68719374385855     -1.36764428078762
  H   -1.33084546149025     -0.55868219381724     -1.20248098682672
  N   -1.45150345980557      0.30839294310809      0.68436197201968
  O   -2.46789573708098      0.85691323941214      0.27023607880862
  O   -0.94219914713147      0.45175823314392      1.79193516370998
  N   1.66517465705540     -0.16297231846113      0.53953309136109
  H   1.87323298245854     -1.13037819348439      0.75068545197430
  H   1.30105329921652      0.27865220801868      1.37444940969355
  C   0.59162983365279      1.30394167398123     -1.00754950730695
  N   0.45934523192970      2.41064997231852     -1.37672298219170
