13
Coordinates from ORCA-job run
  C   -0.90579824277271     -0.18988182655793     -0.25841195958772
  C   0.61996726195096     -0.18444576182085     -0.20704407708876
  Br  -1.60206889526747     -1.67182234723392     -1.26505139394216
  H   0.92390610021911     -1.12096115888479      0.26803950432828
  H   -1.31363299727360      0.73262024650027     -0.66879760679279
  N   -1.40249838262639     -0.27349535307449      1.16059707867780
  O   -2.23943717656694      0.55908775109042      1.48811271698880
  O   -0.92886072991345     -1.15775383730947      1.86115575778312
  N   1.02002751932984      0.92374594465501      0.64270849710385
  H   1.07421328650564      1.78833823304211      0.11861211610051
  H   1.92120782545787      0.74718934093517      1.06621390109149
  C   1.17630780448347     -0.13543996116599     -1.56918980144832
  N   1.65666662647362     -0.01818127017556     -2.63494473321409
