13
Coordinates from ORCA-job run
  C   -0.55469352094312     -0.62988741886055      0.26459021408708
  C   0.59415595356934      0.17840278042131     -0.38340920938978
  Br  -0.42106080744026     -0.69720369936525      2.17182863102353
  H   0.39572815243985      0.15245775670184     -1.46066091600946
  H   -0.54758789861920     -1.65038146869836     -0.11831711785970
  N   -1.86784146625683     -0.03529792523202     -0.20492155161095
  O   -2.57234775992689      0.59462611664297      0.56708547468700
  O   -2.06751816306753     -0.22574297081898     -1.40329871518237
  N   1.92512768932831     -0.33138897821265     -0.15615746601995
  H   2.13189323637338     -0.38238512743063      0.83361560445719
  H   2.03570823823725     -1.24852443097954     -0.56992191863387
  C   0.51098939469742      1.57860966451292      0.05224801920047
  N   0.43944695160823      2.69571570131895      0.40531895125075
