13
Coordinates from ORCA-job run
  C   -0.65302284266485     -0.61999632066272      0.23310413135782
  C   0.56453387522265      0.06940147679979     -0.37730326420700
  Br  -0.54542937880808     -0.70215844665728      2.14776365263203
  H   0.40099590589717      0.08554322118490     -1.45726857911513
  H   -0.70757220992679     -1.64430466854982     -0.13987304982473
  N   -1.94470638090302      0.05544286278718     -0.20666171055375
  O   -1.88206573123791      0.65840448363105     -1.27518601262222
  O   -2.94421623948261     -0.11708919099990      0.47194341260702
  N   1.73834980262427     -0.74213804179577     -0.11064664593284
  H   2.01872404805209     -0.65162367855434      0.85871111276157
  H   2.50774696809630     -0.43182803072235     -0.69109493224711
  C   0.65471521940020      1.46959193070169      0.08107266325067
  N   0.79194696373061      2.57075440283755      0.46643922189370
