13
Coordinates from ORCA-job run
  C   -0.86502821979731      0.16795832048188     -0.19837536816793
  C   0.60846237269547     -0.18376532628388     -0.46254428694299
  Br  -2.03187072410138     -0.45277002621218     -1.59534648157949
  H   0.65615617605093     -1.25913449043639     -0.65584765716064
  H   -1.02164796424994      1.23805463269796     -0.06659793354765
  N   -1.26453131218853     -0.47553127473629      1.10010462448139
  O   -1.80761240935420      0.25055494134691      1.92693599189133
  O   -0.98696209817218     -1.66231669303537      1.23798548081878
  N   1.49990980739987      0.11798507192607      0.63553266048876
  H   1.43472265775572      1.08260777883824      0.93469429361360
  H   1.34575308221736     -0.50418330306060      1.41730938346384
  C   1.04388539144265      0.53404299923108     -1.66712851363156
  N   1.38876324030152      1.14549736924257     -2.60772219372744
