13
Coordinates from ORCA-job run
  C   -0.69248944653354     -0.66020291445594      0.10507638996899
  C   0.54065321753613      0.11617138536581     -0.36132416109124
  Br  -0.53315938852713     -1.27193314896546      1.91128395069601
  H   0.32569235082608      0.41652488157559     -1.39160519513730
  H   -0.83227578510770     -1.52272425525053     -0.54461618733753
  N   -1.90832505048048      0.22628954261792     -0.09818031005842
  O   -2.13892986755346      0.44607197837971     -1.28515985024540
  O   -2.52236055137737      0.66343714451323      0.86146267710032
  N   1.68572273225432     -0.77294948387845     -0.38043661081983
  H   2.00877871897254     -0.95177067951671      0.56313336299337
  H   2.44443829877853     -0.34634915938892     -0.89793445642363
  C   0.71265661225550      1.34318620062932      0.44228805642483
  N   0.91059815895656      2.31324850837447      1.07501233392979
