13
Coordinates from ORCA-job run
  C   -0.79074744267689     -0.59223172258750     -0.33394300541095
  C   0.68664828193564     -0.19928209930163     -0.42603626883830
  Br  -1.02820858065106     -2.39517637624021      0.28507379118496
  H   1.09715709401250     -0.83838051028744     -1.21591007224996
  H   -1.27334641799623     -0.51283799239904     -1.30766285510186
  N   -1.57042467021947      0.33476152061256      0.56475894082655
  O   -2.75814622295702      0.46784405381772      0.29926756635855
  O   -0.96477446079038      0.87162411769287      1.48878449482769
  N   1.43861060154830     -0.45493718755487      0.77899927817670
  H   1.18425814553148      0.20419497868094      1.50184657636716
  H   2.43003076299802     -0.38434174502751      0.59198427788592
  C   0.74093400150784      1.19444853771636     -0.92480864258832
  N   0.80600890775732      2.30431442487785     -1.30535408143814
