13
Coordinates from ORCA-job run
  C   -0.88600643979398     -0.20164322618356     -0.31456647189151
  C   0.62763618028572     -0.23109781564800     -0.11668610963509
  Br  -1.54816008499502     -1.80009547375976     -1.15171708787341
  H   0.84599627723595     -1.09267627660294      0.51981459246960
  H   -1.21566040740885      0.65809012717120     -0.89591964289709
  N   -1.51312323663244     -0.05384998909084      1.04646706067368
  O   -2.33675791052673      0.84515386946582      1.16564608981100
  O   -1.14557917873646     -0.83659895909321      1.91215736893263
  N   0.99501170479423      0.98110444179467      0.59398457209541
  H   1.13179020365702      1.75516920859840     -0.04409487857530
  H   1.84545555987777      0.84608482826900      1.12407950096517
  C   1.30836167087223     -0.40564684265098     -1.41035146244277
  N   1.89103566137054     -0.46499389226981     -2.42881353163233
