13
Coordinates from ORCA-job run
  C   -0.68426907645558     -0.69398867705445     -0.15228583614288
  C   0.67076469202606     -0.07229065081724     -0.57686856527699
  Br  -0.43274073358249     -2.39698789541164      0.70473782203153
  H   1.05153357207019     -0.72918429949309     -1.36730125079567
  H   -1.33943346089988     -0.84126073275697     -1.00946630480416
  N   -1.42461640606693      0.23437813762202      0.76852755622527
  O   -2.53343976144745      0.59994168189794      0.39133049290425
  O   -0.85173558762830      0.57902553345516      1.79793775520397
  N   1.70931958205598      0.08566133813000      0.40924805257906
  H   1.35732561939209      0.58120418549707      1.21866422526685
  H   2.04781368327371     -0.82017300747909      0.70678941376229
  C   0.35969171396392      1.22617250723625     -1.19727665366138
  N   0.06878616329866      2.24950187917406     -1.69403670729215
