13
Coordinates from ORCA-job run
  C   -0.81059833056944     -0.59235450968702     -0.27953023628979
  C   0.65713202495251     -0.19933139557673     -0.46932763478641
  Br  -1.00620358027001     -2.39577721437784      0.35376400347419
  H   1.01494137249383     -0.83893672271754     -1.28405361306601
  H   -1.35685001128542     -0.51377487321414     -1.21909549158765
  N   -1.52972062980713      0.33420392052146      0.66887319337831
  O   -0.86313070760406      0.87794824316656      1.54576091315745
  O   -2.73316865861954      0.46322975650360      0.48508642178107
  N   1.48706679148050     -0.45395717554704      0.68395930821143
  H   1.28031271096765      0.20643995280796      1.42076722700713
  H   2.46381498486785     -0.38155309814211      0.43157318969222
  C   0.67848243580434      1.19363691175471     -0.97272858702579
  N   0.71992159758888      2.30122620450815     -1.36304869394617
