13
Coordinates from ORCA-job run
  C   -0.72447990891931     -0.62600373393910      0.10093933315907
  C   0.54770533881093      0.08954972763194     -0.35749382893562
  Br  -0.60718788751285     -1.24201796398354      1.90899562339340
  H   0.35504197943039      0.39815139103287     -1.38977744609964
  H   -0.90081657160891     -1.48167486388428     -0.54890995116158
  N   -1.89470028683141      0.31753921415019     -0.11177932656381
  O   -2.10767731419826      0.54473008847915     -1.30066055458586
  O   -2.49206555542220      0.78696625110881      0.84315832700568
  N   1.64898033784450     -0.85349000181711     -0.36768295173956
  H   1.95591787856071     -1.04708031697416      0.57835881656205
  H   2.43115794348601     -0.46389162036069     -0.87940538032379
  C   0.77301177602267      1.30826006661427      0.44561061768548
  N   1.01411227033776      2.26896176194164      1.07764672160415
