13
Coordinates from ORCA-job run
  C   -0.62794268147031     -0.59772331620122      0.15016070489038
  C   0.60608615640960      0.18274041844037     -0.36117721262034
  Br  -0.47374608256604     -1.09064276692157      1.99206163110385
  H   0.38825531793980      0.41646061128969     -1.40918314659701
  H   -0.75872381809177     -1.50445883537530     -0.44081953280414
  N   -1.86021976983698      0.24171241886303     -0.12584282692234
  O   -2.46551033602956      0.77159005772266      0.79173285066765
  O   -2.10096231211803      0.34115837185144     -1.32764417727119
  N   1.86191931753589     -0.52643310378869     -0.30786951726002
  H   1.84639182116553     -1.33421549144083     -0.91740817234107
  H   2.07442344601339     -0.82187225285870      0.63684190484474
  C   0.71478384540906      1.45384754036651      0.36670872522661
  N   0.79524509563944      2.46783634805260      0.95243876908288
