13
Coordinates from ORCA-job run
  C   -0.80791003203972     -0.57611295218479     -0.31917960137216
  C   0.66373189013601     -0.17975651797501     -0.46805293843910
  Br  -1.01809509110419     -2.40540653399944      0.22963949368963
  H   1.03187155392924     -0.78261432272248     -1.30588246676204
  H   -1.33835543993502     -0.45388703024145     -1.26312586330387
  N   -1.53960981649651      0.30893500977996      0.65853093314954
  O   -2.73904764368678      0.45278124533084      0.46017037754338
  O   -0.88687861649378      0.80376859951425      1.57389063334298
  N   1.47531948425729     -0.48920030564178      0.68434498328077
  H   2.45609397372395     -0.40899618606446      0.45092046875391
  H   1.25865775903591      0.13609284095690      1.44836305824397
  C   0.69616236402158      1.23488135919148     -0.90689338065388
  N   0.74705961465200      2.35951479405599     -1.24372569747313
