17

C	-0.565684	-0.005582	-1.426004
C	0.0	0.0	0.0
Br	0.245683	1.517118	-2.337616
H	1.091836	0.0	0.0
N	-0.059243	-1.237047	-2.180176
O	-0.722458	-1.582705	-3.154313
O	0.973633	-1.75183	-1.783201
C	-2.069715	0.088961	-1.543165
H	-2.523354	-0.802298	-1.10904
H	-2.416285	0.979527	-1.017971
H	-2.353106	0.155897	-2.591198
N	-0.41248	-1.228582	0.779644
O	-0.110397	-1.232661	1.964617
O	-0.985318	-2.136319	0.179169
C	-0.488409	1.15737	0.735511
N	-0.914234	2.087494	1.313768
Cl	3.149058	0.0	0.0
