15

C	-0.378173	-0.080172	-1.497834
C	0.0	0.0	0.0
Br	-0.596798	1.801869	-2.259039
H	1.095272	0.0	0.0
H	-1.385426	-0.472234	-1.641532
N	0.560236	-0.811229	-2.235209
H	0.250772	-1.711852	-2.555952
H	1.498068	-0.804449	-1.845273
C	-0.427256	-1.290881	0.54662
N	-0.832758	-2.317625	0.950444
C	-0.549752	1.143092	0.843939
H	-1.63685	1.221809	0.758141
H	-0.287594	0.974942	1.890693
H	-0.100461	2.081214	0.524225
Br	3.496411	0.0	0.0
