15

C	-0.387935	-0.108588	-1.492365
C	0.0	0.0	0.0
Br	-0.247802	1.657758	-2.362961
H	1.096828	0.0	0.0
H	-1.442043	-0.373317	-1.606111
N	0.422898	-1.040966	-2.222428
H	0.157838	-1.984067	-1.959041
H	1.39898	-0.901295	-1.963544
C	-0.441913	-1.265318	0.590466
N	-0.853038	-2.27905	1.021287
C	-0.553684	1.178224	0.793897
H	-0.092021	2.100875	0.446473
H	-1.63962	1.259804	0.686704
H	-0.312838	1.052802	1.851441
Br	3.491452	0.0	0.0
