11
Coordinates from ORCA-job run
  C   -0.51819136446076      0.65616563886838      0.03623442022358
  C   0.96407877225589      0.33984891420622      0.07379583383697
  F   -0.78490176469134      1.61401841132658      0.96064843489723
  H   1.51835972363671      1.25956165225057     -0.12995749416249
  H   -0.88963203882060      0.96427583733662     -0.94015819643356
  H   1.21242261563299      0.00417407742926      1.08377265638006
  N   -1.29187187530680     -0.58231876484253      0.41530755024232
  O   -1.96927256942703     -1.09660818457351     -0.46955332817069
  O   -1.15340453912662     -0.97181264695507      1.56892304282597
  C   1.31913351584619     -0.68450708830056     -0.90340376179454
  N   1.59427952446137     -1.50379784674595     -1.69660915784482
