11
Coordinates from ORCA-job run
  C   -0.46789869064852      0.66832155774821      0.24535988857481
  C   0.69371003322650      0.35356862844451     -0.67871467787551
  F   -0.03019811552896      1.10032849199919      1.44574257500748
  H   1.25962665203309      1.27334162007520     -0.84800640587195
  H   -1.14929514437129      1.40162656078222     -0.18905070928360
  H   0.30273530708664      0.00657248666405     -1.63706472400909
  N   -1.29020043889873     -0.58851726974741      0.43971367565911
  O   -1.82900632793260     -0.99159551021434     -0.58610528141376
  O   -1.34094320707935     -1.08291009473824      1.55446670404391
  C   1.57425245147326     -0.66098419198873     -0.10336800160417
  N   2.27721748063995     -1.47975227902467      0.35602695677277
