11
Coordinates from ORCA-job run
  C   -0.43217854719865      0.47820745920653      0.16720460492257
  C   0.73601101652038     -0.36758057985728     -0.30971455614064
  F   -0.06608223568981      1.25923390896482      1.20364326014981
  H   0.39737269347670     -1.04451731977178     -1.09657206960425
  H   -0.87414958599126      1.08852672881911     -0.62125696110169
  H   1.09990897713015     -0.96378318758780      0.53264558139652
  N   -1.52403896542090     -0.46807714718405      0.62188056859268
  O   -2.03047331972549     -1.12101178809386     -0.28479582619892
  O   -1.78921413181937     -0.51602445887074      1.81298517245906
  C   1.81344640510028      0.48195582690122     -0.80870427587305
  N   2.66839769361796      1.17307055747382     -1.21731549860209
