12

C	-0.423828	0.01186	-1.430872
C	0.0	0.0	0.0
Cl	0.09305	1.520381	-2.24024
H	1.090287	0.0	0.0
H	-0.376891	-0.916599	0.467142
H	-0.409114	0.87868	0.500409
C	0.109676	-1.123735	-2.1818
N	0.533231	-2.061675	-2.747731
N	-1.964162	-0.010214	-1.59587
O	-2.454031	-0.811842	-2.388081
O	-2.589089	0.783197	-0.905913
F	2.595486	0.0	0.0
