12

C	-0.431706	-0.021894	-1.444957
C	0.0	0.0	0.0
Cl	0.106106	-1.501865	-2.252514
H	1.091241	0.0	0.0
H	-0.402706	-0.886467	0.495326
H	-0.406175	0.901393	0.464375
C	-1.875199	0.108283	-1.662408
N	-3.040789	0.175954	-1.797107
N	0.199257	1.209263	-2.142579
O	-0.246011	2.275532	-1.729638
O	1.047752	1.055717	-3.001171
F	2.603532	0.0	0.0
