12

C	-0.318821	0.012736	-1.45008
C	0.0	0.0	0.0
Cl	-2.095097	-0.135792	-1.856333
H	1.091705	0.0	0.0
H	-0.397477	0.90143	0.469614
H	-0.411373	-0.898294	0.459404
C	0.163168	1.216085	-2.124083
N	0.468943	2.234617	-2.622791
N	0.317352	-1.210074	-2.130656
O	0.889719	-1.02849	-3.197955
O	0.161635	-2.279152	-1.561992
F	2.575623	0.0	0.0
