12

C	-0.415913	0.070597	-1.43077
C	0.0	0.0	0.0
Cl	0.126986	1.600103	-2.183984
H	1.090204	0.0	0.0
H	-0.406641	0.859869	0.53059
H	-0.374945	-0.935623	0.42989
C	0.095246	-1.04238	-2.228403
N	0.51857	-1.950904	-2.841532
N	-1.959626	0.074957	-1.595976
O	-2.562298	0.90448	-0.92992
O	-2.467846	-0.755004	-2.342362
F	2.59104	0.0	0.0
