12

C	-0.44287	-0.04452	-1.432246
C	0.0	0.0	0.0
Cl	0.122576	1.38412	-2.321041
H	1.089833	0.0	0.0
H	-0.399809	0.907723	0.458904
H	-0.383697	-0.890437	0.508148
C	0.022253	-1.238886	-2.136751
N	0.389712	-2.19927	-2.704259
N	-1.989367	-0.063342	-1.50001
O	-2.509856	-1.176357	-1.492113
O	-2.581335	1.004958	-1.438548
F	2.588872	0.0	0.0
