19

C	0.0	0.0	0.0
C	-0.338675	-0.134803	-1.536259
Br	1.979818	0.0	0.0
H	0.390864	0.505911	-2.046694
N	-0.430858	1.243053	0.587381
H	-0.238479	2.012401	-0.045786
H	-1.441086	1.181376	0.714438
C	-0.526709	-1.132516	0.854105
H	-0.273971	-0.945395	1.89943
H	-0.117127	-2.095567	0.55284
H	-1.618116	-1.148845	0.752332
N	-1.646989	0.334958	-1.94026
H	-2.409057	-0.107734	-1.426368
H	-1.742446	1.32316	-1.745537
C	-0.168521	-1.561148	-2.045
H	0.78739	-1.998368	-1.748996
H	-0.236742	-1.553686	-3.134511
H	-0.981998	-2.1881	-1.670906
Cl	-4.167839	0.0	0.0
