19

C	0.0	0.0	0.0
C	-0.349514	-0.200161	-1.524072
Br	1.988931	0.0	0.0
H	0.44084	0.330513	-2.062691
N	-0.431214	1.327702	0.388013
H	-1.451991	1.307855	0.354668
H	-0.17073	1.486329	1.356602
C	-0.500334	-1.091274	0.928538
H	-0.229371	-0.853609	1.961158
H	-1.594138	-1.104479	0.851324
H	-0.099892	-2.074909	0.681027
N	-1.594924	0.377544	-1.979358
H	-1.565703	1.382748	-1.862764
H	-2.405454	0.042668	-1.457699
C	-0.313818	-1.668647	-1.927633
H	-0.406207	-1.728741	-3.013572
H	-1.164569	-2.199482	-1.493064
H	0.611618	-2.161443	-1.619979
Cl	-4.10809	0.0	0.0
