14

C	0.0	0.0	0.0
C	-0.274264	-0.004531	-1.526785
Br	1.94293	0.0	0.0
H	0.356993	0.778756	-1.953668
H	-1.311141	0.273579	-1.674448
N	-0.47144	1.260516	0.63513
O	-0.489593	1.302453	1.871551
O	-0.49115	2.260978	-0.102662
C	-0.457453	-1.149303	0.758395
N	-0.572665	-2.111132	1.433451
N	-0.010645	-1.332023	-2.061802
H	-0.745684	-1.602406	-2.698164
H	0.878406	-1.362093	-2.538791
H	-2.03835	0.0	0.0
