14

C	0.0	0.0	0.0
C	-0.227103	-0.094109	-1.543468
Br	1.942152	0.0	0.0
H	0.214548	-1.047784	-1.847005
H	0.39052	0.712378	-1.945217
N	-0.575963	1.242009	0.54705
O	-0.609722	1.352138	1.788921
O	-0.599111	2.224514	-0.238875
C	-0.457922	-1.139366	0.770861
N	-0.581636	-2.152305	1.366004
N	-1.598561	-0.045589	-2.050821
H	-1.532105	-0.128354	-3.065577
H	-1.948569	0.8847	-1.847573
H	-1.855911	0.0	0.0
