14

C	0.0	0.0	0.0
C	-0.326417	0.074257	-1.521486
Br	1.934757	0.0	0.0
H	0.451473	0.682025	-1.987336
H	-1.284098	0.576518	-1.63128
N	-0.462913	1.254715	0.675487
O	-0.469887	2.271	-0.032835
O	-0.510832	1.256138	1.91353
C	-0.495879	-1.190706	0.672724
N	-0.70023	-2.207742	1.237307
N	-0.286273	-1.27373	-2.082982
H	-0.180054	-1.203146	-3.087804
H	-1.183	-1.714178	-1.900434
H	-2.132493	0.0	0.0
