14

C	0.0	0.0	0.0
C	-0.218189	-0.301911	-1.516436
Br	1.942188	0.0	0.0
H	0.234049	-1.283949	-1.682371
H	0.400023	0.446375	-2.01705
N	-0.542107	1.317482	0.377585
O	-0.562692	2.181682	-0.53167
O	-0.576418	1.590508	1.591458
C	-0.45646	-1.016501	0.92516
N	-0.589349	-1.930268	1.661563
N	-1.582397	-0.337282	-2.048678
H	-1.965916	0.594567	-1.927936
H	-1.481887	-0.489129	-3.054009
H	-1.853287	0.0	0.0
