14

C	-0.523181	0.017394	-1.439035
C	0.0	0.0	0.0
Br	0.056605	1.62655	-2.356334
H	1.091499	0.0	0.0
H	-0.095395	-0.819874	-1.98751
C	-1.97981	-0.053053	-1.464544
N	-3.153199	-0.115883	-1.44572
N	-0.380221	-1.390373	0.541033
O	-0.898407	-1.452257	1.654277
O	-0.12467	-2.355371	-0.175807
N	-0.492648	1.056594	0.794663
H	0.155927	1.250327	1.545381
H	-1.406945	0.854272	1.177616
Br	3.395933	0.0	0.0
