14

C	-0.543174	-0.001199	-1.418014
C	0.0	0.0	0.0
Br	0.368161	-1.342126	-2.505776
H	1.096104	0.0	0.0
H	-1.599427	-0.27469	-1.417621
C	-0.354215	1.312338	-2.017783
N	-0.192179	2.393779	-2.450585
N	-0.406925	-1.275445	0.686359
O	0.325245	-1.617389	1.61506
O	-1.384674	-1.907204	0.279928
N	-0.654201	1.037979	0.775904
H	-0.447355	1.943483	0.370881
H	-0.25926	1.031169	1.711104
Br	2.756218	0.0	0.0
