14

C	-0.499608	0.020314	-1.442463
C	0.0	0.0	0.0
Br	-2.462995	-0.178958	-1.536254
H	1.098066	0.0	0.0
H	-0.325376	1.04294	-1.792579
C	0.123395	-0.916455	-2.371909
N	0.652456	-1.606597	-3.167039
N	-0.366815	-1.29437	0.6853
O	-0.837286	-1.244456	1.820946
O	-0.159567	-2.318882	0.049523
N	-0.483816	1.154281	0.7093
H	0.341175	1.626858	1.106994
H	-1.075035	0.830254	1.487175
Br	3.35472	0.0	0.0
