9
Coordinates from ORCA-job run
  C   -0.97344050578285     -0.16187834082508     -0.22057654871867
  C   0.33627646626205      0.54292453338865      0.09386732288717
  F   -1.28278239059527     -1.03137829849640      0.80767457771105
  H   0.54787943654469      1.28641611289004     -0.68067499812710
  H   -1.77922002947188      0.57106691086208     -0.30316966894678
  H   -0.90081529340671     -0.73814890027294     -1.14482117256177
  H   0.24304240040213      1.07169954614276      1.04569824671745
  C   1.45719448024399     -0.39224957351269      0.17615814681053
  N   2.35186543580385     -1.14845199017641      0.22684409422813
