9
Coordinates from ORCA-job run
  C   -1.00020284595947     -0.13881541425808     -0.04948082222887
  C   0.36032442340078      0.53557843944897      0.02110150260589
  F   -1.04411190233048     -0.96405234722497     -1.15669460341430
  H   0.37657712774407      1.24313964797391      0.85570705516006
  H   -1.18658812214264     -0.74718783822261      0.83744824743947
  H   -1.78402510103402      0.61480750413450     -0.15330637833126
  H   0.53253339585156      1.10104956105756     -0.89808315665925
  C   1.44327265096256     -0.43166696442995      0.19492506979194
  N   2.30322037350765     -1.21385258847932      0.34838308563633
