9
Coordinates from ORCA-job run
  C   -0.99454867576544     -0.12591028402179     -0.13073104305362
  C   0.41203547701800      0.44258614158314     -0.22640427300599
  F   -0.98783455689103     -1.43683473217849     -0.56696967878515
  H   0.76336830701009      0.36611809134817     -1.25844559258973
  H   -1.35867248456608     -0.11034935530816      0.89816531306239
  H   -1.67061147929957      0.44444843996627     -0.77160175017340
  H   0.39891313405889      1.50303695385012      0.04336860408110
  C   1.34884161260122     -0.26059073653774      0.64909008777394
  N   2.08850866583391     -0.82150451870152      1.36552833269046
