9
Coordinates from ORCA-job run
  C   -0.98289938194215     -0.14527293168942     -0.18510178266031
  C   0.35674120703052      0.53691736075033      0.04028603275104
  F   -1.29766404655444     -0.91020594797522      0.92154786170621
  H   0.57461113019352      1.20504712833692     -0.79854730640283
  H   -0.95102746622231     -0.80213132015696     -1.05629386680888
  H   -1.76533143459026      0.60560478726664     -0.31574211351943
  H   0.30422345947586      1.14622320096409      0.94603492789438
  C   1.44745349061470     -0.42749336693706      0.17746908650783
  N   2.31689304199457     -1.20868891055932      0.27134716053199
