17

C	0.0	0.0	0.0
C	-0.527115	0.060401	-1.430414
Cl	1.797973	0.0	0.0
H	-1.632104	0.082683	-1.254865
C	-0.430588	1.249131	0.754635
H	-1.526907	1.250002	0.73257
H	-0.034785	2.153671	0.293217
H	-0.081342	1.180261	1.789928
N	-0.512048	-1.224082	0.556953
H	-1.544016	-1.09778	0.494898
H	-0.276199	-1.251518	1.543483
C	-0.196628	-1.16455	-2.179697
N	0.046044	-2.060288	-2.902988
N	-0.118561	1.272062	-2.131926
H	-0.703456	1.385571	-2.951181
H	0.840974	1.170537	-2.44475
H	-3.087494	0.0	0.0
