17

C	0.0	0.0	0.0
C	-0.527458	0.024351	-1.43219
Cl	1.801499	0.0	0.0
H	-1.631619	0.050472	-1.257609
C	-0.426353	1.270106	0.724438
H	-1.522927	1.274853	0.704396
H	-0.076689	1.225458	1.760803
H	-0.027376	2.160834	0.24012
N	-0.514453	-1.207244	0.587381
H	-0.280293	-1.206729	1.576506
H	-1.545898	-1.078683	0.520525
C	-0.193541	-1.216286	-2.150087
N	0.079691	-2.123608	-2.84657
N	-0.119106	1.218665	-2.162
H	-0.717638	1.323035	-2.973014
H	0.833881	1.102815	-2.489478
H	-3.09757	0.0	0.0
