17

C	0.0	0.0	0.0
C	-0.18253	-0.08832	-1.569064
Cl	1.829518	0.0	0.0
H	0.498272	0.664731	-1.990399
C	-0.459739	1.341039	0.518612
H	0.0047	2.16318	-0.034971
H	-0.207864	1.424818	1.578701
H	-1.55648	1.33445	0.402015
N	-0.589603	-1.048388	0.729255
H	-1.620252	-0.79518	0.676403
H	-0.482103	-1.900085	0.181233
C	-1.489373	0.219216	-2.178793
N	-2.425348	0.333428	-2.874145
N	0.175028	-1.447772	-2.004995
H	-0.188292	-1.610328	-2.936301
H	1.185075	-1.533207	-2.026582
H	-2.993595	0.0	0.0
