17

C	0.0	0.0	0.0
C	-0.328261	0.0952	-1.532951
Cl	1.836342	0.0	0.0
H	0.385248	-0.582989	-2.011929
C	-0.471993	1.186993	0.81527
H	-0.062292	2.129993	0.449859
H	-1.56724	1.191241	0.755191
H	-0.173294	1.051613	1.859273
N	-0.501534	-1.270866	0.454644
H	-0.251023	-1.377271	1.43428
H	-1.526785	-1.160246	0.424339
C	-0.0009	1.447395	-2.025716
N	0.261331	2.524164	-2.415003
N	-1.657272	-0.276767	-1.964263
H	-2.383975	0.006377	-1.263573
H	-1.696002	-1.290739	-1.9633
H	-3.362775	0.0	0.0
