17

C	0.0	0.0	0.0
C	-0.513831	0.088579	-1.445997
Cl	1.796513	0.0	0.0
H	-1.616779	0.126885	-1.26926
C	-0.449757	1.233173	0.762577
H	-0.098849	1.148922	1.792642
H	-0.058584	2.136705	0.297392
H	-1.546281	1.231482	0.73868
N	-0.504973	-1.162207	0.676643
H	-0.299092	-1.994265	0.130035
H	-1.533476	-1.021753	0.661518
C	-0.210562	-1.151678	-2.180325
N	0.061536	-2.127419	-2.778641
N	-0.075952	1.287135	-2.148667
H	-0.674154	1.4365	-2.952057
H	0.875429	1.165036	-2.475848
H	-3.108137	0.0	0.0
