17

C	0.0	0.0	0.0
C	-0.342135	0.318839	-1.500808
Cl	1.792781	0.0	0.0
H	0.362653	-0.289186	-2.078084
C	-0.491011	1.052027	0.977222
H	-0.085766	2.041019	0.757901
H	-1.585718	1.060052	0.911917
H	-0.197519	0.767425	1.992156
N	-0.509502	-1.32847	0.256238
H	-0.263133	-1.582021	1.208473
H	-1.533467	-1.212736	0.244214
C	-0.00358	1.724899	-1.797921
N	0.23376	2.846219	-2.057871
N	-1.675297	0.027235	-1.973097
H	-1.726232	-0.971317	-2.134894
H	-2.400405	0.203535	-1.235948
H	-3.388631	0.0	0.0
