13

C	-0.487082	-0.092604	-1.441126
C	0.0	0.0	0.0
F	-0.284035	1.136762	-2.066119
H	1.093838	0.0	0.0
H	-1.568079	-0.271092	-1.477229
H	-0.30982	-0.905486	0.533516
C	0.284196	-1.148557	-2.200396
H	0.090851	-2.138303	-1.779317
H	-0.013513	-1.149753	-3.251059
H	1.352396	-0.939759	-2.117419
C	-0.558553	1.154054	0.69232
N	-1.05596	2.060998	1.24646
Cl	3.421854	0.0	0.0
