13

C	-0.427946	0.015512	-1.455773
C	0.0	0.0	0.0
F	-1.828393	0.135629	-1.544963
H	1.093976	0.0	0.0
H	-0.172296	-0.940514	-1.921908
H	-0.334674	0.922742	0.484161
C	0.216755	1.162419	-2.201437
H	-0.0981	2.112256	-1.760879
H	1.306393	1.079924	-2.121855
H	-0.082184	1.150552	-3.254325
C	-0.54145	-1.143008	0.725431
N	-0.993408	-2.063997	1.296271
Cl	3.397967	0.0	0.0
