13

C	-0.507478	0.001749	-1.434147
C	0.0	0.0	0.0
F	-0.067639	1.192505	-2.028669
H	1.093809	0.0	0.0
H	-1.604327	0.046378	-1.471226
H	-0.334779	0.915947	0.498862
C	0.003414	-1.165601	-2.251514
H	1.09402	-1.174907	-2.224672
H	-0.337336	-1.069633	-3.286422
H	-0.369386	-2.109466	-1.845947
C	-0.503402	-1.150433	0.722207
N	-0.921924	-2.09012	1.292323
Cl	2.868309	0.0	0.0
