13
Coordinates from ORCA-job run
  C   0.69323093047863     -0.77982960480287      0.57750434861942
  C   -0.47437502372118      0.19181639505888      0.32359765962499
  Br  1.60475225173621     -0.35858124829153      2.24327175130836
  H   -1.03776540264777      0.26628619412045      1.26378784601576
  H   0.31671444809122     -1.79832996093449      0.69800354717228
  C   1.63788017486007     -0.74505880286989     -0.53016008824563
  N   2.38842162412373     -0.69198585694790     -1.43191073467299
  N   -1.23491725004748     -0.38025738972907     -0.78597999912977
  H   -1.71538957063749     -1.22852656747975     -0.50533811580304
  H   -1.93434637079794      0.28565611532378     -1.09230116879248
  N   0.04191770132516      1.49739318510312      0.02024018767660
  H   -0.65595934781693      2.21492457206047      0.15899904948861
  H   0.36983583505375      1.52749296938881     -0.93871428326212
