13
Coordinates from ORCA-job run
  C   0.67227652647775     -0.87145973932843      0.31309377349107
  C   -0.31680568467808      0.30779303076965      0.22256454195066
  Br  0.82659761031273     -1.51810380504463      2.13972007971275
  H   -0.03034720764204      1.03881747747664      0.99162816662082
  H   0.28075264122415     -1.69758080210432     -0.28423786940488
  C   1.99448816501910     -0.49825352558503     -0.17063381069515
  N   3.03828370705972     -0.14135874527339     -0.57527050074734
  N   -1.63642311896297     -0.17727535346571      0.53670450274586
  H   -2.05582356175456     -0.56798960520831     -0.29931831258023
  H   -2.22822151064466      0.56100941235233      0.89062145169252
  N   -0.24478341575882      0.80994222169278     -1.14726277178860
  H   0.65586591460568      1.23433109237048     -1.34288765794965
  H   -0.95486006525799      1.52212834134795     -1.27272159304783
