13
Coordinates from ORCA-job run
  C   0.68244190507118     -0.80749284902839      0.41572482228086
  C   -0.33962254888293      0.08083388576692     -0.31258387936776
  Br  0.93570153053709     -0.26738439379317      2.27219814355098
  H   -0.31136255261091     -0.26104942498875     -1.36010760512662
  H   0.32336917113193     -1.83908503326920      0.46141838372907
  C   1.96403458067653     -0.78173576277757     -0.27518578460326
  N   2.98100111622685     -0.79443697360963     -0.86207801188261
  N   0.11452234532903      1.44520269756876     -0.30776929517199
  H   -0.08735284769275      1.86689584173258      0.59125680134029
  H   -0.33645583342580      1.98382205234784     -1.03562592675526
  N   -1.64188172127209     -0.08803388088305      0.31912977086287
  H   -2.31559030955930      0.50833177560375     -0.14648371695530
  H   -1.96980483552882     -1.04486793467009      0.23910629809874
