13
Coordinates from ORCA-job run
  C   0.67109356872329     -0.84554310976476      0.35700605355687
  C   -0.34181383794277      0.10544381262193     -0.30181205777599
  Br  0.96042500925207     -0.42213007118189      2.23876078301322
  H   -0.33644520108459     -0.17446991746471     -1.36800513636137
  H   0.29063195342787     -1.87051800591769      0.34671024531908
  C   1.94345309476190     -0.80368983841955     -0.34938697437200
  N   2.94853668049182     -0.79356797903174     -0.95640537007993
  N   0.14123115482287      1.45757079655444     -0.22431002794810
  H   -0.30505778346767      2.04582865918645     -0.91499714808107
  H   -0.04187616766896      1.83121063103304      0.69954204164742
  N   -1.63801048247611     -0.07291877243457      0.33973236148715
  H   -2.30676808698537      0.55974339497492     -0.08327547787666
  H   -1.98539990185436     -1.01795960015588      0.21444070747137
