13
Coordinates from ORCA-job run
  C   0.64047043616202     -0.80960894507846      0.29322397852751
  C   -0.40257351530391      0.33320425329171      0.27728596904842
  Br  0.65963495543371     -1.77274657524728      1.98592265201843
  H   -0.21032194890732      0.95889131907208      1.15411517510798
  H   0.38556045747255     -1.54756099315727     -0.47444831764170
  C   1.97603439141822     -0.29011118339278      0.03007631708558
  N   3.03098240885834      0.17580102432753     -0.19385131504171
  N   -1.71304927210891     -0.25251577564185      0.41962135380750
  H   -2.39290637850263      0.49731066652842      0.46383742935753
  H   -1.93523364395056     -0.81052521668363     -0.39868694924802
  N   -0.28227472533380      1.18536686949430     -0.89642860307581
  H   -0.35503687922369      0.64319161716136     -1.75075737047714
  H   0.59771371398599      1.68830293932586     -0.90991031946857
