15

C	-0.296431	0.090965	-1.490663
C	0.0	0.0	0.0
F	-1.625027	0.469462	-1.748447
H	1.096034	0.0	0.0
N	0.581128	1.070521	-2.031294
H	0.635717	1.001695	-3.039423
H	1.513871	0.934165	-1.618449
C	-0.173516	-1.251328	-2.121282
N	-0.06147	-2.248622	-2.731755
N	-0.464184	-1.230011	0.613384
H	0.248903	-1.540607	1.263498
H	-1.333284	-1.095739	1.112267
C	-0.461152	1.211431	0.670546
N	-0.841313	2.133175	1.294291
H	2.682307	0.0	0.0
