15

C	-0.374104	0.075619	-1.474974
C	0.0	0.0	0.0
F	-1.75124	0.264866	-1.612664
H	1.094545	0.0	0.0
N	0.291111	1.136484	-2.178385
H	0.083379	2.003041	-1.688436
H	1.295071	0.973573	-2.060434
C	-0.055643	-1.212607	-2.132032
N	0.202601	-2.214525	-2.684941
N	-0.442844	-1.226519	0.641913
H	0.334894	-1.581364	1.187266
H	-1.238153	-1.081692	1.246256
C	-0.446054	1.219457	0.665383
N	-0.807276	2.191307	1.2216
H	2.676985	0.0	0.0
