15

C	-0.344466	-0.0521	-1.492806
C	0.0	0.0	0.0
F	-0.154428	1.212462	-2.023878
H	1.095313	0.0	0.0
N	0.50207	-0.967504	-2.199369
H	1.455595	-0.762919	-1.874421
H	0.285437	-1.896516	-1.852648
C	-1.770605	-0.411309	-1.700229
N	-2.900123	-0.708441	-1.8223
N	-0.35496	-1.282521	0.602854
H	-1.207464	-1.22517	1.142997
H	0.409107	-1.554365	1.212315
C	-0.553714	1.160168	0.68206
N	-1.024833	2.06458	1.26916
H	2.700396	0.0	0.0
