14
Coordinates from ORCA-job run
  C   0.71595427759777      0.16264602545746      0.70342200629576
  C   -0.34533258622299     -0.41324643158807     -0.21641897236031
  Br  1.62825896928479     -1.21764895701768      1.68529851405422
  H   0.03740580212374     -1.28761397282625     -0.75102864765830
  H   0.29177230566254      0.87533014620249      1.40483817043563
  N   1.73434038277446      0.90130681407181     -0.11713988984699
  O   2.23679387925745      1.89153802555560      0.39814739493498
  O   1.99483379079004      0.44191541504049     -1.22777088764225
  N   -0.89947478845726      0.63986123002721     -1.03885833873499
  H   -0.25684686466158      0.82933596216448     -1.79894438666942
  H   -1.76760225425311      0.31472117753606     -1.45077872933731
  N   -1.49369267005080     -0.92697909032833      0.61754424508313
  O   -1.62081824513161     -0.52389945047825      1.76796935813439
  O   -2.25459199871345     -1.68726689381701      0.02472016331148
