14
Coordinates from ORCA-job run
  C   0.98527881004544     -0.39727853284513      0.36693425883292
  C   -0.39745087792447     -0.58369821499260     -0.24939056506063
  Br  2.28514299228650     -1.47712991984507     -0.53573847444025
  H   -0.56965525584860     -1.66000490492834     -0.32169855800875
  H   0.98080018032237     -0.68475641311409      1.41766705426926
  N   1.37635188038665      1.06796690174977      0.35166088742405
  O   0.42577545613962      1.84183360053423      0.46219151088576
  O   2.55612656743803      1.37053674166337      0.31132302587463
  N   -0.54137625327312      0.02458902553023     -1.51051633613869
  H   -1.33607437976974     -0.34300353856874     -2.01260801914494
  H   -0.63808737445610      1.02761103019752     -1.42720419857455
  N   -1.45176582398103     -0.14632340735202      0.80158309266924
  O   -1.28093532888292     -0.56095260521852      1.94350253295732
  O   -2.39513059248263      0.52061023718941      0.40329378845465
