14
Coordinates from ORCA-job run
  C   0.63851521771009      0.27774175897852      0.64774628789604
  C   -0.39934045629748     -0.49837717284416     -0.15995346719820
  Br  1.34048355323096     -0.73390825938456      2.12246312398984
  H   -0.00524234809331     -1.47186515775319     -0.44523209284131
  H   0.23329965653307      1.21353360384177      1.02806011206969
  N   1.75114584739395      0.63748217298302     -0.29450433100630
  O   2.05105305300109      1.82609475292884     -0.35590350673746
  O   2.24087215433119     -0.27647752141023     -0.94942387077354
  N   -0.90032293595578      0.19512982665214     -1.30065703393997
  H   -0.31884815045511      0.06485878440787     -2.11482766027434
  H   -1.07919744952787      1.17473430423423     -1.12604374250431
  N   -1.56208476101630     -0.75196992173251      0.76352232965195
  O   -2.10425840257645      0.25677333724949      1.20991405465384
  O   -1.88707497827806     -1.91375050815124      0.97383979701403
