14
Coordinates from ORCA-job run
  C   0.73042303201795      0.11694329613246      0.69683720285866
  C   -0.37272587719609     -0.39061210774009     -0.21389654414793
  Br  1.56340217602614     -1.31863783318014      1.67007356322366
  H   -0.04970246301068     -1.28603106104797     -0.75305667004360
  H   0.35767416905726      0.85398638258719      1.40231386933070
  N   1.78623812047955      0.79138583185610     -0.13188073757637
  O   2.35666960628793      1.74512066447010      0.38138685546807
  O   2.00550220056419      0.32044862884362     -1.24657967039197
  N   -0.86818407277838      0.69616530182657     -1.03001908141063
  H   -1.75764153552112      0.42521716000499     -1.43561950589928
  H   -0.22113255676059      0.84782640758655     -1.79482586820613
  N   -1.54302929905288     -0.83348164358887      0.62996431124870
  O   -2.35427003593611     -1.54540741801030      0.04387462378928
  O   -1.63522346417718     -0.42392360974021      1.78142765175683
