14
Coordinates from ORCA-job run
  C   0.91641818011480      0.20231983309267     -0.17940177890141
  C   -0.45725355125545     -0.49411374894825     -0.14226948459716
  Br  0.87404368349264      1.87336272870674     -1.11194058128995
  H   -0.36200287568669     -1.34200699286177      0.53859144153287
  H   1.61532245798894     -0.45390000987491     -0.69762999269636
  N   1.48507260160453      0.32758162945996      1.22654891234861
  O   1.68594665952922      1.42464229673016      1.71616860377720
  O   1.69150353443810     -0.76663808627013      1.74298747276446
  N   -0.99105042453742     -0.91860179343303     -1.38460318376869
  H   -0.98815145714805     -0.18892950300826     -2.08383402640353
  H   -0.53546359140463     -1.75336097394830     -1.72400978205913
  N   -1.42564509389145      0.45760950426624      0.53055016916288
  O   -1.21478495666698      0.65191347377598      1.72539332083247
  O   -2.29295516657757      0.97912164231288     -0.15555109070227
