14
Coordinates from ORCA-job run
  C   0.77762560846058     -0.13558693761112      0.53092768229226
  C   -0.47306841680203     -0.32139165661903     -0.32522474439561
  Br  1.63769974546367     -1.79948561779676      0.95815444369493
  H   -0.24757245273096     -0.93449411153250     -1.19561915987487
  H   0.55444732175589      0.38986038655326      1.45754390227560
  N   1.72000381753558      0.73630788618824     -0.24791563314341
  O   1.97236012300940      0.39213011605762     -1.39766411826168
  O   2.12958006040489      1.74275118754238      0.32291684503386
  N   -1.10829634649892      0.89374961671978     -0.71650386847123
  H   -1.14317833116768      1.58254344460945      0.02270273137598
  H   -0.71349934625013      1.27777160117488     -1.56183491753776
  N   -1.45656473680791     -1.09775188518379      0.51127943471963
  O   -1.78880121760940     -0.55721590283897      1.56397334825148
  O   -1.86073582876296     -2.16918812726342      0.07726405404078
