14
Coordinates from ORCA-job run
  C   1.00401793650232      0.17349531579280     -0.11347825135140
  C   -0.35485042232590     -0.51381656515648     -0.17424872007698
  Br  1.02869036635651      1.80788293220461     -1.11311212400014
  H   -0.34968091362849     -1.32183636747471      0.56027817268527
  H   1.73606473028229     -0.50218127040501     -0.55417189632534
  N   1.45906176886549      0.35979669519212      1.32749148519444
  O   1.49010030178919     -0.69601784040231      1.95076654115353
  O   1.78200844523537      1.46204127311583      1.73103480366349
  N   -0.61288992758110     -1.01135627368128     -1.47015972578959
  H   -0.75144674300626     -0.25868549210104     -2.13267930266718
  H   -1.43304899672895     -1.60200476253921     -1.47649393888198
  N   -1.41455084923095      0.46985575622345      0.35462606483531
  O   -1.20123302911228      0.93064149354577      1.47102022383366
  O   -2.38224266741722      0.70118510568544     -0.35987333227316
