14
Coordinates from ORCA-job run
  C   1.01796353734004      0.09180493370800     -0.07546227804797
  C   -0.38275993635094     -0.50532525820075     -0.13818794646878
  Br  1.21012209048037      1.60157139496926     -1.23939041690559
  H   -0.47147360420334     -1.22539192952722      0.67795714229747
  H   1.71952064026288     -0.67583426199788     -0.39978916275099
  N   1.41459043522486      0.40444004294297      1.36105147421550
  O   1.79391473685536      1.52099648713180      1.66355222533154
  O   1.34120744885849     -0.57696314372553      2.09298237287597
  N   -0.61373256922267     -1.12443019637947     -1.38576173439701
  H   -0.65610675108431     -0.44264813203576     -2.13279898027603
  H   -1.47791230496738     -1.64857313585405     -1.37779498853371
  N   -1.39180162991717      0.59999598235214      0.22305885986412
  O   -2.30232493043751      0.81883364707063     -0.56653337434936
  O   -1.20120716283866      1.16252356954587      1.29611680714485
