14
Coordinates from ORCA-job run
  C   0.91164425045077     -0.40673666136804      0.35559151684377
  C   -0.50756096169170     -0.61352489520209     -0.21265307698253
  Br  2.21525945616363     -1.25389892765057     -0.76771051824756
  H   -0.72789092331620     -1.67902124906305     -0.13671731852061
  H   0.99597070428665     -0.81617616500331      1.36009123548974
  N   1.19495901569449      1.06554854527595      0.48153949944464
  O   1.30308701637610      1.71552843393062     -0.55285840978839
  O   1.23847043198624      1.49944972408457      1.62944425981164
  N   -0.82456146884119     -0.13218661060468     -1.50218409796229
  H   -0.43073292582512      0.78017898935495     -1.68686600674065
  H   -0.54774181734509     -0.78751255710022     -2.21789346001125
  N   -1.40860862667783      0.04778211135070      0.82333618329839
  O   -1.60352571303757     -0.59716884236794      1.84993642046002
  O   -1.80976843822310      1.17773810436314      0.57594377290507
