14
Coordinates from ORCA-job run
  C   0.80747700505504     -0.09105894400755      0.57181197506468
  C   -0.39431872048534     -0.26221254964398     -0.34367672819633
  Br  1.50075406582492     -1.76656955541328      1.20097492612262
  H   -0.14510250795210     -0.91240935411707     -1.18089723295656
  H   0.57365183249725      0.53240696854335      1.43267194524750
  N   1.86116168338820      0.63402956189175     -0.21979269989131
  O   2.25963057129259      1.68995307462038      0.25871587614802
  O   2.21213009284448      0.12149247832761     -1.27378124210973
  N   -0.81533999809513      1.01784916242328     -0.78793884887035
  H   -1.45816383099982      0.96293285712253     -1.56597985168476
  H   -1.21959580542480      1.56139438465438     -0.03536526925032
  N   -1.46135584111937     -0.99763384124887      0.45547794657298
  O   -1.87666059308197     -0.40686548172546      1.45131692593673
  O   -1.84526795374394     -2.08430876142708      0.03646227786681
