14
Coordinates from ORCA-job run
  C   0.95470357265418     -0.01130151315403     -0.03602282499542
  C   -0.52616475341414     -0.43084108838342     -0.10414767892570
  Br  1.41034940780222      1.31005809682030     -1.34384362424070
  H   -0.71703769395389     -1.05406469615405      0.77148766108605
  H   1.56563186543069     -0.89408633565927     -0.22333378001476
  N   1.32138402263545      0.41094536907556      1.37917942777799
  O   1.20793963245668     -0.50992705368631      2.18278704293478
  O   1.67937183754143      1.55210999653889      1.61005228861896
  N   -0.94656301315107     -1.09583675774783     -1.28237408539748
  H   -0.64301434856712     -2.05853318857341     -1.30108440211502
  H   -0.67978445949241     -0.60920607041448     -2.12685420780357
  N   -1.35726405127343      0.81978064223582      0.10099743201073
  O   -1.98135268721929      1.26094753533527     -0.85338122402326
  O   -1.28919933144930      1.30795506376697      1.22653797508740
