14
Coordinates from ORCA-job run
  C   0.91379858981965     -0.39935901856701      0.35893414491110
  C   -0.50055029731250     -0.61765486931296     -0.21733273042054
  Br  2.23127683677072     -1.23005189835389     -0.76023076180156
  H   -0.71146348543945     -1.68535811986636     -0.14561876209231
  H   0.99662808534218     -0.81147495212331      1.36245934466755
  N   1.18190639817763      1.07518079275701      0.49127322104765
  O   1.21461124416179      1.50605578726853      1.64063044173371
  O   1.28918456680645      1.72934437584285     -0.54064469646701
  N   -0.81538693478564     -0.13541534924447     -1.50697131961310
  H   -0.42935003920029      0.78125979669320     -1.68674162202097
  H   -0.52861081114944     -0.78584276840315     -2.22322376906255
  N   -1.41295635735152      0.03206771159466      0.81621814670598
  O   -1.82521346227292      1.15813066365411      0.56939631960091
  O   -1.60487433356670     -0.61688215193925      1.84085204281110
