14
Coordinates from ORCA-job run
  C   1.01038417604991     -0.31574844830115      0.36527811223794
  C   -0.34469080886857     -0.61597092742886     -0.26592443484134
  Br  2.41414959611704     -1.21769953990782     -0.57858839244140
  H   -0.42765230022151     -1.70413738699628     -0.32262443185582
  H   1.03479538330911     -0.65125860584432      1.40116272418020
  N   1.26834925160396      1.17724225546883      0.42272809134724
  O   0.26027083137171      1.88206507175691      0.38765373617795
  O   2.41507758474069      1.56188108835848      0.57671495293577
  N   -0.52942314277603     -0.04147449692929     -1.53641373838403
  H   -0.69927368232489      0.95260539596126     -1.47025209673590
  H   -1.28850966272122     -0.47922695009551     -2.03690056063322
  N   -1.43909145917612     -0.24958847227706      0.77336607140281
  O   -2.43687659098633      0.31998620390286      0.35736142557911
  O   -1.23650917611777     -0.61767518766806      1.92643854103070
