14
Coordinates from ORCA-job run
  C   0.94956405239034     -0.00288196004439     -0.10363993866525
  C   -0.53287576150136     -0.42202648208844     -0.10604089553286
  Br  1.31318107606890      1.43627337320397     -1.31222872651008
  H   -0.66270675301469     -1.12374242476291      0.71997647411931
  H   1.54485072495488     -0.86124657304967     -0.41424231414567
  N   1.41589727243588      0.28867358563534      1.31533097961741
  O   1.35673694821850     -0.70296979134312      2.03636263088880
  O   1.79250907257356      1.40487637781044      1.62490329948967
  N   -1.03608570024978     -0.97874082334575     -1.30792774918460
  H   -0.73332858694007     -1.93331550133987     -1.43647793274433
  H   -0.82909047836830     -0.41489486178082     -2.12062105427158
  N   -1.34583683961527      0.80034656827878      0.27049845038417
  O   -2.03636326222596      1.32267472684027     -0.59277783466039
  O   -1.19645176472662      1.18497378598615      1.42788461121543
