14
Coordinates from ORCA-job run
  C   0.90850859763354     -0.39005151819858      0.38267328059165
  C   -0.49510823080587     -0.62534671786520     -0.21415017996860
  Br  2.24803357025664     -1.23770640356099     -0.69720485934631
  H   -0.70189882648318     -1.69269742172966     -0.12637127329451
  H   0.97502224904805     -0.78294002646663      1.39512643759825
  N   1.16891231278733      1.08740317660352      0.49108633251199
  O   1.17698022251588      1.54044326481801      1.63243169283572
  O   1.29647756832454      1.72138087261724     -0.55092199256948
  N   -0.79073429457677     -0.16951103009756     -1.51890539844943
  H   -0.42424110287927      0.75521741823384     -1.69947728427972
  H   -0.46015914377705     -0.81968300859698     -2.21674398305385
  N   -1.42843296647083      0.04018971916140      0.78798078841060
  O   -1.63764687775106     -0.58836056343389      1.82179387257511
  O   -1.83571307782199      1.16166223851559      0.51268256643865
