14
Coordinates from ORCA-job run
  C   0.99426306854553     -0.37689998131018      0.39389296914630
  C   -0.39626550521386     -0.55785601283689     -0.21345142229836
  Br  2.27907303130782     -1.38992061403933     -0.60755048094223
  H   -0.57530644926088     -1.63446841181126     -0.32598535029392
  H   1.02567325483185     -0.70317006637838      1.43172913638911
  N   1.30266123473953      1.10496775197612      0.39247734995545
  O   2.24942768157497      1.54336302349341     -0.23458702552208
  O   0.49996504931879      1.74267013007611      1.06682499276230
  N   -0.53576869563559      0.23319428173259     -1.39797617822439
  H   -0.26322681404149     -0.29532722787745     -2.21513488212442
  H   -1.49139458394961      0.55164668268505     -1.49404808424615
  N   -1.43765420323004     -0.14898370483853      0.81860474147339
  O   -1.30697361788327     -0.65897079336459      1.92349942367934
  O   -2.34547345110372      0.58975494249332      0.46170481024562
