14
Coordinates from ORCA-job run
  C   0.90972731420508     -0.41580906228159      0.35117646549117
  C   -0.51042736537000     -0.60858949565469     -0.21958728232968
  Br  2.20867030039006     -1.25721574558984     -0.78170220322592
  H   -0.73683722881418     -1.67361341166270     -0.15574466294465
  H   0.99166172607218     -0.83671815748939      1.35108900851809
  N   1.20038934347690      1.05342259400940      0.49354742024132
  O   1.24669843082857      1.47422546816437      1.64621668903759
  O   1.31062604360356      1.71464962675157     -0.53352406349256
  N   -0.82461036458341     -0.11111328693438     -1.50355182606196
  H   -0.55047184588024     -0.75945953280166     -2.22665388522680
  H   -0.42684083387531      0.80163779002633     -1.67784912891224
  N   -1.40810929595299      0.04590551881156      0.82389091784135
  O   -1.60159653767877     -0.60789786591924      1.84516701334367
  O   -1.80787968642150      1.17857556057027      0.58752553772063
