10
Coordinates from ORCA-job run
  C   -0.30174598405284     -0.00717610070194      0.09972703581828
  C   0.92711311787032     -0.35826972572834     -0.32612384280539
  H   1.16485402071095     -1.41313649673179     -0.42707890867445
  C   -0.76238363954765      1.32596147817415      0.28262130933010
  N   -1.10793559627397      2.44302655849322      0.42095610426833
  N   -1.28322420364343     -1.07863684866844      0.42138231704386
  O   -0.92402775248760     -2.23441866296570      0.24871049790067
  O   -2.37164857250554     -0.69623375312206      0.83720158009367
  C   1.91394095684540      0.61419292854262     -0.64410853753970
  N   2.74405765308436      1.40569062270829     -0.91228755543536
