10
Coordinates from ORCA-job run
  C   -0.30380155522036     -0.00489310836722      0.09336541063034
  C   0.90673050907100     -0.35368357489912     -0.38381217953812
  H   1.07044767209568     -1.38077163117353     -0.69689066855118
  C   -0.67227603949880      1.29459710602855      0.53946738293922
  N   -0.94008949581510      2.38351137886015      0.89849130571826
  N   -1.36688592839410     -1.04273521168285      0.18206773998622
  O   -2.42961123076791     -0.67538319171293      0.67169880231733
  O   -1.09210457179751     -2.15946171107257     -0.23265805180459
  C   1.96751755592366      0.58632853346531     -0.48948356920930
  N   2.85807308440343      1.35149141055421     -0.58324617248817
