10
Coordinates from ORCA-job run
  C   -0.38518788734637      0.27518660889660     -0.00346734672654
  C   0.86525660505097      0.45168693118452     -0.47748710570707
  H   1.10671890039712      1.41967683681567     -0.90962151237867
  C   -1.37248269321919      1.30133643096385     -0.04492453694800
  N   -2.16685190604701      2.16749757788328     -0.10922902949450
  N   -0.82249675318171     -0.98406736412501      0.64433968431305
  O   -0.25188667899919     -2.01182590889645      0.30474918282645
  O   -1.71845319314038     -0.86557976391130      1.47372798544079
  C   1.90815210793874     -0.51538070925700     -0.43993765399678
  N   2.83723149854703     -1.23853063955415     -0.43814966732874
