10
Coordinates from ORCA-job run
  C   -0.34805551370351      0.30190685607758      0.10791464099149
  C   0.94109358957345      0.48558628010630     -0.24377565055018
  H   1.32272177567925      1.50352965068372     -0.24015765749982
  C   -1.20222118990322      1.37915502765373      0.48136168345014
  N   -1.88519341828541      2.29361197618416      0.76862753300961
  N   -0.97175920274256     -1.04057710419445      0.18074673041105
  O   -0.50811827017075     -1.90984948175968     -0.54473441811889
  O   -1.89566515306568     -1.14861239858311      0.98035465348912
  C   1.85620336485257     -0.54408242310713     -0.59967836969526
  N   2.69299401776586     -1.31966838306112     -0.89065914548726
