10
Coordinates from ORCA-job run
  C   -0.35039990477659      0.30833454652319      0.07909328513341
  C   0.98365193892523      0.45856606980374     -0.05159714457586
  H   1.37910341148687      1.47111216437249     -0.03685595366378
  C   -1.23616457660872      1.41428725914481      0.22652650956521
  N   -1.93809094696951      2.34908125968047      0.36319242366010
  N   -1.01222978636572     -1.01699237036230      0.03340591237584
  O   -2.16997646038476     -1.01301543240601     -0.37182903203109
  O   -0.34981074174482     -1.98254762054279      0.38818708315248
  C   1.92120613544548     -0.59660708839691     -0.23035465166712
  N   2.77271093099252     -1.39221878781670     -0.39876843194918
