10
Coordinates from ORCA-job run
  C   -0.30989841017669     -0.02858123199377      0.06444054088439
  C   0.94936670293041     -0.26002930389013     -0.35432696523967
  H   1.18531025069948     -1.22183660634811     -0.80008295457966
  C   -0.77214119278755      1.17510885187811      0.66502864986455
  N   -1.11913839262825      2.18768958264906      1.15553940068838
  N   -1.32788087947768     -1.10253493639741     -0.09344846720313
  O   -0.97563855278069     -2.12562923816507     -0.66239512110652
  O   -2.43620176946876     -0.85755180389697      0.37088349801031
  C   1.97192226687450      0.71874208969210     -0.22391216681454
  N   2.83329997681522      1.51562259647218     -0.12172641450411
