10
Coordinates from ORCA-job run
  C   -0.38187770978295      0.27931733868706     -0.02332515011985
  C   0.89182615878398      0.44222129481950     -0.43603564845134
  H   1.16333602029924      1.40494349435416     -0.86197072120896
  C   -1.35913834737873      1.31100740335637     -0.12243963310749
  N   -2.14757559657612      2.17764477095688     -0.23421914887653
  N   -0.86100070011312     -0.97236321323851      0.60977811358024
  O   -0.28439535619164     -2.00723266782872      0.30391344089564
  O   -1.79289537832412     -0.84038937009741      1.39638100912521
  C   1.92289126805800     -0.53360031864819     -0.34092680309264
  N   2.84782964122545     -1.26054873236114     -0.29015545874428
