10
Coordinates from ORCA-job run
  C   -0.30474403863880     -0.00697360497832      0.08956430413705
  C   0.97238299980147     -0.34164143500465     -0.17764260708897
  H   1.30028564309756     -1.35760828473604      0.02261587301576
  C   -0.88334123862638      1.27610540036531     -0.11573233722669
  N   -1.32854479842328      2.35052446725429     -0.29928110850493
  N   -1.21618417882553     -1.04237680830611      0.64914699940126
  O   -2.36468192122493     -0.67582104812548      0.87355957892988
  O   -0.74772842919306     -2.15652306943578      0.83359165987938
  C   1.89507028517368      0.59654163414244     -0.71484440500456
  N   2.67548567685927      1.35777274882436     -1.16097795753818
