10
Coordinates from ORCA-job run
  C   -0.30963934990751     -0.02653137759424      0.07001885609704
  C   0.96714192802871     -0.29405274365133     -0.26635568305451
  H   1.24465459409811     -1.31873201925599     -0.49560887112552
  C   -0.82514448985407      1.25807712902409      0.39769386601442
  N   -1.21282864337796      2.33576170502577      0.67075609397218
  N   -1.29286981362203     -1.14330316226479      0.10042612613971
  O   -0.86376061920787     -2.26977458041980     -0.10375109706627
  O   -2.45482302362757     -0.82315956113860      0.32576402609270
  C   1.95543945138221      0.72590198526314     -0.32349056646402
  N   2.79082996608796      1.55481262501177     -0.37345275060572
