10
Coordinates from ORCA-job run
  C   -0.31612197646786     -0.03100728188460      0.01202569797559
  C   1.00896558925182     -0.25021252905530      0.11527178441843
  H   1.35337299833359     -1.19627910458465      0.52232654034319
  C   -0.92033509681465      1.15176416601597     -0.49693502307799
  N   -1.38394818995474      2.14678839508559     -0.92281039417306
  N   -1.25647065630078     -1.09659102635326      0.45426216883212
  O   -2.44747404570133     -0.85992596085416      0.28390028894512
  O   -0.76671309231895     -2.10498705903926      0.94227876856233
  C   1.96178224500128      0.72318592886443     -0.29087180336142
  N   2.76694222497161      1.51726447180523     -0.62044802846431
