10
Coordinates from ORCA-job run
  C   -0.30880950233434     -0.03244249805892      0.06776548302074
  C   0.97116487596157     -0.27464282214118     -0.27527046157277
  H   1.26678476738080     -1.29270022425485     -0.51134980110583
  C   -0.84701550026323      1.24088051522934      0.40278317040185
  N   -1.25673352232788      2.31080761536899      0.67435581468122
  N   -1.26837280762153     -1.16935791163219      0.11028246862747
  O   -0.83390663765167     -2.27653772653858     -0.17260138429834
  O   -2.41762851712971     -0.88437590782777      0.42926862750956
  C   1.93869675308104      0.76493399392050     -0.33535954212612
  N   2.75482009090495      1.61243496593467     -0.39087437513779
