10
Coordinates from ORCA-job run
  C   -0.33593185327513      0.27633830443949      0.16834255273449
  C   0.92825376932853      0.48609656410013     -0.25419774284651
  H   1.29353777083168      1.51001218318453     -0.22830510198056
  C   -1.16216871265811      1.34199493173399      0.63133493878708
  N   -1.80840882851216      2.25091220732945      1.00722329749922
  N   -0.97894740270199     -1.06149233371652      0.18462761005740
  O   -0.27836203253362     -2.02038369220527     -0.10652946316491
  O   -2.16745730540671     -1.07440293361660      0.48936197043667
  C   1.83579412670648     -0.49762864851524     -0.73715705881077
  N   2.67469046822104     -1.21044658273396     -1.15470100271212
