10
Coordinates from ORCA-job run
  C   -0.35469848359585      0.31329368166641      0.01115164282556
  C   0.98656717993526      0.45430397608374      0.03000062877409
  H   1.38570974023664      1.46529814421206      0.00997056576191
  C   -1.24236703700015      1.42637071025638     -0.03957915907753
  N   -1.94793726323929      2.36802952640634     -0.06455573914651
  N   -1.01723029771987     -1.01219760092489     -0.00617377084307
  O   -0.41090595716649     -1.94432376883138      0.50430860395308
  O   -2.11717511171784     -1.04337370015168     -0.54815444970994
  C   1.93002804250044     -0.61052129821940      0.05148582516396
  N   2.78900918776715     -1.41587967049759      0.05154585229845
