10
Coordinates from ORCA-job run
  C   -0.30789594124463     -0.02812594316588      0.07419688445570
  C   0.98342691217799     -0.29195953962433     -0.20433486045665
  H   1.31917383568164     -1.32483461227289     -0.20263279538578
  C   -0.89668597608846      1.26625060169423      0.11120870394371
  N   -1.34593316843658      2.35445501351337      0.13336184370639
  N   -1.22445763848457     -1.16204999938676      0.37264540385322
  O   -2.38660490977601     -0.85679131830655      0.61746055861603
  O   -0.74629320992120     -2.28696586967245      0.34830615261385
  C   1.91114410706320      0.74357916743008     -0.49995064176788
  N   2.69412598902861      1.58744249979118     -0.74926124957858
