10
Coordinates from ORCA-job run
  C   -0.37837165274920      0.27050589125593     -0.08783686827091
  C   0.94384610979718      0.46498599029669     -0.27014706568146
  H   1.25345889652793      1.38487256472721     -0.75986014218316
  C   -1.35805195865576      1.21216150399341     -0.51570359111070
  N   -2.13968752420222      2.01862223396757     -0.86752313304941
  N   -0.92622065311573     -0.96013209128646      0.53027757487125
  O   -2.05648157639324     -1.27160201953557      0.16977406745854
  O   -0.20773972710195     -1.55065108919762      1.32529504754563
  C   1.97338670845721     -0.44149817271760      0.10749797375714
  N   2.89586137743578     -1.12526481150356      0.36822613666309
