10
Coordinates from ORCA-job run
  C   -0.31528878378445     -0.03807906967559      0.01609072008286
  C   1.01238952070937     -0.14342791924238      0.21758489958387
  H   1.37593226281783     -0.86358081677820      0.94481859725697
  C   -0.94488445913406      0.85397836222713     -0.89543264651835
  N   -1.43196326096026      1.60887999117957     -1.65659651763866
  N   -1.23079147515140     -0.91867021073937      0.79240482444434
  O   -0.72131511530653     -1.66361025200679      1.61708346208641
  O   -2.42298922971823     -0.81399449468236      0.52582340709143
  C   1.94418950435574      0.66113348085655     -0.49286640720625
  N   2.73372103617197      1.31837092886143     -1.06891033918262
