10
Coordinates from ORCA-job run
  C   -0.35135089516721      0.29527645671945      0.11591523247894
  C   0.95894273875996      0.49326619964103     -0.13554688166796
  H   1.34986759134178      1.49883547648056     -0.00165855603826
  C   -1.21627710747574      1.34102452870591      0.54914712510555
  N   -1.90647559465162      2.23009815472117      0.89303360090630
  N   -0.99131947513173     -1.03727167740041      0.00970620700741
  O   -0.49524803571394     -1.83182555388245     -0.77748963540216
  O   -1.96112413523293     -1.21474305644643      0.73948123435723
  C   1.88435456668570     -0.50966782669982     -0.53831924625501
  N   2.73063034658574     -1.26499270183901     -0.85426908049204
