10
Coordinates from ORCA-job run
  C   -0.30939157984238     -0.00552743927146      0.08500622452200
  C   0.97349683230050     -0.33987858585470     -0.15350172566458
  H   1.30505353829433     -1.34630897374184      0.08594532697700
  C   -0.89064685262767      1.26737127841081     -0.16924255840471
  N   -1.32672417386290      2.33617214206399     -0.40036813031419
  N   -1.22194815303526     -1.03128954738484      0.66173324132937
  O   -0.74993743614825     -2.13696984004001      0.88279688294587
  O   -2.37321590091096     -0.66237586504573      0.86715110062986
  C   1.90073227370311      0.58689001543238     -0.70280200558829
  N   2.69258145212946      1.33191681543140     -1.15671835643235
