17

C	0.0	0.0	0.0
C	-0.39015	0.037412	-1.520663
Cl	1.807366	0.0	0.0
H	0.202825	-0.769071	-1.979148
C	-0.600366	1.115101	0.824608
H	-1.691396	0.995957	0.798617
H	-0.257876	1.050931	1.860043
H	-0.326781	2.075217	0.390454
C	-0.367887	-1.312032	0.535875
N	-0.599973	-2.382451	0.959927
N	-0.059235	1.35787	-2.038029
H	-0.520484	1.43022	-2.937727
H	0.939234	1.444172	-2.175533
N	-1.766248	-0.205021	-1.824353
H	-2.398304	0.441696	-1.357788
H	-2.076005	-1.119341	-1.519783
Br	-4.493653	0.0	0.0
