17

C	0.0	0.0	0.0
C	-0.495599	0.210854	-1.44692
Cl	1.794336	0.0	0.0
H	-1.571413	0.394412	-1.335148
C	-0.460557	1.134144	0.904345
H	-0.073026	2.066085	0.492576
H	-0.071899	0.987944	1.913861
H	-1.552558	1.143489	0.918236
C	-0.403303	-1.305999	0.52249
N	-0.678536	-2.37	0.937539
N	-0.189499	-0.971831	-2.254786
H	-0.578402	-0.809251	-3.178359
H	-0.690812	-1.770989	-1.8759
N	0.126372	1.39765	-1.991229
H	1.022606	1.141533	-2.389586
H	-0.459819	1.795742	-2.71172
Br	-3.900742	0.0	0.0
