17

C	0.0	0.0	0.0
C	-0.424796	-0.312277	-1.488337
Cl	1.792364	0.0	0.0
H	0.345959	0.188616	-2.085956
C	-0.516315	1.350721	0.467208
H	-0.208262	2.124758	-0.240632
H	-0.113789	1.593609	1.451615
H	-1.607706	1.309795	0.518449
C	-0.422802	-1.053655	0.921861
N	-0.704681	-1.947381	1.630796
N	-1.69172	0.18986	-1.936169
H	-1.701259	1.201084	-1.969665
H	-2.484242	-0.094977	-1.353222
N	-0.280985	-1.743489	-1.695455
H	-0.497989	-1.907298	-2.673058
H	-1.018216	-2.209464	-1.171944
Br	-4.403901	0.0	0.0
