17

C	0.0	0.0	0.0
C	-0.543699	0.06283	-1.458359
Cl	1.792193	0.0	0.0
H	-1.628373	0.176894	-1.329381
C	-0.508953	1.170697	0.824912
H	-0.159529	1.090539	1.855495
H	-1.603295	1.155791	0.80239
H	-0.130948	2.103816	0.401641
C	-0.39041	-1.269998	0.615272
N	-0.665846	-2.306806	1.09543
N	-0.167641	-1.150951	-2.168032
H	-0.43081	-0.996216	-3.134607
H	-0.735435	-1.917257	-1.821281
N	-0.062185	1.186514	-2.229835
H	-0.501547	2.041192	-1.915961
H	0.944089	1.268968	-2.137989
Br	-3.94651	0.0	0.0
