15
Coordinates from ORCA-job run
  C   0.63898656110279     -0.05176486918209     -0.49282262804684
  C   -0.88570134091341     -0.11715181563970     -0.35836719859987
  F   0.93472522741815     -0.38072759192054     -1.78472821174163
  H   -1.22580880055309     -1.06213597490171     -0.78231392592066
  N   1.20944438550478      1.17085863542056     -0.18001376425900
  H   2.21591028623162      1.14138059074665     -0.28580694319231
  H   0.95444843300655      1.47221945621077      0.75071481272322
  N   1.22198796488040     -1.26311504764593      0.30472905529596
  O   0.49975440954589     -2.24680247450050      0.43088666632721
  O   2.37778428494918     -1.14183506148825      0.68741719322255
  C   -1.52466888958036      1.00893157023024     -1.02489262668461
  N   -2.06401738573894      1.90227153659085     -1.56332958309477
  N   -1.33609968806048     -0.14377003782535      1.08714641855614
  O   -2.42547123361736     -0.65454002444869      1.29276183863934
  O   -0.59027421417574      0.36718110835370      1.91761889677527
