15
Coordinates from ORCA-job run
  C   0.63612168750975     -0.03215908372896     -0.50004243224969
  C   -0.85946228968876     -0.30688104495363     -0.31087777983915
  F   0.97307984648440     -0.51390250938702     -1.73245479997923
  H   -1.05313067049416     -1.34603453434415     -0.57691692344217
  N   1.01041805830152      1.29741284940151     -0.39950532618673
  H   2.00960850967688      1.40569791513139     -0.52205288866822
  H   0.70863484716958      1.70239709271237      0.47639939875121
  N   1.40580402521038     -0.99674444116201      0.45877192730130
  O   0.84136749395589     -2.03991784501078      0.77268984818960
  O   2.53748418335898     -0.64811742669096      0.76700704064299
  C   -1.66903664300641      0.59601983927105     -1.11713481321561
  N   -2.34485678872061      1.30950220957473     -1.75986273632972
  N   -1.28878485463990     -0.17841148926814      1.13590202166216
  O   -0.64229872901861      0.58556638349065      1.84674337800174
  O   -2.26594867609895     -0.83442791503604      1.45933408536152
