15
Coordinates from ORCA-job run
  C   0.54022380632757     -0.05755118252645     -0.39447826229151
  C   -0.75296415383343     -0.08410356722786      0.43233453602985
  F   0.41841120298125     -0.79903049433484     -1.50622608435339
  H   -0.57459382215897      0.38150624072691      1.40213787378944
  N   0.91378558681575      1.24735001670004     -0.73508501474884
  H   1.04917136675957      1.84326758438911      0.07032024181474
  H   1.72373915738722      1.25701168288296     -1.34234288255114
  N   1.59884225815702     -0.78113985874072      0.49437362586737
  O   1.78877147439220     -0.23548227689241      1.57831377827367
  O   2.16436883490322     -1.76521467090936      0.04550421803372
  C   -1.24797640274597     -1.44315560817786      0.58312106873269
  N   -1.61947225228678     -2.54848040814956      0.71995509768006
  N   -1.77005827530092      0.78091389812541     -0.27781559324451
  O   -1.88687199003773      1.91737808046228      0.16434246778970
  O   -2.34637679135998      0.28573056367232     -1.23545507082193
