15
Coordinates from ORCA-job run
  C   0.52563473594678     -0.20984677609872     -0.46034265883628
  C   -0.63294123146592      0.16481788867983      0.51028830675001
  F   0.01896656916969     -1.08220846912758     -1.35309695113033
  H   -0.28602829879708      0.94258853910138      1.19264564240748
  N   1.22306513036936      0.81318183259863     -1.12286886833494
  H   1.76524177351456      1.36639171621602     -0.47229017825829
  H   0.59661040527517      1.40771201870085     -1.65055297879210
  N   1.54825338641203     -0.93463005057235      0.41572236366324
  O   1.74997523683510     -2.11651728189863      0.20211319819126
  O   2.06410355369389     -0.22007217444738      1.27150372624966
  C   -1.12847266237891     -0.99400507665587      1.23537262634802
  N   -1.48313363310354     -1.93415977367859      1.84357905931020
  N   -1.73484608472422      0.77706537625228     -0.32648450975885
  O   -2.75094301524899      0.12580005441333     -0.51675631922387
  O   -1.47748586549791      1.89388217651679     -0.76983245858524
