15
Coordinates from ORCA-job run
  C   0.55599086069535     -0.07478737759190     -0.33174453255805
  C   -0.69539623894997      0.07664891262376      0.54556656659686
  F   0.21769024198728     -0.88873984248419     -1.38766776282850
  H   -0.49188693621596      0.76755404434623      1.36409624864213
  N   1.15480888189908      1.13241455720438     -0.68156448741252
  H   1.92313505082512      0.98528608554923     -1.32484118513189
  H   0.49640138460026      1.81738943307654     -1.02679257007474
  N   1.61530502947225     -0.84792547775247      0.45771331401499
  O   2.49707820527537     -1.36081803697445     -0.21544426994727
  O   1.52767749579043     -0.81704891620862      1.67931540871656
  C   -1.16731570041353     -1.21046582249926      1.03326787155183
  N   -1.54553345059630     -2.24530795493850      1.43851420617346
  N   -1.77731173383701      0.72203999959923     -0.31049576805258
  O   -2.72432411174395      0.03694284958090     -0.66288218025127
  O   -1.58531897878846      1.90581754646916     -0.57704085943901
