15
Coordinates from ORCA-job run
  C   0.55143814930750     -0.11228750940314     -0.32916547067133
  C   -0.68962208150795      0.13069724053003      0.54226843330760
  F   0.18048180414112     -0.97089243446726     -1.33751211705749
  H   -0.45833211318994      0.85868774247327      1.32023587379370
  N   1.18934980943646      1.05269088278801     -0.74701059440387
  H   1.94745378527104      0.84385733547441     -1.38536582650600
  H   0.55249549431661      1.74032889019439     -1.12578899487522
  N   1.58736578899139     -0.87677926599542      0.49884758150348
  O   2.44584134246435     -1.45917602186754     -0.14736303817208
  O   1.50888691975040     -0.77165221430550      1.71684703031260
  C   -1.20264880603714     -1.11018016893105      1.10301622713666
  N   -1.61367012584450     -2.10596537599649      1.56952517050303
  N   -1.75302242878336      0.76376238512957     -0.34543109680420
  O   -1.52368301244161      1.92460028694191     -0.67579815661992
  O   -2.72233452587434      0.09130822743478     -0.65930502144694
