15
Coordinates from ORCA-job run
  C   0.51141838241715     -0.12760084771610     -0.41729635589215
  C   -0.72114557911562     -0.00335105381881      0.48918842865575
  F   0.30550027305014     -1.02778030077532     -1.39109191360398
  H   -0.47236172468953      0.60037354941699      1.36248156685833
  N   0.87191952055967      1.10227998335955     -0.97898669368174
  H   1.06410474144073      1.81284029420794     -0.28598820598085
  H   1.63984200348042      1.00406320977078     -1.63128189469852
  N   1.62334006709593     -0.72745303214420      0.49771319722905
  O   2.15145879870921     -1.77647738706519      0.16545680297643
  O   1.89095776871424     -0.02828741292248      1.47182033335998
  C   -1.21676592386340     -1.31378918499363      0.87928333825451
  N   -1.59497377300427     -2.37103373538331      1.22224847880319
  N   -1.77734840924153      0.76296567536061     -0.27473655515361
  O   -1.84936722371009      1.95663721426567     -0.00848121139550
  O   -2.42657892184302      0.13861302843750     -1.10132931573089
