15
Coordinates from ORCA-job run
  C   0.55134579208636     -0.05979820535729     -0.38116252772517
  C   -0.75967545504236     -0.08453615617584      0.41702321026288
  F   0.46605587223517     -0.83443094108243     -1.47376276143389
  H   -0.61127690748785      0.41092976318650      1.37701071571823
  N   0.91282386223660      1.24038861963012     -0.75002800497839
  H   1.01042157563949      1.86369054442165      0.03987451016607
  H   1.74112513355420      1.24774350973260     -1.33193892323667
  N   1.59987987154681     -0.74216398767102      0.55119624677855
  O   2.18924278018048     -1.73050383859037      0.14436985397452
  O   1.75759302685402     -0.16266511282285      1.62291502552777
  C   -1.23680376596878     -1.44674704884860      0.59530125633383
  N   -1.60863750549583     -2.54816342619489      0.75980322687229
  N   -1.77382698599093      0.74310089279981     -0.34001978432774
  O   -2.32505550249150      0.21044605917198     -1.29238194213965
  O   -1.91321179185587      1.89170932780059      0.06279989820738
