15
Coordinates from ORCA-job run
  C   0.59451147686237      0.28123244793616     -0.51753912151430
  C   -0.79088089848913      0.42235896816408      0.16316146305620
  F   0.40211546853336      0.58677769684154     -1.81746932596239
  H   -1.15162956056566      1.42957272763080     -0.06150306481324
  N   1.63774050256144      1.05475922965549      0.01698277028463
  H   1.41822724143762      2.04147019531468      0.03687678543574
  H   1.94255320020518      0.71590454846610      0.91929444658565
  N   1.03209056178226     -1.18290368622397     -0.43109284481410
  O   1.49113435377638     -1.51963100619082      0.65420621764680
  O   0.87249647358186     -1.86986316141549     -1.42625752984527
  C   -0.72662511633171      0.19967183033412      1.59827769510295
  N   -0.66862658008535      0.08584717505000      2.76582070867720
  N   -1.78822060782634     -0.52182864357517     -0.47426560653768
  O   -2.50060066150174     -0.03891695177807     -1.34513715677970
  O   -1.76428585394048     -1.68245137020944     -0.08135543652242
