15
Coordinates from ORCA-job run
  C   0.56434887857459     -0.10801464546176     -0.30737037366458
  C   -0.71035409855773      0.12914622137729      0.51593704679507
  F   0.24435998320790     -0.99729462678394     -1.30684919342646
  H   -0.52024222892469      0.87939482881824      1.28388753793078
  N   1.19341409034109      1.05938748312747     -0.73111770471629
  H   1.97936282428258      0.85103003182030     -1.33497039933556
  H   0.55739388249307      1.72405822877292     -1.15002940230330
  N   1.58648781006854     -0.83202450729629      0.57261621896792
  O   1.46311247989636     -0.70405547946500      1.78471136527586
  O   2.47963782926230     -1.40823217572924     -0.03090692611340
  C   -1.21737621566968     -1.10908422196714      1.08782824943050
  N   -1.62567595669657     -2.10313171139609      1.56040560047606
  N   -1.75560731294296      0.72005410563030     -0.42126672495814
  O   -2.70317659183409      0.02287652446862     -0.74722373534317
  O   -1.53568537350073      1.87588994408429     -0.77465155901530
