16
Coordinates from ORCA-job run
  C   -0.75863209687211     -0.15258818506503     -0.09436283478138
  C   0.67899009098549      0.33088322571593      0.12867160294172
  Br  -0.71784447744157     -1.59218656242384     -1.46989799890433
  H   0.67871362897199      0.91976551557843      1.04776553244463
  N   -1.35399788067693     -0.73485156160517      1.20719677396065
  O   -2.12725095632484     -1.67421157975760      1.12234158506231
  O   -1.06542039203203     -0.10629960247371      2.21496306154302
  N   -1.55987223260585      0.94488920823350     -0.42040708865273
  H   -2.49013487921142      0.68328878604474     -0.71938276927324
  H   -1.09222419992256      1.54290793114682     -1.09004894484815
  N   1.10973860101974      1.10831327313655     -0.97462286151505
  H   1.33106515949732      0.51515495912240     -1.76582047870066
  H   1.92941981124924      1.65038379095913     -0.73935708888366
  N   1.58913807150606     -0.86518565106414      0.43434484348482
  O   2.67910972558029     -0.88669013729389     -0.12593337306607
  O   1.17120202627716     -1.68157341025412      1.24555003918812
