16
Coordinates from ORCA-job run
  C   -0.70974165461148     -0.16743656166551     -0.25808524293583
  C   0.69468046017012      0.31490121724123      0.14193746834485
  Br  -0.60619090094035     -1.62614723034305     -1.53852783200405
  H   0.60867662131717      0.83732388185244      1.09792730273936
  N   -1.41151002808507     -0.69928201615783      1.04471673736736
  O   -1.92392694711076     -1.80340242170599      1.06486629680323
  O   -1.45266705543383      0.14772238127408      1.93149788251903
  N   -1.44173097116922      0.89056320794746     -0.81858156609932
  H   -1.29642334931404      1.76615430375157     -0.33514959080335
  H   -2.42201477239272      0.67443443666087     -0.94058524508472
  N   1.25364172602199      1.15327330154452     -0.84151346585467
  H   1.28841540078925      0.69701379131518     -1.74458455679362
  H   2.18578251144242      1.44588164244265     -0.58091316627499
  N   1.54171637888153     -0.92139765369834      0.49577873630025
  O   2.59381281677983     -1.07909229680567     -0.11081346325205
  O   1.09847976365514     -1.63250998365360      1.39102970502852
