16
Coordinates from ORCA-job run
  C   -0.79076239924774      0.25145193505712     -0.11371168417496
  C   0.68857343927028      0.02025336201704     -0.45182875197406
  Br  -1.60876457574279      1.68056739434996     -1.12524727557043
  H   0.78194942234770     -0.20064638071421     -1.51207763984638
  N   -1.50139343197729     -1.05241230619734     -0.63793008443845
  O   -2.32436211008749     -1.54925755682458      0.11804192902374
  O   -1.18782331748036     -1.45825151352038     -1.74796014814534
  N   -0.98093834304060      0.45831852627685      1.25850910249760
  H   -0.67906425178617     -0.36325754561836      1.77051373081538
  H   -1.95088908327537      0.64533632547770      1.47622824761326
  N   1.16270902402002     -1.04731199513504      0.36945093802527
  H   1.87911974839922     -1.58063039373862     -0.10375438886600
  H   1.54799656510912     -0.66865508246013      1.22829845520366
  N   1.46397794394652      1.31041411592412     -0.22873583433692
  O   1.55228274411693      2.07219713594225     -1.18611893646984
  O   1.94838862542804      1.48188397916360      0.88632234064346
