16
Coordinates from ORCA-job run
  C   -0.73016801822193      0.07582537880707     -0.12690219313637
  C   0.76781593562107     -0.06785406918702     -0.43372036000817
  Br  -1.58586428856001      1.08285526163686     -1.63373039185007
  H   0.89385358592049     -0.53939509080664     -1.40377868182730
  N   -1.36800637570407     -1.31557310474044     -0.23389883933064
  O   -0.81085234912744     -2.13869140053630     -0.94899224049770
  O   -2.40471484646504     -1.48009139357143      0.39359295366155
  N   -0.98822939201820      0.55241425828117      1.15520975550025
  H   -0.57445523177322      1.46432867969298      1.30297649227670
  H   -1.97258062433803      0.52636136320627      1.38636903388335
  N   1.49748859211196     -0.75161224104188      0.57619090999108
  H   1.62094939794485     -1.72675040061042      0.35010591776460
  H   1.07722052455161     -0.63664689313449      1.48860852342818
  N   1.36462682600570      1.31754937501251     -0.59473074544121
  O   1.97735785549400      1.54349602962916     -1.62992252120626
  O   1.23555840855826      2.09178424736261      0.35262238679202
