16
Coordinates from ORCA-job run
  C   -0.87760941012178      0.12301590469989     -0.35467612921469
  C   0.66818550075499      0.31750758723650     -0.40578249073076
  Br  -1.52476077671716      0.34854873152340     -2.15853200896680
  H   0.84873934255171      1.26106006485341     -0.92308636863320
  N   -1.09688938597993     -1.32876450027796      0.10290054040313
  O   -1.81232619088107     -2.09124240156406     -0.51729338406258
  O   -0.51365000828482     -1.55851439684244      1.16336223963974
  N   -1.67889521402940      0.90827323323407      0.51896642774862
  H   -1.21434389098466      1.05327546902793      1.40710707748887
  H   -1.89984542849205      1.80363046937776      0.10671004175329
  N   1.29537777293050     -0.75994756130499     -1.06767186179349
  H   2.20481062923607     -0.50040480825045     -1.42257934644388
  H   1.40575865849632     -1.55227566732979     -0.44666185504542
  N   1.25018716269170      0.58136286775927      1.00065719139152
  O   2.08669218347743     -0.20172132289972      1.42816748095125
  O   0.85856905535214      1.59919633075719      1.56941244551438
