16
Coordinates from ORCA-job run
  C   -0.87907294917389      0.05160830286552     -0.30646147269789
  C   0.62828909150850      0.35897515027180     -0.44399787820713
  Br  -1.61633381257310      0.02662395709258     -2.11017590738496
  H   0.69404706849874      1.37953813740079     -0.82857773800836
  N   -1.11006929663073     -1.35060531661381      0.28682398207131
  O   -0.44400830481356     -2.25613301522140     -0.19999779284720
  O   -1.93397187239474     -1.45686202719719      1.17839040383054
  N   -1.61642313451902      0.97112227833018      0.47060392373794
  H   -1.52731912768503      1.91946399299310      0.13482426101507
  H   -1.42703589233926      0.88637392714606      1.45988291050706
  N   1.40579929532479     -0.49232484765811     -1.25506197374424
  H   1.39730116170040     -1.45284302729146     -0.94556052923295
  H   2.34276697290908     -0.13576332147933     -1.38123786643900
  N   1.20057714913189      0.49705919313993      0.97820717122318
  O   0.75384135639319     -0.23528465377412      1.86077325671215
  O   2.13061229466274      1.28905126999546      1.10056524946449
