16
Coordinates from ORCA-job run
  C   -0.74346759010296      0.09207345726070     -0.20659394739425
  C   0.77435899672756      0.36552753845167     -0.35308159038363
  Br  -1.47127033207680      0.03834183520336     -2.08551522189945
  H   0.86215323064214      1.37119050648460     -0.76805021301317
  N   -1.07596105631895     -1.30169813094601      0.33804139866764
  O   -0.44065425446424     -2.24451840145045     -0.11074866141354
  O   -1.98656554685619     -1.36488614045096      1.15233416817384
  N   -1.31838396135581      1.03220402974863      0.63517518042534
  H   -1.17441150710929      1.98532822701437      0.33214519139146
  H   -2.28326410625094      0.84146098799477      0.86714071746274
  N   1.62073397726441     -0.52048810965499     -1.06451587172443
  H   1.37293573925650     -1.48571716731294     -0.89941156829007
  H   1.60778697231922     -0.32037226136985     -2.05354669545819
  N   1.29230464513854      0.48181710969566      1.06444553904420
  O   1.28877191070928     -0.55581973449071      1.71755536583447
  O   1.67593288247752      1.58455625382215      1.43662620857704
