13

C	0.0	0.0	0.0
C	-0.324136	-0.005279	-1.519162
Br	1.933694	0.0	0.0
H	-0.09735	1.005301	-1.87554
H	-1.399014	-0.173141	-1.610949
C	-0.641049	1.125255	0.660673
N	-0.649356	2.189887	1.187822
N	-0.419837	-1.288073	0.669075
O	-0.480709	-2.286668	-0.046555
O	-0.463012	-1.277884	1.895885
C	0.402883	-0.962345	-2.345935
N	0.90706	-1.681855	-3.125889
H	-2.120463	0.0	0.0
