18

C	0.0	0.0	0.0
C	-0.561215	-0.031302	-1.444206
F	1.435775	0.0	0.0
H	0.312707	-0.052901	-2.106966
C	-0.427176	1.196694	0.81918
H	-0.120823	2.131229	0.350896
H	-1.514302	1.126773	0.891572
H	0.023244	1.112287	1.81432
N	-0.364398	-1.189796	0.713912
H	0.287068	-1.305465	1.480629
H	-0.330212	-1.980272	0.083371
N	-1.32469	1.190649	-1.703989
H	-2.180459	1.031036	-1.137041
H	-1.609494	1.148781	-2.678709
N	-1.327502	-1.270807	-1.62405
H	-1.638382	-1.285136	-2.590622
H	-2.162583	-1.087698	-1.027492
F	-3.113257	0.0	0.0
