18

C	0.0	0.0	0.0
C	-0.454051	0.252277	-1.443514
F	1.394355	0.0	0.0
H	-1.530327	0.430485	-1.347209
C	-0.433749	1.137993	0.906718
H	-1.526629	1.112405	0.895402
H	-0.047718	2.089233	0.54081
H	-0.049227	0.951665	1.916987
N	-0.537665	-1.271387	0.410933
H	-0.350609	-1.376311	1.404434
H	-1.563573	-1.064818	0.319684
N	-0.154251	-0.934789	-2.269063
H	-0.118262	-1.722107	-1.627012
H	-0.955318	-1.100443	-2.870752
N	0.209622	1.447528	-1.957568
H	-0.205485	1.654195	-2.859969
H	1.168256	1.167742	-2.14455
F	-2.925935	0.0	0.0
