18

C	0.0	0.0	0.0
C	-0.398262	-0.051948	-1.476324
F	1.433594	0.0	0.0
H	-1.493343	-0.031127	-1.430845
C	-0.443806	1.284116	0.662215
H	-1.535952	1.28208	0.591969
H	-0.013664	2.150022	0.159266
H	-0.123237	1.253152	1.707112
N	-0.514685	-1.111743	0.73466
H	-1.535572	-0.893477	0.698624
H	-0.397714	-1.925061	0.134851
N	0.040269	-1.344188	-2.026296
H	1.050352	-1.320684	-2.121149
H	-0.359308	-1.46449	-2.949624
N	0.105473	1.128462	-2.182747
H	1.119324	1.117601	-2.124471
H	-0.150991	1.060239	-3.161585
F	-2.918942	0.0	0.0
