18

C	0.0	0.0	0.0
C	-0.233027	0.160841	-1.531545
F	1.409064	0.0	0.0
H	0.481008	-0.572965	-1.925257
C	-0.46753	1.172876	0.844083
H	-0.10879	1.03648	1.870921
H	-0.076811	2.123295	0.469549
H	-1.559671	1.136239	0.832404
N	-0.538903	-1.257028	0.441876
H	-1.560185	-1.069809	0.429618
H	-0.27618	-1.356626	1.420466
N	0.273651	1.495333	-1.935677
H	-0.502473	2.126164	-1.756576
H	0.301888	1.427188	-2.947794
N	-1.535711	-0.084263	-2.106461
H	-2.261668	0.131318	-1.395168
H	-1.64982	-1.075446	-2.292635
F	-3.058536	0.0	0.0
