18

C	0.0	0.0	0.0
C	-0.336128	-0.150186	-1.522159
F	1.388866	0.0	0.0
H	0.551208	0.260154	-2.020265
C	-0.407084	1.368786	0.526594
H	0.000675	1.482539	1.538438
H	-1.496207	1.393689	0.546128
H	-0.022316	2.167204	-0.109984
N	-0.574753	-1.071448	0.764375
H	-1.594368	-0.883704	0.638044
H	-0.365195	-0.899527	1.743096
N	-1.45861	0.674092	-1.927837
H	-1.649093	0.489459	-2.906321
H	-2.274145	0.419075	-1.335963
N	-0.385966	-1.586125	-1.866684
H	-0.807906	-2.07132	-1.082645
H	-1.015194	-1.680469	-2.65772
F	-3.047552	0.0	0.0
