18

C	0.0	0.0	0.0
C	-0.547583	-0.247976	-1.440288
F	1.425936	0.0	0.0
H	0.344822	-0.355682	-2.072302
C	-0.451523	1.299622	0.623529
H	-1.543811	1.237296	0.647235
H	-0.054417	1.360883	1.641733
H	-0.098802	2.170821	0.065122
N	-0.368437	-1.067954	0.884028
H	-0.321957	-1.945424	0.380314
H	0.274162	-1.065942	1.666586
N	-1.398794	0.805932	-1.990526
H	-0.949373	1.709088	-1.891586
H	-2.224572	0.77509	-1.362206
N	-1.305516	-1.49611	-1.440675
H	-2.125021	-1.236226	-0.854029
H	-1.648768	-1.591733	-2.391558
F	-3.096496	0.0	0.0
