18

C	0.0	0.0	0.0
C	-0.402945	0.108621	-1.472359
F	1.419405	0.0	0.0
H	-1.49644	0.164793	-1.410153
C	-0.419261	1.226267	0.784924
H	0.016651	2.124472	0.347882
H	-1.51089	1.260977	0.752779
H	-0.061686	1.101239	1.809741
N	-0.529764	-1.170441	0.623314
H	-1.54649	-0.923743	0.628421
H	-0.44628	-1.910494	-0.069912
N	-0.02711	-1.139301	-2.155959
H	0.96972	-1.116934	-2.346068
H	-0.518545	-1.193045	-3.042132
N	0.148775	1.331409	-2.061821
H	1.159894	1.289438	-1.976629
H	-0.076894	1.353812	-3.0514
F	-2.923142	0.0	0.0
