18

C	0.0	0.0	0.0
C	-0.297978	-0.050638	-1.548682
F	1.38758	0.0	0.0
H	0.520246	0.558293	-1.960099
C	-0.447306	1.322161	0.595004
H	-0.058992	2.167538	0.017136
H	-1.539675	1.306788	0.590245
H	-0.069176	1.40347	1.62121
N	-0.56609	-1.135883	0.670885
H	-0.388064	-1.039138	1.666936
H	-1.584444	-0.967647	0.533533
N	-1.540243	0.513239	-2.046726
H	-1.455815	1.524486	-2.031558
H	-2.292454	0.2746	-1.365675
N	-0.139136	-1.430892	-2.012466
H	-0.322333	-2.04387	-1.224767
H	-0.871189	-1.564765	-2.699537
F	-3.0542	0.0	0.0
