18

C	0.0	0.0	0.0
C	-0.225091	0.005584	-1.562504
F	1.402742	0.0	0.0
H	0.18137	0.988923	-1.864942
C	-0.490439	1.266924	0.662298
H	-1.583384	1.227913	0.604361
H	-0.173021	1.284775	1.711491
H	-0.096467	2.156903	0.162538
N	-0.533425	-1.200695	0.573716
H	-0.407318	-1.148079	1.581598
H	-1.548853	-1.09211	0.415344
N	-1.572251	-0.224625	-1.980071
H	-2.297265	-0.034703	-1.254817
H	-1.760853	0.244382	-2.852408
N	0.607658	-0.994301	-2.249413
H	1.526338	-1.009642	-1.821153
H	0.159372	-1.880454	-2.041063
F	-3.159253	0.0	0.0
