18

C	0.0	0.0	0.0
C	-0.529511	0.133034	-1.423859
F	1.423489	0.0	0.0
H	-1.555484	0.49844	-1.277223
C	-0.523267	1.123372	0.852403
H	-0.09045	1.065013	1.858374
H	-1.617641	0.965956	0.843814
H	-0.248466	2.078569	0.399091
N	-0.389934	-1.272428	0.534823
H	-0.389383	-1.242824	1.544818
H	0.264652	-1.967725	0.198902
N	-0.561119	-1.206956	-2.05025
H	-1.339549	-1.661135	-1.571423
H	-0.864709	-1.067166	-3.011652
N	0.291904	1.078993	-2.158963
H	-0.128174	1.246265	-3.066437
H	1.198513	0.646961	-2.305456
F	-3.018126	0.0	0.0
