17

C	0.0	0.0	0.0
C	-0.594651	0.217	-1.400203
Br	1.927884	0.0	0.0
H	-1.686038	0.253115	-1.206783
N	-0.39931	1.169757	0.911007
O	-0.238282	1.004464	2.112791
O	-0.820247	2.195349	0.387317
C	-0.5187	-1.274756	0.631376
H	-1.612423	-1.224289	0.636784
H	-0.183245	-2.131904	0.047246
H	-0.141799	-1.361106	1.64884
C	-0.317321	-0.976354	-2.203539
N	-0.096912	-1.89804	-2.897397
N	-0.059026	1.377432	-2.114946
H	-0.536542	2.192695	-1.752645
H	-0.301409	1.2847	-3.094498
Cl	-3.723296	0.0	0.0
