17

C	0.0	0.0	0.0
C	-0.405156	0.316089	-1.481749
Br	1.943421	0.0	0.0
H	-0.018004	-0.55395	-2.030321
N	-0.392098	1.146883	0.929142
O	-0.781097	2.187347	0.408818
O	-0.272995	0.943484	2.131288
C	-0.631721	-1.265358	0.51365
H	-1.717869	-1.110644	0.529824
H	-0.384704	-2.096401	-0.150406
H	-0.284409	-1.486414	1.521476
C	0.330042	1.479657	-2.017156
N	0.889314	2.381705	-2.519243
N	-1.793347	0.466776	-1.805355
H	-2.218065	1.225102	-1.286655
H	-2.349104	-0.345203	-1.558577
Cl	-4.273457	0.0	0.0
