17

C	0.0	0.0	0.0
C	-0.293107	0.126167	-1.552794
Br	1.946893	0.0	0.0
H	0.497899	0.782693	-1.920904
N	-0.397876	1.257238	0.739912
O	-0.529623	1.177793	1.95449
O	-0.475382	2.279975	0.069755
C	-0.418521	-1.251837	0.733065
H	-0.024412	-2.120516	0.201661
H	0.006943	-1.239324	1.734819
H	-1.50751	-1.275388	0.775276
C	-1.498991	0.798756	-2.071311
N	-2.119307	1.420354	-2.855217
N	-0.151995	-1.144059	-2.247023
H	-0.910732	-1.7603	-1.98222
H	0.732193	-1.57348	-2.001511
Cl	-3.261921	0.0	0.0
