16

C	0.0	0.0	0.0
C	-0.2138	-0.199343	-1.56321
F	1.36554	0.0	0.0
H	0.583702	0.444453	-1.963964
N	-0.390743	1.369695	0.487515
O	-0.527947	1.527376	1.693668
O	-0.397545	2.264784	-0.353308
C	-0.494712	-1.038603	0.893993
N	-0.598041	-1.926292	1.658108
N	-1.427501	0.131527	-2.24003
H	-1.439617	1.139773	-2.33701
H	-2.155676	-0.06562	-1.51799
N	0.061667	-1.621561	-1.776028
H	-0.245768	-1.817425	-2.720211
H	1.055557	-1.804921	-1.704078
F	-2.415428	0.0	0.0
