16

C	0.0	0.0	0.0
C	-0.328903	0.081375	-1.542377
F	1.36004	0.0	0.0
H	0.657296	-0.153255	-1.974919
N	-0.347411	1.202128	0.863026
O	-0.822469	1.015976	1.971647
O	0.031334	2.287029	0.425871
C	-0.47395	-1.220514	0.653353
N	-0.553234	-2.253507	1.210017
N	-0.773417	1.408968	-1.98062
H	-0.066973	2.100689	-1.758148
H	-0.854246	1.352952	-2.989933
N	-1.222526	-0.977029	-1.920785
H	-1.379628	-0.929333	-2.921175
H	-2.072258	-0.743639	-1.367046
F	-2.402947	0.0	0.0
