16

C	0.0	0.0	0.0
C	-0.215397	-0.110821	-1.574494
F	1.365479	0.0	0.0
H	0.57917	0.560581	-1.940293
N	-0.394247	1.336783	0.56601
O	-0.553151	1.419939	1.777231
O	-0.386962	2.281575	-0.21875
C	-0.494919	-1.092357	0.828966
N	-0.593564	-2.01896	1.546486
N	-1.436195	0.254821	-2.224462
H	-2.161506	0.022908	-1.509518
H	-1.445773	1.268132	-2.274316
N	0.068209	-1.519434	-1.866164
H	1.06185	-1.69984	-1.806806
H	-0.240162	-1.665499	-2.817823
F	-2.430296	0.0	0.0
