16

C	0.0	0.0	0.0
C	-0.413403	0.113392	-1.52265
F	1.358464	0.0	0.0
H	0.556297	0.246686	-2.018487
N	-0.330536	1.231134	0.834457
O	-0.013229	2.304897	0.323345
O	-0.745321	1.088037	1.97439
C	-0.459928	-1.187942	0.721588
N	-0.549573	-2.183724	1.339752
N	-1.282351	1.18941	-1.940125
H	-2.088569	1.06615	-1.313057
H	-0.842755	2.076882	-1.732203
N	-0.958034	-1.186254	-1.872457
H	-1.835106	-1.190925	-1.340751
H	-1.203327	-1.124368	-2.855677
F	-2.464605	0.0	0.0
