16

C	0.0	0.0	0.0
C	-0.417208	0.282513	-1.497842
F	1.358494	0.0	0.0
H	0.5527	0.462317	-1.977158
N	-0.328005	1.130541	0.96746
O	-0.746371	0.862126	2.083625
O	-0.00288	2.253404	0.581816
C	-0.457482	-1.262297	0.58602
N	-0.557565	-2.322564	1.083213
N	-1.280625	1.40187	-1.78941
H	-2.092147	1.209376	-1.18695
H	-0.838502	2.258963	-1.481693
N	-0.970564	-0.966613	-1.99086
H	-1.230867	-0.78214	-2.95408
H	-1.842036	-1.031296	-1.450942
F	-2.479064	0.0	0.0
