16
Coordinates from ORCA-job run
  C   0.53635281649402      0.17408807772076     -0.74101550710668
  C   -0.88832475599095     -0.21964379299018     -0.27118007038146
  Br  0.81576185161418     -0.57712559417147     -2.53733127959118
  H   -1.58516838450171      0.09106313365939     -1.05728469928079
  C   0.59959948947230      1.62720176214945     -0.87541306446735
  N   0.63753220853736      2.80070087047181     -0.94064434658581
  C   1.64443429529108     -0.33126081596122      0.17684257913355
  H   1.53746622536977      0.10980559762841      1.17063712474037
  H   2.61843773025720     -0.04881976004669     -0.22336817624375
  H   1.59582529903163     -1.41863038939875      0.25412258180568
  C   -1.28771014349955      0.45349510033729      1.04865932284864
  H   -2.32187138234438      0.19678638854845      1.28467020468059
  H   -1.21464451514408      1.53888102838164      0.96136214643756
  H   -0.66144856282320      0.11568521935422      1.87502141291169
  C   -0.97834915681342     -1.67528437197765     -0.14139266366323
  N   -1.04989301495027     -2.83694245370547      0.01531443476217
