16
Coordinates from ORCA-job run
  C   0.56883695274261      0.10736920285896     -0.60546007736135
  C   -0.78788156926931      0.21501032233118      0.13641038934414
  Br  0.61419095164724     -1.52949670801838     -1.69210114967589
  H   -0.76300783016719      1.19150716767666      0.64006691027275
  C   0.69258529286846      1.23527998174602     -1.52674775372739
  N   0.80449540508746      2.17582119356713     -2.22341034526054
  C   1.75413916466677      0.09037954868339      0.35627541354561
  H   1.74122039331831     -0.81340863049512      0.96441081327283
  H   2.68913348389102      0.11597893625822     -0.20379076300296
  H   1.70958805467247      0.96943067463157      1.00640320081711
  C   -1.02630776794772     -0.87467642479931      1.18457699555922
  H   -0.28345072444778     -0.81844093802621      1.98069071294110
  H   -2.01158995551356     -0.73471990807543      1.63216676632086
  H   -0.99363538188635     -1.86486376379658      0.72937895345078
  C   -1.89594964509874      0.25681943181989     -0.82061760003178
  N   -2.81036682456369      0.27900991363802     -1.55725246646450
