16
Coordinates from ORCA-job run
  C   0.61974435089461      0.09283186311777     -0.55570885237164
  C   -0.82649036253438      0.06420437568661      0.00215960138744
  Br  1.12655476384507     -1.69121859126777     -1.20524968185055
  H   -1.05865928685920      1.10901402915671      0.25157102224801
  C   0.66213792246927      0.99488239219446     -1.70501850345722
  N   0.69562383302897      1.76711670519103     -2.59111168814061
  C   1.63544558289467      0.53951966275832      0.49242474388021
  H   1.33519336387599      1.50861099051087      0.90256613359472
  H   2.62053262921358      0.64203095586861      0.03668294179130
  H   1.70225889875584     -0.19165768820287      1.29737278866464
  C   -1.00545992056767     -0.79421654930092      1.25667238369531
  H   -0.71615751830426     -1.82774202400817      1.06432750316624
  H   -0.41413472525788     -0.40164486606662      2.08442072355858
  H   -2.05478386829718     -0.78113254451312      1.55587351846434
  C   -1.77073846714001     -0.34611147933384     -1.03976390915493
  N   -2.55306719601741     -0.68548723179108     -1.84721872547584
