16
Coordinates from ORCA-job run
  C   0.55633690929620      0.18514829491225     -0.72427803620561
  C   -0.87582436361974     -0.23090459797611     -0.29939880334978
  Br  0.90127659189597     -0.55513666976151     -2.51348579565296
  H   -1.55316263748481      0.07447696060391     -1.10444357845926
  C   0.60215860191120      1.63969121151762     -0.85141515735652
  N   0.62628512245309      2.81385963256061     -0.90947251090392
  C   1.64320826938221     -0.30711744836794      0.22551846691567
  H   1.60711796709470     -1.39520750588327      0.29912577787439
  H   2.62484170965726     -0.01054233831519     -0.14454646662232
  H   1.50032074346631      0.13014484374536      1.21639246644910
  C   -1.32404612981791      0.42938250086513      1.01130753647442
  H   -2.36134278455330      0.15751452463559      1.21408240713225
  H   -1.26298027693256      1.51613321420345      0.93201245875184
  H   -0.71887403599270      0.09507128891375      1.85464760895919
  C   -0.95047391042181     -1.68835288318405     -0.17886715625542
  N   -1.01484177633410     -2.85116102846960     -0.02717921775107
