17
Coordinates from ORCA-job run
  C   -0.23069220900798     -0.05094398472247      0.49529576561350
  C   0.63268484595160     -0.22403687369826     -0.77298882298145
  F   0.62629026516950     -0.15644210362364      1.58612142459241
  H   -0.01101002018264     -0.24268339174383     -1.65495256243283
  C   -1.23053027133433     -1.18794500861952      0.57912775802147
  H   -1.93132447770197     -1.15853540234795     -0.25830146791073
  H   -1.79443508087686     -1.09183644815633      1.50860670932816
  H   -0.72012620731202     -2.15271080013464      0.58824844996252
  C   -0.88223729120749      1.31569612263744      0.54856460439771
  H   -0.12917807711240      2.09746032094246      0.65271715545869
  H   -1.53891518280815      1.35812091894891      1.41906204804608
  H   -1.47080224130713      1.51338739164404     -0.34917753074284
  C   1.44728848455890     -1.43091647982450     -0.70774357924645
  N   2.05826744285374     -2.43241395015917     -0.66918060023863
  N   1.52351541475085      0.97927962634221     -0.95434532613347
  O   1.09090667324376      1.84942002766301     -1.70550023004964
  O   2.56129793232261      1.01510003485223     -0.30555379568448
