17
Coordinates from ORCA-job run
  C   -0.23506320126020     -0.05043432308430      0.49361412996444
  C   0.64214443958115     -0.22557926431276     -0.76501724866649
  F   0.61108617937987     -0.14455407134507      1.59389346331890
  H   0.00627023217430     -0.25643046687072     -1.65232359922341
  C   -1.22884099469965     -1.19286205767816      0.57320025477803
  H   -1.80357847852780     -1.09507279678404      1.49587501871442
  H   -0.71300877669226     -2.15452681806409      0.59313388674224
  H   -1.92066949195613     -1.17239470504495     -0.27187600718735
  C   -0.89528778196481      1.31243741995471      0.53324290882854
  H   -1.48065494577381      1.50054755410503     -0.36862947850700
  H   -0.14768570033138      2.09982061474398      0.63518477091483
  H   -1.55520211495082      1.35667778975621      1.40109523868051
  C   1.46681913901377     -1.42440616547425     -0.68300516404775
  N   2.08599238455340     -2.42032358271424     -0.63207483578277
  N   1.52325017492214      0.98481155921041     -0.94773491371587
  O   1.09033374323062      1.84362119776905     -1.71151752263118
  O   2.55209519330160      1.03766811583318     -0.28606090218008
