17
Coordinates from ORCA-job run
  C   -0.62833222282204      0.03981412417468      0.03888905071988
  C   0.57953298568212     -0.33122874132447     -0.84991569267467
  F   -1.58857288555452      0.52420185789285     -0.85043191780763
  H   0.24501548389653     -1.03726986826734     -1.61305649968147
  C   -0.33078280400391      1.12801680533143      1.04699148095105
  H   -0.04919782622789      2.05602897743347      0.55080539354720
  H   -1.23137167065413      1.30941114292689      1.63657310442629
  H   0.47674941648145      0.83255439182887      1.71937771949972
  C   -1.18040816408122     -1.21989944876081      0.67695114154154
  H   -2.10653204447001     -0.97052587142381      1.19771948033162
  H   -1.40740711055841     -1.96932349891032     -0.08444586630718
  H   -0.47792121687693     -1.64226479233795      1.39732823738085
  C   1.67366404136332     -0.88477428166265     -0.06588286063749
  N   2.52362706689547     -1.36133486392253      0.58943175769153
  N   1.06113110123963      0.87892675125296     -1.61335955147609
  O   1.81452679665798      1.64768394376196     -1.02455681179440
  O   0.62427905303253      1.00198337200677     -2.75141816571075
