17
Coordinates from ORCA-job run
  C   -0.62770401660112      0.03602876951568      0.04832217110658
  C   0.56706130900274     -0.36656505907096     -0.84418370550191
  F   -1.60865071222671      0.46898270045112     -0.84506431771183
  H   0.22541229359928     -1.10994898427880     -1.56768908942584
  C   -0.32247720943565      1.17378090644263      0.99773057666167
  H   -0.06195192855222      2.08014588109389      0.45264859226612
  H   -1.21274577879291      1.37325031706179      1.59695955585863
  H   0.50185041051054      0.91915804418670      1.66627363035890
  C   -1.15573058362639     -1.19647110836766      0.75609586382572
  H   -2.07833128220666     -0.93181622265246      1.27578512108143
  H   -0.43868335836655     -1.57278007316819      1.48762476449734
  H   -1.38275997495341     -1.98679791726306      0.03724773374775
  C   1.68022817141467     -0.87391651162408     -0.05575748507102
  N   2.54662631210549     -1.31154079470127      0.60513167082799
  N   1.02391777297808      0.81021015625958     -1.67235954256116
  O   0.56772185493661      0.87459775945594     -2.80767907855368
  O   1.77821672021421      1.61368213665913     -1.13308646140670
