17
Coordinates from ORCA-job run
  C   -0.18796359658909     -0.06872963962891      0.51104418707125
  C   0.53735653774812     -0.21614840163112     -0.84405914104552
  F   0.75123432196631     -0.32814851417637      1.50393635427071
  H   -0.18384405492288     -0.11321372143617     -1.65762153352968
  C   -1.27470027481245     -1.12134910953649      0.61391692657086
  H   -0.85557736780958     -2.12320643120383      0.50508741175923
  H   -2.04475753141589     -0.96814429620835     -0.14543490940905
  H   -1.73881993615724     -1.05135798316469      1.59920039994968
  C   -0.70639943552544      1.33928672051458      0.72031004062250
  H   0.11986097894557      2.04639918779065      0.80090468378941
  H   -1.35655254509708      1.65207182609724     -0.09876527299970
  H   -1.27154744014145      1.36961450648915      1.65328317420122
  C   1.24145060628030     -1.48857166797008     -0.94173349395991
  N   1.75973035834627     -2.53769054748015     -1.03378891056549
  N   1.51315350288267      0.91821784369603     -1.02924147275036
  O   2.60467782329853      0.81742562892611     -0.48359747060029
  O   1.09469805300332      1.87654459892240     -1.67344097337487
