17
Coordinates from ORCA-job run
  C   -0.68056709548814     -0.06792400673514      0.02659823974740
  C   0.45495593857095     -0.06538340657171     -1.02695750284146
  F   -1.77999251112815     -0.53287562903479     -0.70462900359204
  H   0.12015075784579      0.52102317174566     -1.88448641410346
  C   -0.99531096489401      1.33951440202073      0.48809524888911
  H   -1.92112968396766      1.31182354025809      1.06529001879036
  H   -0.20420499690771      1.73981838338476      1.12398428086937
  H   -1.13454598688032      2.00949727376529     -0.36210807638866
  C   -0.44227967709481     -1.03215874262580      1.16579520628344
  H   -0.32314475893530     -2.04852526523290      0.78816703633783
  H   0.44903171980536     -0.76208217278307      1.73270274828053
  H   -1.30676739739758     -1.00922661235784      1.83178234667932
  C   0.82797082302940     -1.40965710018542     -1.44643928395859
  N   1.10250536368702     -2.49741995786618     -1.79236145723620
  N   1.66078741118522      0.65111248096157     -0.47907048471151
  O   1.77467225244332      1.83136849550343     -0.79618742390377
  O   2.39886880612662      0.01909514575331      0.26982452085833
