17
Coordinates from ORCA-job run
  C   -0.71081809968253      0.34170101012254     -0.07734202327838
  C   0.81419864034800      0.31243139714679     -0.28652548314262
  Br  -1.56141623791684      1.34096769662295     -1.52850281500708
  H   1.14175148571565      1.35568490850814     -0.34675040071312
  C   -1.33980385095089     -1.02059276374389      0.05094686209157
  H   -2.41544469261016     -0.93957988270206      0.19485592627107
  H   -0.91154092750986     -1.52741128478203      0.91653698136818
  H   -1.12563310409196     -1.59258803344988     -0.85065752373865
  N   -0.94930238586291      1.16840418558916      1.18148712922753
  O   -1.71764555459773      0.71108839402896      2.01891863847976
  O   -0.35234526580236      2.23519850220026      1.26273118980619
  N   1.12473435740908     -0.48319221796233     -1.46731228435682
  H   2.12823394741110     -0.46043569359136     -1.61027564538407
  H   0.69167301355574     -0.07887353314458     -2.29040564362990
  N   1.38473587673198     -0.27768929691435      0.90643803332719
  H   1.55260902462125     -1.26432242091871      0.75292989112062
  H   2.24601377323246      0.17720903299038      1.17292716755853
