17
Coordinates from ORCA-job run
  C   -0.64648599555979      0.27848906296923      0.08272285441334
  C   0.79342413393243     -0.23344314163422     -0.06908266047024
  Br  -0.87174353954931      1.92097325456031     -0.93709648233576
  H   0.82669537642447     -1.14819321444026      0.53010114693527
  C   -1.69848690705203     -0.72505869417511     -0.33927827493738
  H   -1.56064614737738     -1.64422495133259      0.23248556063710
  H   -1.57947796530365     -0.94124558165991     -1.39854444392653
  H   -2.69865456083825     -0.33027857818164     -0.15124548918997
  N   -0.83280371113333      0.57076187281244      1.57141446379851
  O   -0.71636523565569     -0.42918115927603      2.27494671615889
  O   -1.08112939082482      1.69930763806026      1.96048091004188
  N   1.69111172403162      0.71383619534441      0.56349957301387
  H   1.78094643763233      1.55443054308792      0.00474492876202
  H   2.60926352020312      0.30542061829472      0.68335051410407
  N   1.00930738588344     -0.62172078664428     -1.45299855221523
  H   1.85695127694739     -1.17129821127434     -1.52338106020906
  H   1.11909359823948      0.20242513348909     -2.03311970458079
