17
Coordinates from ORCA-job run
  C   -0.75030059040773      0.17722876907771     -0.22099523161374
  C   0.69673205235143     -0.27988121164244     -0.50899809336363
  Br  -1.57379446211678      0.99733603637862     -1.77939754596577
  H   0.57331912736971     -1.19390013000991     -1.09943182305588
  C   -1.61716957432721     -0.96749517002020      0.25685767425219
  H   -2.62761913956545     -0.62509721958056      0.46696354463863
  H   -1.65601756623946     -1.72752120621766     -0.52521410236820
  H   -1.17355294832817     -1.39247489894581      1.15715453301347
  N   -0.73115773449900      1.26360445669222      0.84934975101817
  O   -1.70256294320918      1.35735819380978      1.58696468866873
  O   0.25853112932701      1.99496441142356      0.88774711147979
  N   1.25162545927508     -0.68615623060169      0.78592009308603
  H   1.68500749155032      0.11361062416588      1.23238567707914
  H   1.96356692150991     -1.39222422909925      0.64788236895831
  N   1.44788358912667      0.64180610328706     -1.32880747397048
  H   2.33105168755905      0.22102325763484     -1.58781016982844
  H   1.62345750062380      1.49881844364787     -0.82157100202833
