17
Coordinates from ORCA-job run
  C   -0.72118812718321      0.37969276665075     -0.06190211757688
  C   0.78681621933825      0.33356763959533     -0.38578191444535
  Br  -1.61863222812517      1.54494677797855     -1.33450090150281
  H   1.11453166885232      1.36208739502448     -0.56765387718218
  C   -1.38119297208187     -0.97468630012764     -0.03743877831532
  H   -1.31450711946550     -1.41019426967677     -1.03393464001112
  H   -2.42832350490158     -0.88866290795969      0.24344212078477
  H   -0.86247339527431     -1.60654281243679      0.68579252614382
  N   -0.88729378577545      1.07042687124013      1.28663786518417
  O   -1.79539627539229      0.69529629180904      2.01818338542521
  O   -0.10151405456694      1.98251683874867      1.53778690333098
  N   0.96598987439942     -0.42175592080752     -1.60171487686858
  H   1.01577184649579     -1.41155503164683     -1.39120962222250
  H   1.81290410956030     -0.14304427897254     -2.07741488476951
  N   1.45687828324100     -0.29576818528006      0.75424796515917
  H   2.37861089434230     -0.59510367036236      0.45969844900811
  H   1.57801856653695      0.37577879622326      1.50376239785802
