17
Coordinates from ORCA-job run
  C   -0.66827291909262      0.34132491028354     -0.08303899579491
  C   0.85421657466598      0.30815157332104     -0.38480717874383
  Br  -1.57600279470054      1.37198241788896     -1.47423889209161
  H   1.16269842230880      1.34978352060283     -0.53221767252148
  C   -1.32000832276450     -1.01100035709271      0.04941083772767
  H   -1.18054871576792     -1.55642310077577     -0.88148507392075
  H   -2.38075492316074     -0.90970527437037      0.27215854340147
  H   -0.85563200977623     -1.57092105756249      0.86280333967228
  N   -0.82425337665053      1.14509511958342      1.19926991270158
  O   -1.46108021703740      0.63641091338467      2.11741452842347
  O   -0.25682063754203      2.23254008239921      1.24224795724979
  N   1.07164494718516     -0.55704460597587     -1.52844063274234
  H   2.07365238455586     -0.65372671756040     -1.64247501844614
  H   0.69240232351114     -0.13638005953800     -2.36818630430254
  N   1.65012834129727     -0.21929120369273      0.69624689797894
  H   1.65355322019311      0.38524228830995      1.50601635425710
  H   1.36407770277519     -1.15603844920529      0.94932139715131
