17
Coordinates from ORCA-job run
  C   -0.61357396798859      0.24118038684284      0.06425556948998
  C   0.83708347585344     -0.24764659309392     -0.17451505500626
  Br  -0.90583610715935      1.93272470353871     -0.84478133499931
  H   0.88980286005968     -1.20886389128639      0.34567603411093
  C   -1.66972885039412     -0.75849701495785     -0.35766046995723
  H   -2.66795510615062     -0.39560005631904     -0.10525649018389
  H   -1.48933391247389     -1.70434932403787      0.15592332487949
  H   -1.59447113279013     -0.91678901671487     -1.43115027427932
  N   -0.72875795673791      0.45483073640823      1.57181525027041
  O   -0.56237750142601     -0.57621783988531      2.22254362840405
  O   -0.93374718729985      1.56593211290573      2.03787619263763
  N   1.87389304263888      0.59180810893758      0.39124097176018
  H   1.89425423982184      0.53739168352832      1.40228514009849
  H   1.75325977585197      1.56024336745832      0.11692634954700
  N   0.99648597778330     -0.50528781115988     -1.58848516911401
  H   1.02158288349073      0.37481689809000     -2.09238860040717
  H   1.90041946692064     -0.94567645025459     -1.71630506725096
