17
Coordinates from ORCA-job run
  C   -0.62618239776367      0.40588044252600     -0.04809512499497
  C   0.89859001807183      0.28571215464961     -0.31220421014544
  Br  -1.39429420308934      1.64250221986509     -1.34987702018445
  H   1.29200711032973      1.30383273387684     -0.39778707848412
  C   -1.37475933761732     -0.90166222443236     -0.06985533247701
  H   -1.32729091734289     -1.33334981903188     -1.06948429534856
  H   -2.41975899718335     -0.75191915727796      0.19147099536239
  H   -0.91045495045817     -1.57895709276727      0.64848131849014
  N   -0.81403638556182      1.08899299080593      1.30379008416489
  O   0.01818900840348      1.94086821421413      1.60841897956458
  O   -1.77687060496168      0.76024504424677      1.98652501019905
  N   1.24074391726537     -0.42082896954097     -1.52235099739119
  H   0.85375908272191     -1.35664071460764     -1.51108742345653
  H   0.90905425544883      0.06972440117270     -2.34208710710976
  N   1.45779927181191     -0.47033479215128      0.79833710773936
  H   2.35791189942856     -0.82312257975070      0.49446578678084
  H   1.61359323049663      0.14105714820295      1.59033930729079
