17
Coordinates from ORCA-job run
  C   -0.72269545958848      0.31475027984399     -0.08110768319599
  C   0.79931756587087      0.32585395503707     -0.31248513851093
  Br  -1.62641468342309      1.22023320607016     -1.56172743081217
  H   1.09118839042238      1.37542168614414     -0.42431680315308
  C   -1.30434322956878     -1.06024652003119      0.11640840338651
  H   -1.08335633166518     -1.66445607117800     -0.76228656835797
  H   -0.84740393860985     -1.51420114649861      0.99657902534250
  H   -2.38001029029137     -1.00797658764134      0.27273227475046
  N   -0.97087095738012      1.18838875422833      1.14335463995458
  O   -0.40899331109589      2.27688009686324      1.16824967269118
  O   -1.71197982891825      0.74408998528113      2.01185226371154
  N   1.11970399210130     -0.51142787350473     -1.46154895398433
  H   2.11965621934296     -0.46143150657160     -1.62149519474633
  H   0.66109911027622     -0.15908371222785     -2.29466763823564
  N   1.40592097571819     -0.19096028029807      0.89644033770457
  H   2.25549948494751      0.30285960106818      1.12903888386260
  H   1.60368229186161     -1.17769386658485      0.78497990959249
