17
Coordinates from ORCA-job run
  C   -0.67134189074752      0.45720131117098     -0.09406363406730
  C   0.84616668453512      0.26881481560844     -0.30148976182264
  Br  -1.33549076053905      1.77862665399233     -1.35691851071027
  H   1.29020568947752      1.26523689448687     -0.39250651592001
  C   -1.46507466675574     -0.81869983282974     -0.20629064646797
  H   -1.07580766658241     -1.54073164474148      0.51373323893943
  H   -2.51798256405044     -0.63738235764756     -0.00292513219126
  H   -1.35966589671833     -1.20356565977497     -1.22017043308090
  N   -0.87851400805674      1.08684359040358      1.27853311503119
  O   -0.03031169012995      1.89856607129928      1.64469408543488
  O   -1.87485630238820      0.76641775122799      1.91507047734669
  N   1.04972485775723     -0.43438152505596     -1.54438163283594
  H   1.95762969189779     -0.22249805281676     -1.93425228486228
  H   0.98002769460415     -1.43376131257796     -1.39316378438748
  N   1.35057169723540     -0.48905915564193      0.84596081288725
  H   1.47512673486822      0.12447877033050      1.64321298900467
  H   2.25959239559295     -0.86610631743361      0.60595761770193
