17
Coordinates from ORCA-job run
  C   -0.73124830983981      0.36046163611645     -0.06203885355028
  C   0.77763414885135      0.35440352748039     -0.38665290253711
  Br  -1.66007497762783      1.49912404871916     -1.33548065809430
  H   1.07704960453657      1.39126643503474     -0.57002389492934
  C   -1.35401996472488     -1.01137802231487     -0.03523668101181
  H   -2.40353212877403     -0.95364165267248      0.24405677560953
  H   -1.27486663739315     -1.44616851705580     -1.03120529494445
  H   -0.81843757065508     -1.62800375441754      0.68877153572928
  N   -0.91552085842983      1.04807433869932      1.28588536943728
  O   -0.15452470763587      1.98144932804432      1.53557064698563
  O   -1.81256648079786      0.64895079012258      2.01838301474197
  N   0.97626601594252     -0.39739967575263     -1.60178774941205
  H   1.81518175586211     -0.09682719110655     -2.07839682306090
  H   1.05330011494580     -1.38500796773667     -1.38896668516883
  N   1.46522018544155     -0.25606776965358      0.75309792180516
  H   1.56486408903989      0.41730893336027      1.50415854076363
  H   2.39627572125856     -0.52554448686712      0.45886573763660
