17
Coordinates from ORCA-job run
  C   -0.74882287871955      0.09461523288098     -0.24156645466657
  C   0.73991002955768     -0.25819979700245     -0.46657833020870
  Br  -1.55096229446923      0.51116849223780     -1.96720993540517
  H   0.73389806381885     -1.00937313243810     -1.26965331168438
  C   -1.54479825509080     -1.00561017201567      0.42465982944148
  H   -1.49606245351944     -1.90404827873817     -0.19213460391833
  H   -2.58877052039261     -0.70544985344557      0.53055077485296
  H   -1.11046807643059     -1.22444688211627      1.39675883867652
  N   -0.78248377203862      1.34098546922325      0.64146882029834
  O   -0.42391861392371      1.12737629018843      1.79784864156548
  O   -1.10880270376199      2.42265889089647      0.18198763588126
  N   1.28682724756843     -0.90803187357296      0.70102165449562
  H   2.15251586118391     -1.37432554294743      0.46072217149729
  H   1.47293618826485     -0.21391918353768      1.41577950232259
  N   1.45403358984672      0.96789035762497     -0.80189821328611
  H   1.08477614741357      1.38770726207506     -1.64825256905708
  H   2.43019244069254      0.75000272068735     -0.96150445080520
