17
Coordinates from ORCA-job run
  C   -0.61845602699581      0.22296533782160      0.08110568917221
  C   0.83749728658033     -0.22558176129510     -0.19968973880673
  Br  -0.99733576401267      1.88248349884557     -0.85532960704054
  H   0.93967428000523     -1.17234587075387      0.33935470672768
  C   -1.65671465478629     -0.81873977390719     -0.27883892260220
  H   -2.65660913022286     -0.47987988981565     -0.00100639245103
  H   -1.42945088164038     -1.74501496958966      0.25155231482484
  H   -1.61269174558404     -1.00193447672704     -1.35011009531060
  N   -0.68583729955379      0.46960138668184      1.58666332803704
  O   -0.90850181544008      1.58490296760191      2.03429282426947
  O   -0.46356011732989     -0.53997832023627      2.25431265704747
  N   1.86630031955971      0.65898633671100      0.30920664859428
  H   1.70359440903390      1.61691513135133      0.02009474951123
  H   1.92562258925626      0.62706208893501      1.31967919857312
  N   0.95450249158372     -0.51126455162940     -1.61250598277021
  H   0.93558914325545      0.35743408344322     -2.13613648868846
  H   1.86637691629120     -0.92761121743730     -1.76264488908755
