17
Coordinates from ORCA-job run
  C   -0.66203279927090      0.36903908037286     -0.05502755497300
  C   0.86941422286972      0.36578272064569     -0.29076421882486
  Br  -1.54206097113503      1.36867412509521     -1.48158648793677
  H   1.17133992336678      1.41415624426585     -0.30673291872870
  C   -1.28556067817618     -0.99944736222821      0.06250299337239
  H   -1.12363054946760     -1.55558411236307     -0.86217906874175
  H   -2.35784478975938     -0.92238654310435      0.23224672563495
  H   -0.84776407838776     -1.53251048145933      0.90726416354394
  N   -0.89539317677371      1.16938335216838      1.22152431259044
  O   -1.58216768856665      0.65281184091709      2.09548474785659
  O   -0.36367228901695      2.27069103414970      1.28195147970415
  N   1.32051010112736     -0.23999197942000     -1.52650248051627
  H   0.99084371952767      0.27873030526216     -2.33123017305987
  H   0.99513425351646     -1.19619384636990     -1.60918273953535
  N   1.44245171234542     -0.24863347984347      0.89218704421772
  H   2.40201797157885      0.06007617960430      0.98777623714587
  H   1.46841511622190     -1.25659707769289      0.78326793825051
