17
Coordinates from ORCA-job run
  C   -0.66180073083627      0.14398579067689     -0.13724821908677
  C   0.88965689157050      0.00381342685683      0.00056768688741
  Br  -1.19693883888691      0.37443365416537     -1.98361323921521
  H   1.06920370719457      0.14834610635017      1.08074199816641
  C   -1.40961395160551     -1.02803446288205      0.45876538264253
  H   -1.05931761248958     -1.22438760772267      1.47437446089739
  H   -1.23919757951612     -1.90120881908980     -0.16935315376459
  H   -2.47948136649296     -0.82522940028448      0.50036690370730
  N   -1.01050273684179      1.41698437033856      0.62033139015593
  O   -0.71375817174940      2.49164814207598      0.10782985178336
  O   -1.47212152214735      1.27156191305345      1.75072537202332
  N   1.70329127393456      0.96040469988478     -0.69906157360310
  H   1.49829897593915      1.90424847161646     -0.39805723535375
  H   1.50548775754226      0.89822374651281     -1.69198998871226
  N   1.26522763851090     -1.30824242757273     -0.48758723837818
  H   1.03975482265328     -2.02892437034954      0.18603627742682
  H   2.27081144322068     -1.29862323363003     -0.61182867557661
