17
Coordinates from ORCA-job run
  C   -0.65109917820239      0.13746312455354     -0.10098117510966
  C   0.88853555314076     -0.09615608901378     -0.09529716889961
  Br  -1.33610913908488      0.18807829156679     -1.90509048134062
  H   1.14068104066038     -0.22975245462888      0.96597715194949
  C   -1.40651142269038     -0.90186327944122      0.70629503160440
  H   -1.01772427124856     -0.92621659561700      1.72637178715365
  H   -1.28868393795042     -1.88241165562162      0.24465713001561
  H   -2.47157230050068     -0.66576490224329      0.73278539512715
  N   -0.88766778255850      1.48445504403610      0.57698627853259
  O   -0.37441035761884      1.56122344368503      1.69521191050130
  O   -1.53188638258372      2.36361993773344      0.02689862112533
  N   1.54231298220111      1.03800448412073     -0.71336752447657
  H   1.55807929479066      1.83462223463882     -0.08808586984615
  H   2.49940953340050      0.76745629015243     -0.90321978910133
  N   1.32683139431570     -1.27717603343282     -0.79284551397265
  H   1.02613848448154     -2.12408201234529     -0.33086769163844
  H   0.98467648944772     -1.26949982814299     -1.74642809162447
