17
Coordinates from ORCA-job run
  C   -0.70392733093227      0.35600778865371     -0.08920588252052
  C   0.80678952253541      0.41465457031792     -0.43584686737182
  Br  -1.71974584765817      1.45473388231989     -1.32937344965304
  H   1.04237347513306      1.46498553673394     -0.61466160286518
  C   -1.28549219418976     -1.03663694041112     -0.06275335023209
  H   -2.32305058494302     -1.01676853221187      0.26511228668774
  H   -1.24097174653348     -1.44806637270378     -1.07051781797097
  H   -0.73008257850526     -1.67550961007889      0.62821102449751
  N   -0.84549259346977      1.02151703240863      1.27186971515841
  O   -0.34287207634899      2.13422751830212      1.39264324952619
  O   -1.40204007435943      0.38936535940268      2.16540715613122
  N   1.00662591447047     -0.31967089033107     -1.66593042314392
  H   1.05396302221705     -1.31283815404830     -1.46360273947871
  H   1.91199601069938     -0.06142984430285     -2.03994418016625
  N   1.67230251713706     -0.03172835230974      0.64394407392753
  H   1.68007654737828      0.61980079979752      1.41838298718449
  H   1.42054801736944     -0.95164379153876      0.98526582028940
