17
Coordinates from ORCA-job run
  C   -0.68882457392780      0.06438611083136     -0.26211332450161
  C   0.81395054780605     -0.28614869915240     -0.59010439426668
  Br  -1.63294523787214      0.37761865985070     -1.93164247708968
  H   0.73628937853882     -1.11296170256790     -1.30631906880542
  C   -1.41181305854768     -1.01728034527438      0.51166874194572
  H   -1.38337617624700     -1.94367198668187     -0.06554484026497
  H   -0.93437041881284     -1.17476041939646      1.47665330829265
  H   -2.45579197214986     -0.74449310051675      0.67287843089144
  N   -0.66292768452644      1.34649559482259      0.54532118416640
  O   -0.33619718841456      1.19248047149615      1.72576496078930
  O   -0.85109717515964      2.42589902918377      0.00178678597425
  N   1.56026783092788     -0.75834677652918      0.54979688686443
  H   1.37591549960242     -0.20081361810692      1.37520233727652
  H   1.35929962312344     -1.72660862328388      0.75251853095102
  N   1.53919642473980      0.80500207021862     -1.19717500688489
  H   2.01995077063760      1.34899345071515     -0.49421372502006
  H   0.95347341028195      1.40320988439141     -1.76347833031841
