17
Coordinates from ORCA-job run
  C   -0.70048012251094      0.11062102419781     -0.20418515629906
  C   0.79644569778463     -0.23461090199310     -0.47384380100445
  Br  -1.55075771062886      0.68223893718116     -1.85934350932339
  H   0.75994015018126     -1.12782890617515     -1.11656435032071
  C   -1.47051857906460     -1.06246433557237      0.36051879821508
  H   -1.05905141799477     -1.35294568027371      1.32693350012632
  H   -2.51936426988930     -0.80784196308267      0.50683342346801
  H   -1.40515689523273     -1.89706105150927     -0.34034655142742
  N   -0.75219123739586      1.28156421350214      0.76316523814487
  O   -1.27935189639512      1.08989292881204      1.85271974440393
  O   -0.22571758872049      2.32919106101881      0.40162937573337
  N   1.39443892841814     -0.45746545435602      0.83342517552907
  H   1.17359960419445     -1.37553295141496      1.19614862099434
  H   2.39825050756380     -0.39306856142766      0.71722019023966
  N   1.61083016928064      0.73964559056685     -1.14968297918885
  H   1.50594024707217      1.64196141887322     -0.70078990302025
  H   1.32514441333757      0.83370463165288     -2.11483781627052
