17
Coordinates from ORCA-job run
  C   -0.71561348580316      0.06697029313153     -0.27921346831674
  C   0.77111719752232     -0.34738512100451     -0.50782125352568
  Br  -1.51264786848341      0.43345055990558     -2.01332971436096
  H   0.72625081813085     -1.08827993919579     -1.31164820836306
  C   -1.54991860575009     -0.96465809750049      0.45035430192849
  H   -1.13383058191882     -1.13862228379558      1.43984743300448
  H   -1.51612355620286     -1.90171132675390     -0.10661887406856
  H   -2.58737788758130     -0.63342609752688      0.52607276157514
  N   -0.69337047835775      1.35379308772109      0.53644250032261
  O   -0.24654638827876      1.20487731157179      1.67587336569620
  O   -1.03773100348196      2.41942957611587      0.04836660967125
  N   1.27811160498841     -1.02106954209786      0.66789547940666
  H   2.22509528819357     -1.31685406106388      0.46057402242564
  H   1.31633858530969     -0.37588022000532      1.44881286643173
  N   1.63927968589048      0.72215271272200     -0.96470814387419
  H   1.74056023145590      1.43875628287394     -0.25471359155122
  H   1.29440644436688      1.14945686490241     -1.81618608640176
