17
Coordinates from ORCA-job run
  C   -0.60890712496885      0.39553749968071     -0.07697253338235
  C   0.92486995955326      0.35785810505850     -0.39436122188707
  Br  -1.51500676422922      1.53191285440509     -1.38040678268987
  H   1.23406043673665      1.40175653550180     -0.48777433482803
  C   -1.28789417029763     -0.95169862730511     -0.04217332944820
  H   -2.33366328559280     -0.84994492764293      0.24364216784014
  H   -1.23742683447162     -1.40379258633933     -1.03199902031725
  H   -0.80727863224035     -1.60903693660094      0.68453585927223
  N   -0.73074038828899      1.09412936458756      1.26424959755148
  O   -1.23160086325864      0.46073283892929      2.19085316062384
  O   -0.23977771880611      2.21523085501944      1.34864848616733
  N   1.23786674905355     -0.33321495368144     -1.62298345927314
  H   1.21207972289157     -1.33624386874064     -1.49318779665788
  H   0.61113003441186     -0.06991830488639     -2.37241289096532
  N   1.68397058954194     -0.22430175187150      0.68638873632379
  H   1.79399058166080      0.41679614302263      1.45874052913721
  H   1.29432770830458     -1.09480223913676      1.02321283253306
