17
Coordinates from ORCA-job run
  C   -0.70801560732396      0.10571679282270     -0.23325307981864
  C   0.79062839250270     -0.21026420753836     -0.53695682329165
  Br  -1.60792145811880      0.49645716801066     -1.91452269873451
  H   0.75274989242619     -0.96860668921586     -1.33505686168460
  C   -1.43920242860606     -1.02399199223607      0.46058290063742
  H   -1.37764494152820     -1.92479140532612     -0.15328771415566
  H   -2.49157951865453     -0.77163351106279      0.59831171427792
  H   -0.99115840618556     -1.21147377720666      1.43501894164956
  N   -0.73267927213442      1.34035761611702      0.65470563329842
  O   -1.06034595782378      2.42576734954860      0.20620925631050
  O   -0.34813576184471      1.12212118197772      1.80419234742559
  N   1.54977553119493     -0.77424765875247      0.54840043231690
  H   1.49217136394029     -0.17625231297478      1.36408825118380
  H   1.23709677931904     -1.70577688201030      0.78463449945054
  N   1.44619784314360      1.02737726279355     -0.89835179166100
  H   2.42917265724347      0.83133366803319     -1.03761219710138
  H   1.05989089244981      1.41890739701997     -1.74810281010321
