15

C	0.0	0.0	0.0
C	-0.309608	0.028478	-1.501291
F	1.369152	0.0	0.0
H	-1.336126	0.345194	-1.647273
H	0.371004	0.786617	-1.898221
N	-0.529325	1.217322	0.686114
O	-0.516384	1.207007	1.929367
O	-0.540238	2.255533	-0.008947
C	-0.41468	-1.193746	0.740984
N	-0.625708	-2.205823	1.303234
C	-0.033329	-1.321871	-2.144715
H	-0.177428	-1.270376	-3.225083
H	0.992997	-1.635914	-1.963471
H	-0.699328	-2.087672	-1.747804
H	-2.26881	0.0	0.0
