15

C	0.0	0.0	0.0
C	-0.214902	-0.067931	-1.540704
F	1.359022	0.0	0.0
H	0.444826	0.724794	-1.90391
H	0.254364	-1.01743	-1.826877
N	-0.540726	1.237672	0.598801
O	-0.578258	1.290593	1.847552
O	-0.502065	2.253945	-0.136503
C	-0.502853	-1.155355	0.741848
N	-0.573121	-2.200405	1.289642
C	-1.557035	0.074593	-2.237162
H	-1.365344	0.110514	-3.320838
H	-2.042699	1.000147	-1.932856
H	-2.23089	-0.753778	-2.024503
H	-2.056663	0.0	0.0
