15

C	0.0	0.0	0.0
C	-0.312136	0.090212	-1.50115
F	1.36921	0.0	0.0
H	-1.335475	0.417827	-1.638973
H	0.366751	0.848044	-1.902303
N	-0.336467	1.301813	0.717731
O	-0.345919	2.33091	0.041563
O	-0.363992	1.265684	1.946303
C	-0.688763	-1.091915	0.679904
N	-0.623047	-2.146981	1.23509
C	-0.069831	-1.262047	-2.161066
H	-0.782062	-2.001498	-1.786294
H	-0.193414	-1.18289	-3.245622
H	0.9404	-1.628392	-1.958943
H	-2.235984	0.0	0.0
