15

C	0.0	0.0	0.0
C	-0.304588	0.143026	-1.501583
F	1.355587	0.0	0.0
H	-1.330023	0.462806	-1.641732
H	0.366394	0.920795	-1.872828
N	-0.32258	1.302758	0.744465
O	-0.494586	1.239955	1.958564
O	-0.200621	2.350242	0.107111
C	-0.780766	-1.069766	0.630816
N	-0.709986	-2.134391	1.175701
C	-0.043002	-1.183456	-2.205326
H	0.970879	-1.539785	-2.016576
H	-0.741493	-1.943719	-1.85422
H	-0.169626	-1.071884	-3.286015
H	-2.204578	0.0	0.0
