15

C	0.0	0.0	0.0
C	-0.340491	0.066844	-1.493244
F	1.355718	0.0	0.0
H	-1.350587	0.43892	-1.609213
H	0.368994	0.782286	-1.920472
N	-0.379093	1.277811	0.721439
O	-0.386117	1.238812	1.95375
O	-0.377712	2.31078	0.044081
C	-0.555128	-1.136794	0.724549
N	-0.501022	-2.186854	1.278127
C	-0.184581	-1.306389	-2.133049
H	-0.944219	-1.988529	-1.744173
H	0.800849	-1.735192	-1.929423
H	-0.308965	-1.23379	-3.218496
H	-2.28595	0.0	0.0
