15

C	0.0	0.0	0.0
C	-0.355764	-0.141174	-1.492052
F	1.355445	0.0	0.0
H	0.390263	-0.864969	-1.849964
H	-1.345198	-0.58031	-1.547122
N	-0.332481	1.289366	0.732864
O	-0.226711	2.343598	0.105712
O	-0.465331	1.214328	1.95244
C	-0.597733	-1.105339	0.759495
N	-0.553735	-2.148403	1.325968
C	-0.307433	1.10191	-2.369392
H	-0.42858	0.791437	-3.413202
H	-1.118059	1.781389	-2.110531
H	0.636236	1.642154	-2.277815
H	-2.295895	0.0	0.0
