15

C	0.0	0.0	0.0
C	-0.358967	0.123107	-1.502253
F	1.375413	0.0	0.0
H	-1.266029	0.705296	-1.592917
H	-0.607957	-0.888372	-1.838149
N	-0.330209	1.276347	0.760564
O	-0.34313	1.205013	1.988172
O	-0.340838	2.328091	0.117317
C	-0.665599	-1.115183	0.658436
N	-0.630873	-2.178197	1.198007
C	0.754539	0.715168	-2.365862
H	1.033684	1.705383	-2.005938
H	1.647211	0.089349	-2.385765
H	0.388202	0.819087	-3.391894
H	-2.195255	0.0	0.0
