15
Coordinates from ORCA-job run
  C   0.75384196868629     -0.16452350458035      0.39432564076605
  C   -0.55216954649569      0.26897464827845     -0.29311937960555
  H   0.55821725459814     -0.62669946194979      1.36444159946782
  H   -0.27389284373943      0.80775921372418     -1.20474262078978
  N   1.58969448120529      1.06588192002398      0.68276422484226
  O   1.85828335010667      1.28244298048965      1.85805372050795
  O   1.90083775956916      1.74258353583743     -0.28994986277401
  C   1.52396863469971     -1.06183622363762     -0.45997844669053
  N   2.11551901288149     -1.79944758248976     -1.15672346636491
  C   -1.25723368618787      1.19888822807426      0.59231351085997
  N   -1.83352037141205      1.92408238833374      1.31436279653296
  C   -1.43003348033946     -0.93835628878819     -0.63483461796266
  H   -2.36016882673747     -0.60081098107606     -1.09349749984766
  H   -0.91520795123605     -1.59366249239027     -1.33920812528446
  H   -1.67813575559870     -1.50527637984965      0.26479252634256
