15
Coordinates from ORCA-job run
  C   0.97574252001486     -0.10011883358866     -0.23825431626730
  C   -0.51227052200430     -0.40222755477403     -0.51229750309437
  H   1.60267461298209     -0.55668380068194     -1.00886202832629
  H   -0.59752274951817     -1.49260114620159     -0.56975204900395
  N   1.34312508615588     -0.80775026679646      1.05219299729317
  O   1.61543205666008     -0.12936455488451      2.03398978889869
  O   1.29305567953167     -2.03103100159422      0.99015616195240
  C   1.24640865787054      1.32746619971020     -0.13579902025241
  N   1.43730095731950      2.48554701811611     -0.09505300494286
  C   -0.85943863783133      0.15318809465925     -1.82089828322339
  N   -1.14180583627423      0.60786712167899     -2.86625217115550
  C   -1.42666821339811      0.13927501956672      0.58855294251756
  H   -1.32247204951552      1.22149213623461      0.68460294876328
  H   -1.18838481234675     -0.32603094952378      1.54686860857525
  H   -2.46617674964621     -0.08902748192067      0.34980492826572
