15
Coordinates from ORCA-job run
  C   0.94921593338168     -0.32387422736768     -0.11881813120023
  C   -0.57067761352055     -0.59157042115361     -0.11068386951350
  H   1.49220476104488     -1.23149814916906     -0.39589606477454
  H   -0.72961335584992     -1.43387063020347      0.57098766668943
  N   1.35653365463259     -0.02824077245179      1.31164152472419
  O   1.73911595532361      1.10068031035494      1.58947888159429
  O   1.22179920106506     -0.97290023240908      2.08120595250032
  C   1.31504169987999      0.78029132623961     -0.99605030924963
  N   1.57948042358143      1.64990371149116     -1.73972092055629
  C   -0.96905048388635     -1.00936657524036     -1.45543969879082
  N   -1.29157577158529     -1.33418774869185     -2.53694954488199
  C   -1.37014364134996      0.62472418691753      0.36062485355870
  H   -2.43638719439714      0.39617009316327      0.34080410870879
  H   -1.09841224512852      0.88754615229249      1.38468707238152
  H   -1.18853132319153      1.48519297622789     -0.28587152119025
