15
Coordinates from ORCA-job run
  C   0.97981846035633     -0.23944632416177     -0.03523197378316
  C   -0.50643650746469     -0.65315052175173     -0.05355530496069
  H   1.61830234325278     -1.11715526741602     -0.16690281095840
  H   -0.62272526506194     -1.40935889075393      0.73005527829060
  N   1.28147950640398      0.27445701930832      1.35947428812558
  O   1.53938404504727      1.46256569915583      1.50164415251385
  O   1.19792807015775     -0.57403263682145      2.24039506967358
  C   1.28991025112412      0.77429171924419     -1.03433933210719
  N   1.51441950775038      1.56275217922170     -1.87531638803418
  C   -0.79163272273044     -1.28316355367757     -1.34310235957957
  N   -1.02312988745177     -1.77946149509742     -2.38203447542736
  C   -1.44127197501834      0.52854892235714      0.21317712462604
  H   -1.25148116625922      0.95136622276929      1.20152489003120
  H   -1.30613905379471      1.30934684673682     -0.53742432548791
  H   -2.47842560631151      0.19244008088660      0.18063616707761
