15
Coordinates from ORCA-job run
  C   0.76337882650109     -0.14197799356891      0.38402453181077
  C   -0.56098337383702      0.25443460682571     -0.29113333409161
  H   0.59099437045457     -0.57136900790184      1.37341707040095
  H   -0.30759692912297      0.76671101102539     -1.22493271568615
  N   1.59152239614391      1.10599683466045      0.61245316514724
  O   1.87387926241941      1.75283456487639     -0.38887240887993
  O   1.88281975361218      1.36512499119278      1.77360716479643
  C   1.52548525437491     -1.06181144411648     -0.45306288420586
  N   2.10867792958582     -1.81802467164068     -1.13671364880972
  C   -1.25882034867956      1.20278971205119      0.58037331301017
  N   -1.82940232007139      1.93896192423105      1.29578011690147
  C   -1.43123326074305     -0.97303112946128     -0.57581547936031
  H   -1.65287430542164     -1.51406334446807      0.34651926144769
  H   -0.92359924690553     -1.64438532425137     -1.27032502384222
  H   -2.37524800831074     -0.66119072945436     -1.02431912863893
