14
Coordinates from ORCA-job run
  C   -0.74950980026802      0.62880688332228     -0.08805466898599
  C   0.67583463003305      0.61289093735751      0.42872682470842
  F   -1.46043274114995      1.57911546209745      0.65689589902763
  H   0.64952343037683      0.33471380424061      1.48757556322073
  H   -0.76650620757022      0.98164570922620     -1.12616302709003
  H   1.05607442508326      1.63780609775059      0.37936452957032
  C   -1.47802001060999     -0.69110840412104      0.03015720642210
  H   -1.44087944185179     -1.04880125418956      1.06196698771611
  H   -2.52407174232883     -0.56206244215327     -0.25295930961671
  H   -1.03760516591447     -1.44773090448573     -0.62167427010010
  C   1.58857070631074     -0.32691913942566     -0.35364601219515
  H   2.62430232797235     -0.22283060306514     -0.02457505742394
  H   1.55875196676720     -0.10523538913230     -1.42424838304124
  H   1.30496762314985     -1.37229075742195     -0.21836628221214
