11
Coordinates from ORCA-job run
  C   0.56874145240777     -0.11818011562397     -0.26053986351221
  C   -0.72100835309235     -0.33372988117122      0.56425903169396
  Br  0.49296514082249     -1.19968316904224     -1.89355726427322
  H   -0.80403913062773     -1.39637614540788      0.80698342804722
  H   -0.62760762954339      0.22752723781504      1.49997822383678
  C   1.71907203662260     -0.55573642038790      0.52893378293986
  N   2.61463520918589     -0.91700401040317      1.19941011381664
  C   0.71609706076882      1.28631036990211     -0.63700733903783
  N   0.81252206818566      2.42431267213333     -0.91603768627834
  C   -1.90709562441069      0.11049406055743     -0.16000202665864
  N   -2.86428223031907      0.47406540162846     -0.73342040057422
