18

C	0.0	0.0	0.0
C	-0.602853	-0.049128	-1.417305
Cl	1.790438	0.0	0.0
H	-1.699405	0.087712	-1.197818
N	-0.504309	1.132401	0.735136
H	-1.526327	0.957197	0.702196
H	-0.325047	1.974538	0.200276
C	-0.446901	-1.257732	0.74292
H	0.015212	-2.154199	0.331684
H	-1.538	-1.279966	0.67538
H	-0.137684	-1.135254	1.782455
N	-0.453185	-1.334853	-2.165345
O	0.565602	-2.004914	-2.024944
O	-1.39076	-1.621401	-2.907562
N	-0.065644	1.002592	-2.32442
O	-0.237715	2.167404	-1.973764
O	0.513457	0.661856	-3.353947
F	-2.869833	0.0	0.0
