17

C	0.0	0.0	0.0
C	-0.462173	-0.048694	-1.446411
F	1.428639	0.0	0.0
H	-0.023925	-0.944457	-1.902162
H	-1.550861	-0.165006	-1.416028
N	-0.432092	1.204055	0.628207
H	0.0562	1.997609	0.234766
H	-0.26211	1.170168	1.624565
C	-0.480471	-1.19747	0.784177
H	-0.085629	-1.159017	1.804414
H	-0.12999	-2.119656	0.315587
H	-1.573666	-1.177626	0.806626
C	-0.086771	1.188669	-2.254391
H	0.982889	1.402736	-2.17847
H	-0.653895	2.055768	-1.910711
H	-0.328431	1.042694	-3.310232
Cl	-4.131327	0.0	0.0
