17

C	0.0	0.0	0.0
C	-0.39668	-0.25395	-1.446437
F	1.425986	0.0	0.0
H	0.014996	-1.229164	-1.72816
H	0.139623	0.488778	-2.051375
N	-0.464824	1.275492	0.42455
H	-0.091036	2.005319	-0.168717
H	-0.202634	1.456608	1.384008
C	-0.456894	-1.069503	0.964751
H	-1.544871	-1.073395	1.025439
H	-0.044408	-0.869374	1.957894
H	-0.10031	-2.047669	0.637595
C	-1.895865	-0.182203	-1.714768
H	-2.097685	-0.364416	-2.773975
H	-2.473911	-0.902744	-1.138485
H	-2.306367	0.788798	-1.443665
Cl	-5.193867	0.0	0.0
