17

C	0.0	0.0	0.0
C	-0.430189	-0.029104	-1.456033
F	1.427698	0.0	0.0
H	-1.52024	0.064072	-1.470167
H	-0.000135	0.864953	-1.927429
N	-0.459607	1.190995	0.610612
H	-0.198225	2.007074	0.075648
H	-0.129596	1.270917	1.562206
C	-0.431454	-1.20358	0.804691
H	-1.519335	-1.290779	0.75772
H	0.05243	-2.105329	0.424624
H	-0.121231	-1.072503	1.846333
C	0.041822	-1.26947	-2.208026
H	-0.127464	-1.155211	-3.282129
H	-0.504867	-2.157505	-1.885373
H	1.109572	-1.439293	-2.048334
Cl	-4.056092	0.0	0.0
