17

C	0.0	0.0	0.0
C	-0.423048	0.062943	-1.464684
F	1.405661	0.0	0.0
H	-1.513356	0.140886	-1.468523
H	-0.015425	1.000641	-1.86679
N	-0.449275	1.137499	0.762633
H	-1.451372	1.003436	0.90984
H	-0.361895	1.967261	0.182808
C	-0.443878	-1.26661	0.701957
H	-0.148977	-1.19855	1.751803
H	-1.528895	-1.362213	0.631724
H	0.040141	-2.137734	0.257062
C	0.044623	-1.107138	-2.323242
H	-0.185427	-0.926816	-3.377679
H	1.123267	-1.253922	-2.229279
H	-0.459105	-2.032172	-2.03563
Cl	-3.78649	0.0	0.0
