17

C	0.0	0.0	0.0
C	-0.297971	0.304131	-1.473129
F	1.399626	0.0	0.0
H	0.1103	1.306716	-1.643062
H	0.337942	-0.38787	-2.036748
N	-0.470397	1.067079	0.841663
H	-0.464796	0.758036	1.808429
H	-1.446649	1.234396	0.607425
C	-0.454974	-1.377757	0.440733
H	-0.063056	-1.583079	1.442775
H	-1.54685	-1.406836	0.471881
H	-0.085234	-2.150067	-0.239095
C	-1.729148	0.213022	-1.975272
H	-2.411156	0.901283	-1.481403
H	-2.161891	-0.774407	-1.820834
H	-1.742851	0.428842	-3.049093
Cl	-4.415191	0.0	0.0
