11
Coordinates from ORCA-job run
  C   0.34999185655169      0.08404354982865     -0.63239944884554
  C   -0.99732797075504     -0.03679019607628      0.07367870281824
  Cl  0.13625924444958      1.38945227631305     -1.91439443086838
  H   -1.78938379873436     -0.19870190104483     -0.66000597123753
  H   0.56617624576629     -0.81762824013266     -1.20419201298380
  H   -1.22316401754423      0.90110582241030      0.59052359330879
  N   1.39176104575952      0.32773983517808      0.28592831021993
  H   1.26550878103730      1.19962842530749      0.78393034912407
  H   2.30166714503974      0.32098287009279     -0.15401848830324
  C   -0.99360283140840     -1.13742333991047      1.03591901944643
  N   -1.00788570016209     -2.03240910196613      1.79403037732103
