11
Coordinates from ORCA-job run
  C   0.45621305509752      0.00885495041995     -0.56611139676645
  C   -0.95450986731055     -0.29397808078947     -0.06925961569015
  Cl  0.25351960480394      0.81431893021004     -2.21062854431408
  H   -1.49501474705532      0.64460861556541      0.08743772914661
  H   0.99207453248276     -0.91379133323855     -0.78601355253515
  H   -1.50278273238004     -0.85888729204132     -0.82563973138516
  N   1.18066749186466      0.76899221789989      0.37467383931931
  H   2.14597362234701      0.89762477237624      0.10425135628395
  H   0.75573029220914      1.67149478045160      0.54483752193010
  C   -0.92327251180165     -1.05565784917168      1.17820368892230
  N   -0.90959874025747     -1.68457971168211      2.16824870508873
