11
Coordinates from ORCA-job run
  C   0.34957284149794      0.24861232496519     -0.44658761704903
  C   -0.61982441536106     -0.32831443124257      0.58110988832329
  Cl  -0.48281072664504      1.49797460803964     -1.40940758928287
  H   -1.01484917141425      0.49382872776132      1.18165420112463
  H   0.63418736062087     -0.52527914468061     -1.16884631632528
  H   -0.07322086101658     -1.00138657720168      1.25046517622887
  N   1.44842175364876      0.86845897070516      0.25933735141371
  H   2.05135297331274      1.35466577637232     -0.39326718284877
  H   1.99882411205407      0.15198180561079      0.72046415495536
  C   -1.71352672273980     -1.07338574771668     -0.03623906364762
  N   -2.57812714395765     -1.68615631261288     -0.53868300289230
