11
Coordinates from ORCA-job run
  C   0.43054803020990      0.01488540284875     -0.62768043080368
  C   -0.97068409878729     -0.34209329424952     -0.13482797212454
  Cl  0.29626877624772      0.56885874539183     -2.32173103891510
  H   -1.59263478871228      0.55466489563180     -0.18603470417025
  H   1.04649231018067     -0.89107733305395     -0.67358102130902
  H   -1.41128398586544     -1.11132888448311     -0.77269449052842
  N   0.96807639563404      1.08830298730524      0.16914541309488
  H   1.87940363645623      1.36103565872244     -0.17742372192653
  H   1.07361114538272      0.78028283042580      1.13005527574506
  C   -0.91295899131904     -0.82326266118403      1.24402557426895
  N   -0.80683842942723     -1.19926834735526      2.35074711666866
