12

C	-0.479638	-0.061763	-1.429546
C	0.0	0.0	0.0
Cl	-2.2636	-0.307422	-1.519322
H	1.093054	0.0	0.0
H	-0.0313	-0.961686	-1.857563
H	-0.347183	-0.874629	0.548009
C	-0.110648	1.060467	-2.289439
N	0.162981	1.889137	-3.074663
N	-0.49768	1.178531	0.746555
O	-0.730719	2.209677	0.120122
O	-0.613145	1.044522	1.962261
Br	3.39838	0.0	0.0
