12

C	-0.48193	-0.04646	-1.428787
C	0.0	0.0	0.0
Cl	-2.264738	-0.298229	-1.517718
H	1.093093	0.0	0.0
H	-0.031384	-0.939726	-1.868748
H	-0.344927	-0.881425	0.538877
C	-0.116364	1.087233	-2.275046
N	0.15864	1.925952	-3.048619
N	-0.499259	1.1685	0.761894
O	-0.596426	1.024093	1.977849
O	-0.752466	2.201989	0.146978
Br	3.398115	0.0	0.0
