12

C	-0.588115	-0.023437	-1.403236
C	0.0	0.0	0.0
Cl	-0.374343	1.600951	-2.126995
H	1.088341	0.0	0.0
H	-1.663533	-0.199937	-1.363341
H	-0.350051	0.875872	0.545892
C	-0.00526	-1.024192	-2.292171
N	0.406228	-1.800816	-3.068651
N	-0.465808	-1.179086	0.775501
O	-0.955945	-2.125243	0.152471
O	-0.32795	-1.129759	1.993295
Br	3.416906	0.0	0.0
