12

C	-0.587843	-0.00616	-1.403232
C	0.0	0.0	0.0
Cl	-0.387296	1.632425	-2.102981
H	1.088378	0.0	0.0
H	-1.66231	-0.192333	-1.364582
H	-0.349974	0.86785	0.558021
C	0.003519	-0.989656	-2.306567
N	0.423418	-1.756706	-3.08992
N	-0.461651	-1.191092	0.758023
O	-0.933718	-2.138304	0.122641
O	-0.329564	-1.153632	1.975986
Br	3.416295	0.0	0.0
