12

C	0.0	0.0	0.0
C	-0.634236	-0.025353	-1.366662
F	1.404289	0.0	0.0
H	-1.738406	-0.107007	-1.081636
H	-0.321259	-0.876254	0.561909
H	-0.496358	0.929851	-1.879632
N	-0.425062	1.181289	0.680457
H	0.11745	1.967371	0.344204
H	-0.302195	1.084405	1.678065
C	-0.182163	-1.12156	-2.206594
N	0.168035	-2.014609	-2.888262
H	-3.201645	0.0	0.0
