12

C	0.0	0.0	0.0
C	-0.65128	0.065728	-1.35415
F	1.407324	0.0	0.0
H	-0.395592	-0.799354	-1.970234
H	-0.322088	-0.921397	0.489276
H	-1.76554	0.024126	-1.052277
N	-0.420278	1.112189	0.784837
H	-0.169361	0.98308	1.754285
H	0.015178	1.955901	0.435643
C	-0.339614	1.291269	-2.065915
N	-0.082235	2.290309	-2.630474
H	-3.185161	0.0	0.0
