12

C	0.0	0.0	0.0
C	-0.515589	0.046979	-1.425383
F	1.391885	0.0	0.0
H	-0.182114	-0.841266	-1.970655
H	-0.288007	-0.974223	0.419995
H	-1.622059	0.01779	-1.311942
N	-0.511888	1.120592	0.717975
H	-0.304483	0.993935	1.704229
H	-1.540131	1.01	0.617467
C	-0.085802	1.239688	-2.143959
N	0.231492	2.201994	-2.737757
H	-3.045016	0.0	0.0
