14
Coordinates from ORCA-job run
  C   0.72486374294697     -0.34408936509294      0.73054506614623
  C   -0.68316689622949     -0.20932815096257      0.15257475468034
  F   0.83322223579956     -1.66281607165596      1.19974061999477
  H   -1.38037650954549     -0.74166353447974      0.80011531294301
  H   0.84313843870248      0.30162811784524      1.59991813567305
  N   1.68657642312865     -0.03071018213670     -0.25442490435254
  H   1.68565683019722     -0.74700454542970     -0.97068849531816
  H   2.61306371256710      0.04139101617125      0.14282964125986
  N   -0.75522808282391     -0.67277069029766     -1.18205908157554
  H   -0.33162047631041      0.00474986497787     -1.80385454171768
  H   -1.71201779514841     -0.81733559312690     -1.47253559078188
  N   -1.07928313316180      1.26990947801594      0.30870978538645
  O   -1.15842744780006      1.68737524925658      1.46023518505361
  O   -1.28540104232239      1.92066440691528     -0.71010588739152
