14
Coordinates from ORCA-job run
  C   0.76664106058174     -0.19535150319142      0.74185942715925
  C   -0.67694545032933     -0.14279131074813      0.24397134902443
  F   0.88049882241744     -1.37718796549698      1.48990215492769
  H   -1.33579530682313     -0.48247499453213      1.04351390780571
  H   0.96339719794926      0.62628622330238      1.42930594149508
  N   1.65918128706189     -0.14911313327625     -0.35187786806368
  H   1.60093887612205     -1.01369495995999     -0.87632234483232
  H   2.61211628296774     -0.00962127000309     -0.04584340247834
  N   -0.85629332063429     -0.90198150392005     -0.93558095095749
  H   -0.45291775303117     -0.41174473241875     -1.72413563586310
  H   -1.83496138474874     -1.06284718439435     -1.12784274501077
  N   -1.02500610134815      1.34743898731678      0.07211623241511
  O   -0.99185207054981      2.02833621137944      1.09278986636409
  O   -1.31000213963551      1.74574713594254     -1.05185593198568
