16

C	-0.066712	0.030875	-1.529701
C	0.0	0.0	0.0
Cl	-1.724737	0.557514	-2.180944
H	1.101077	0.0	0.0
H	0.005455	-0.989137	-1.927979
N	0.951105	0.928698	-1.989008
H	1.167625	0.754644	-2.962663
H	1.788976	0.718084	-1.404668
C	-0.660066	-1.215273	0.60188
H	-0.48896	-1.220728	1.679337
H	-1.743069	-1.210578	0.426932
H	-0.247577	-2.13716	0.180684
N	-0.445142	1.226867	0.652836
H	-1.353721	1.490931	0.27643
H	0.204684	1.957754	0.380499
F	2.748646	0.0	0.0
