16

C	-0.14459	0.055433	-1.502828
C	0.0	0.0	0.0
Cl	-1.89069	0.258734	-2.032547
H	1.097724	0.0	0.0
H	0.161296	-0.902013	-1.92995
N	0.666136	1.106912	-2.077975
H	1.592865	0.897858	-1.683424
H	0.372343	1.946026	-1.583947
C	-0.575917	-1.240438	0.650216
H	-0.229277	-2.14626	0.141767
H	-1.673657	-1.239155	0.635871
H	-0.242872	-1.299126	1.691567
N	-0.427785	1.262979	0.601021
H	-1.376222	1.188864	0.953699
H	0.189267	1.458371	1.380986
F	2.698232	0.0	0.0
