16

C	-0.462787	0.029681	-1.445442
C	0.0	0.0	0.0
Cl	0.138664	-1.466115	-2.359373
H	1.094016	0.0	0.0
H	0.0444	0.848046	-1.956697
N	-1.88301	0.177257	-1.58844
H	-2.341229	-0.625792	-1.173802
H	-2.139024	0.208678	-2.567575
C	-0.560989	-1.162607	0.800697
H	-0.068184	-1.156258	1.774101
H	-0.355251	-2.122501	0.320677
H	-1.641522	-1.069075	0.978905
N	-0.375623	1.2732	0.640052
H	0.406559	1.905133	0.508253
H	-1.198331	1.663574	0.192412
F	2.687589	0.0	0.0
