16

C	-0.637504	0.07736	-1.367024
C	0.0	0.0	0.0
Cl	0.125016	1.390994	-2.358016
H	1.100459	0.0	0.0
H	-1.67155	0.432756	-1.24233
N	-0.523325	-1.149024	-2.132796
H	-1.029897	-1.873825	-1.637065
H	-0.971321	-1.015591	-3.032285
C	-0.460036	-1.255232	0.7249
H	-0.028097	-2.140197	0.253288
H	-0.070024	-1.228999	1.746303
H	-1.554711	-1.343193	0.780669
N	-0.493965	1.181993	0.762464
H	-0.062449	1.985922	0.310897
H	-0.008338	1.128763	1.656011
F	2.697772	0.0	0.0
