16

C	-0.117218	-0.48739	-1.45201
C	0.0	0.0	0.0
Cl	-0.440993	1.123214	-2.704059
H	1.104399	0.0	0.0
H	-1.027916	-1.00215	-1.759686
N	1.047042	-1.124042	-1.752128
H	1.90146	-0.741334	-1.26575
H	1.150832	-1.506912	-2.67675
C	-0.516241	-1.101632	0.914151
H	-0.309582	-0.839799	1.957735
H	-1.599899	-1.225623	0.804003
H	-0.005789	-2.042983	0.698467
N	-0.679576	1.256238	0.3188
H	-0.210052	1.621187	1.141667
H	-0.477131	1.90925	-0.429078
F	2.807403	0.0	0.0
