16

C	-0.039005	0.012118	-1.525781
C	0.0	0.0	0.0
Cl	-1.693457	0.435192	-2.202594
H	1.099494	0.0	0.0
H	0.150361	-1.000368	-1.890053
N	0.959287	0.888851	-2.106244
H	0.730177	1.833955	-1.811366
H	1.813637	0.638379	-1.567667
C	-0.669033	-1.200065	0.627116
H	-0.303249	-2.130898	0.181892
H	-0.448048	-1.219303	1.697226
H	-1.759359	-1.161475	0.503434
N	-0.427431	1.245055	0.636134
H	0.341234	1.902728	0.590595
H	-1.22375	1.641915	0.146616
F	2.731903	0.0	0.0
