16

C	-0.42881	0.051331	-1.463012
C	0.0	0.0	0.0
Cl	0.055165	-1.470069	-2.313929
H	1.095227	0.0	0.0
H	0.151254	0.839823	-1.947406
N	-1.837823	0.270541	-1.768588
H	-2.395059	-0.353089	-1.19411
H	-2.080074	1.223534	-1.523905
C	-0.599864	-1.143785	0.794911
H	-0.178771	-1.102182	1.800452
H	-0.355456	-2.113396	0.356887
H	-1.692726	-1.06334	0.89358
N	-0.319171	1.281337	0.661911
H	-1.135315	1.736699	0.268929
H	0.486893	1.882028	0.530988
F	2.680619	0.0	0.0
