14

C	0.0	0.0	0.0
C	-0.555982	0.137189	-1.413982
F	1.372818	0.0	0.0
H	-1.602772	0.462124	-1.262028
H	-0.30106	-0.989856	0.369566
N	-0.483956	1.099165	0.780748
H	-0.217619	0.945393	1.747945
H	-1.511019	0.996178	0.730606
N	-0.513127	-1.171223	-2.094505
H	-0.705151	-1.019925	-3.07968
H	-1.326984	-1.66271	-1.726601
C	0.184388	1.139362	-2.173777
N	0.733724	1.94144	-2.832985
H	-3.035744	0.0	0.0
