14

C	0.0	0.0	0.0
C	-0.505123	-0.04073	-1.435513
F	1.390989	0.0	0.0
H	-1.607445	0.034776	-1.313826
H	-0.291467	-0.952128	0.46886
N	-0.506337	1.162726	0.648203
H	-1.535542	1.040092	0.568934
H	-0.280897	1.106837	1.636304
N	-0.186308	-1.280567	-2.14481
H	0.753729	-1.565491	-1.890183
H	-0.829192	-1.988307	-1.805975
C	0.000202	1.106031	-2.194263
N	0.408142	1.996819	-2.841562
H	-3.005045	0.0	0.0
