14

C	0.0	0.0	0.0
C	-0.344095	0.162006	-1.499689
F	1.386521	0.0	0.0
H	0.433548	0.845181	-1.865055
H	-0.302525	-0.984698	0.371083
N	-0.489348	1.104576	0.756332
H	-1.485049	1.188826	0.541105
H	-0.431815	0.863779	1.738703
N	-1.648036	0.726944	-1.758965
H	-1.922415	0.546642	-2.717572
H	-2.388896	0.326624	-1.114491
C	-0.077014	-1.140142	-2.159921
N	0.116712	-2.152487	-2.727036
H	-3.383512	0.0	0.0
