14

C	0.0	0.0	0.0
C	-0.491307	0.061806	-1.430805
F	1.395573	0.0	0.0
H	-1.594882	-0.018904	-1.312061
H	-0.286939	-0.987389	0.383992
N	-0.524629	1.106896	0.727614
H	-1.553394	0.979947	0.613823
H	-0.330453	0.957314	1.713514
N	0.035473	-1.075026	-2.184975
H	1.034927	-0.950051	-2.302182
H	-0.385241	-1.086978	-3.106163
C	-0.157893	1.354597	-2.053151
N	0.086757	2.328034	-2.665521
H	-3.022774	0.0	0.0
