14

C	0.0	0.0	0.0
C	-0.302981	-0.29737	-1.493211
F	1.398593	0.0	0.0
H	0.319743	0.442763	-2.010563
H	-0.298611	-0.83281	0.647787
N	-0.536698	1.270531	0.362122
H	-1.555764	1.147019	0.263365
H	-0.377315	1.408898	1.35546
N	-1.661217	-0.231168	-1.989493
H	-1.820886	0.707418	-2.336277
H	-2.350762	-0.327114	-1.204149
C	0.293999	-1.613725	-1.815928
N	0.763115	-2.65612	-2.086168
H	-3.30232	0.0	0.0
