14

C	0.0	0.0	0.0
C	-0.318426	-0.331663	-1.485658
F	1.398664	0.0	0.0
H	0.41276	0.281885	-2.026358
H	-0.298741	-0.810908	0.674149
N	-0.528055	1.283224	0.327921
H	-0.342763	1.461754	1.311331
H	-1.548223	1.159461	0.249398
N	-1.636916	-0.076169	-2.027369
H	-1.681781	0.913529	-2.246325
H	-2.357974	-0.208075	-1.27705
C	0.076486	-1.734097	-1.732205
N	0.39705	-2.847943	-1.923497
H	-3.266756	0.0	0.0
