14

C	-0.344272	-0.019666	-1.494159
C	0.0	0.0	0.0
Cl	0.05832	1.607863	-2.162418
H	1.091501	0.0	0.0
C	0.449812	-1.001884	-2.248562
N	0.994303	-1.743374	-2.980022
C	-1.772839	-0.252641	-1.724939
N	-2.923291	-0.385194	-1.930097
N	-0.388373	-1.227716	0.644427
O	-0.377099	-1.251051	1.881229
O	-0.545803	-2.222091	-0.089614
C	-0.506335	1.146042	0.707099
N	-0.86056	2.101416	1.296206
H	2.314701	0.0	0.0
