14

C	-0.404794	-0.019668	-1.477301
C	0.0	0.0	0.0
Cl	-0.050502	1.60671	-2.164446
H	1.09643	0.0	0.0
C	0.369391	-0.992769	-2.264231
N	0.934958	-1.704207	-3.009664
C	-1.840472	-0.268834	-1.638172
N	-3.001439	-0.414775	-1.752922
N	-0.356476	-1.231454	0.655071
O	-0.277689	-1.257418	1.890947
O	-0.540858	-2.224216	-0.074738
C	-0.496476	1.140068	0.724441
N	-0.881448	2.090405	1.30252
H	2.312373	0.0	0.0
