14

C	-0.342211	-0.020986	-1.494432
C	0.0	0.0	0.0
Cl	0.020897	1.614127	-2.156663
H	1.093322	0.0	0.0
C	0.478966	-0.979756	-2.25329
N	1.059009	-1.696885	-2.981939
C	-1.761731	-0.292931	-1.731533
N	-2.905743	-0.487026	-1.919982
N	-0.370297	-1.234038	0.640134
O	-0.500968	-2.230143	-0.096824
O	-0.355546	-1.259218	1.878649
C	-0.507409	1.141501	0.711429
N	-0.857109	2.104707	1.291341
H	2.305108	0.0	0.0
