14

C	-0.437995	-0.010935	-1.463799
C	0.0	0.0	0.0
Cl	0.600446	-1.095623	-2.47622
H	1.096495	0.0	0.0
C	-1.83592	-0.419937	-1.633191
N	-2.971714	-0.674123	-1.80128
C	-0.283381	1.338543	-2.02172
N	-0.181485	2.420852	-2.469415
N	-0.37859	-1.20071	0.70784
O	-0.256882	-1.169467	1.941359
O	-0.626723	-2.216971	0.037609
C	-0.434357	1.176702	0.707881
N	-0.723047	2.174365	1.263207
H	2.300132	0.0	0.0
