14

C	-0.406707	-0.008757	-1.465897
C	0.0	0.0	0.0
Cl	-2.190808	-0.276162	-1.6682
H	1.096478	0.0	0.0
C	-0.108678	1.306419	-2.046202
N	0.108214	2.365445	-2.507526
C	0.292956	-1.019892	-2.27017
N	0.803536	-1.744196	-3.042365
N	-0.346557	-1.223075	0.680919
O	-0.323062	-2.261745	0.001723
O	-0.471474	-1.177549	1.913425
C	-0.498152	1.159643	0.694194
N	-0.848628	2.147404	1.230488
H	2.321676	0.0	0.0
