16
Coordinates from ORCA-job run
  C   0.36323107067954     -0.48726475114552      0.47958788469635
  C   -0.81073005281328      0.37456097501823      0.01340750402641
  F   -0.03514198679817     -1.29952087485984      1.51070907201540
  H   -1.17340515318165      0.93260100849541      0.88254289084472
  N   1.44189043197395      0.39868776307490      1.16713132670901
  O   1.12211415547071      1.52963544978022      1.52833172165258
  O   2.54118368841819     -0.12184667041248      1.32597803645070
  N   0.89366844681468     -1.24854649937457     -0.56047556561443
  H   1.02827399965840     -0.64825314087732     -1.36619458614192
  H   1.75114601727089     -1.71138512439965     -0.28806041592829
  N   -1.89917552593367     -0.43198765022984     -0.49272526275061
  H   -1.52433792818984     -1.15827731517059     -1.09346736713142
  H   -2.37417454853772     -0.88615708355317      0.27675100069002
  N   -0.32066846684361      1.21440211336073     -1.07091742002126
  H   -1.12486338469367      1.49660651900092     -1.61791149324419
  H   0.12098923670524      2.04474528129259     -0.69468732625307
