16
Coordinates from ORCA-job run
  C   0.34876457704325     -0.50773649050307      0.46833166662961
  C   -0.80566920384591      0.38574080481480      0.01334633215780
  F   -0.07704092862674     -1.34813033481798      1.46543789693420
  H   -1.17443779304032      0.91949090290891      0.89509318545971
  N   1.42862694605089      0.33921177530882      1.20161980298701
  O   2.51779014207417     -0.20233461408668      1.36005799803988
  O   1.11900161501780      1.46215028046509      1.59518104720054
  N   0.88498059368889     -1.24169222035445     -0.58841329544351
  H   1.04095191126022     -0.61654599114531     -1.37109527467106
  H   1.73166745554551     -1.72522802620974     -0.31812062979756
  N   -1.89695097651008     -0.38832375789361     -0.53614439813631
  H   -2.39005604315508     -0.86065631137124      0.21069706581417
  H   -1.52188431514887     -1.09993985532279     -1.15412391916543
  N   -0.28703307248457      1.25414061504729     -1.03447388612705
  H   -1.07821037183015      1.56551546261727     -1.58458991256186
  H   0.15949946396098      2.06533776054270     -0.62380367932014
