16
Coordinates from ORCA-job run
  C   0.57540444456853     -0.46300046929406      0.20955053370281
  C   -0.50741200575993      0.49286421180849     -0.29542489462129
  F   0.05296321739477     -1.73945350657716      0.27412861387397
  H   -0.04807658551809      1.48793780673870     -0.32721689021932
  N   0.99572315780349     -0.15616292416582      1.64152120081789
  O   0.64264813431366      0.91275994395985      2.13404029566274
  O   1.71260690072154     -0.99412328640702      2.17349185506647
  N   1.73780111046406     -0.36670831829801     -0.56157912088881
  H   2.39671219229282     -1.09660440235133     -0.32149712684253
  H   1.47919520751641     -0.39890299887670     -1.54030226011160
  N   -1.69239602852333      0.40136754024716      0.54237274208134
  H   -2.44201685074982      0.91711027989195      0.09792062958608
  H   -1.51359475897802      0.82888993026933      1.44301387846633
  N   -0.77247073160709      0.08033013590111     -1.66112206828044
  H   -1.23137123555433      0.82173519038873     -2.17358594872647
  H   -1.38471616838468     -0.72803913323520     -1.63631143956717
