16
Coordinates from ORCA-job run
  C   0.53797920440838     -0.41588820484674      0.42857067809792
  C   -0.75697799576624      0.30963982747832      0.09662620691804
  F   0.24230991295844     -1.39161165670023      1.39253178615294
  H   -1.16859339076762      0.68533880779855      1.03841726518429
  N   1.48327545716997      0.51556737464646      1.17012053823235
  O   2.66646028751340      0.50166328197722      0.84946693237264
  O   0.98596279287209      1.16308806538361      2.08252809366107
  N   1.15265459580014     -0.90789720579480     -0.71404209253398
  H   2.05154888327170     -1.33150460675086     -0.53670054797337
  H   0.51093182151979     -1.51166230012755     -1.21033852088012
  N   -1.61334839588511     -0.68634319432110     -0.56307135254134
  H   -2.41364075842841     -0.21352382232714     -0.96546480787656
  H   -1.95879820246511     -1.34693592256935      0.12549246215634
  N   -0.42089173266293      1.43505566943874     -0.72797032179594
  H   -1.19934317364363      2.07109373035801     -0.83150717176620
  H   -0.09852930589485      1.12192015635684     -1.63465914740809
