16
Coordinates from ORCA-job run
  C   0.61252432506575     -0.41069799488700      0.22789525767243
  C   -0.47791402192858      0.52911362560786     -0.26970737690619
  F   0.01493717474571     -1.64718144250370      0.45245392534698
  H   -0.03138442943243      1.52172755665735     -0.33313864436334
  N   1.09085952317456      0.06629324379292      1.59684778715523
  O   1.14798151096108     -0.75546040540630      2.50195512389304
  O   1.41395502802591      1.24436646216371      1.65348042724788
  N   1.71160417545269     -0.46682881574771     -0.62679563394106
  H   2.34129093488132     -1.22288865037798     -0.39179448514066
  H   1.38485396201246     -0.52705105873451     -1.58318103580482
  N   -1.51186306249623      0.55861778966219      0.74064928838884
  H   -1.97124468222080     -0.34043749962361      0.81373948648329
  H   -2.20076994879369      1.26989608001113      0.53748826372104
  N   -0.80975179202957      0.09736989596183     -1.62568034719959
  H   -1.38883874525195     -0.73399817329866     -1.58764002741528
  H   -1.32723995216622      0.82115938672249     -2.10757200913778
