16
Coordinates from ORCA-job run
  C   0.50824630565904     -0.33120937341934      0.44116609535930
  C   -0.86498374704500      0.19924512052841      0.02441889511459
  F   0.30034307521646     -1.27566322189143      1.45871632802058
  H   -1.36196834856106      0.55640203107006      0.93231861163449
  N   1.34410532490265      0.72295897292755      1.15031329648283
  O   0.76451664205492      1.70897893554655      1.59834673527835
  O   2.53873677445106      0.47422363206852      1.26958065788141
  N   1.23196169607524     -0.80697464751436     -0.64355661471654
  H   2.12275916210819     -1.20295616734409     -0.37814437288048
  H   0.65165086319859     -1.44419668410107     -1.17523617322124
  N   -1.53126431534041     -0.93091343843824     -0.61561634057210
  H   -1.83972693601632     -1.59785133302619      0.08140469093267
  H   -2.34103177841739     -0.56457048178220     -1.10061087144338
  N   -0.82482560041968      1.28232060575562     -0.92626668959278
  H   -0.15011810448520      1.07074499843616     -1.65229433818374
  H   -0.54940101338106      2.13846105118405     -0.46453991009394
