16
Coordinates from ORCA-job run
  C   0.56724245354525     -0.56370955992198      0.20612136336722
  C   -0.51302357928681      0.38911110549335     -0.32948956757783
  F   0.00328990376845     -1.78985361247803      0.36724289731277
  H   -0.04818399247453      1.38389721094282     -0.32766038740732
  N   0.96199113433237     -0.06673929861680      1.59508389137633
  O   1.68125194755655      0.92900030521141      1.61653472044001
  O   0.49826162401624     -0.64781218113472      2.56738072406655
  N   1.74693089039797     -0.67119377877783     -0.55887002112573
  H   1.47149837723738     -0.65945933434794     -1.53551913747184
  H   2.36061896099799      0.10910729012742     -0.36596164451367
  N   -1.71461015701738      0.30395910445115      0.48288407099052
  H   -2.18755942198128      1.19594137846580      0.52783836895629
  H   -1.54101230480823     -0.02245885628201      1.42447477161727
  N   -0.73870819098202      0.01629121253686     -1.71649887619425
  H   -1.44569321117854     -0.71100882796475     -1.72099316064449
  H   -1.10429443412341      0.80392784229526     -2.23556801319182
