16
Coordinates from ORCA-job run
  C   0.47991404959777     -0.59162520155392      0.18111695483041
  C   -0.83999136875970      0.02224566715168     -0.32034882649778
  F   0.14257989412462     -1.69337255529531      0.95039428385973
  H   -1.31622104951384     -0.79976167649957     -0.88520202988207
  N   1.16443274183788      0.37641982788638      1.13715895273439
  O   1.54981305361506      1.42666827326320      0.63479528173615
  O   1.26164484849545      0.05268188996510      2.31210868320599
  N   1.37337689143223     -0.89695617869091     -0.85715771450382
  H   0.93399778173622     -1.51856942414171     -1.52453525854519
  H   2.22236221866275     -1.32529215996465     -0.50836070782168
  N   -0.73364223086562      1.15249404651987     -1.20385229966511
  H   -0.22505235685472      1.88747870552249     -0.72535322804036
  H   -0.20311857333435      0.90483590960774     -2.02945078362641
  N   -1.57707059019153      0.45056107152113      0.84815423435179
  H   -1.79654219342820     -0.33267434954102      1.44992627640634
  H   -2.43648311655400      0.88586615424952      0.53860618145761
