18
Coordinates from ORCA-job run
  C   0.80126557417530      0.09937945182319      0.23832273894614
  C   -0.73451808788496      0.24520335014486      0.23192093773195
  Br  1.47427290535583      0.39827919029277      2.07584634776358
  H   -0.95324691536752      1.27932852572530      0.52575326314924
  C   1.45458878974390      1.16965837162130     -0.62871078105968
  H   1.20154125435788      2.17601443262046     -0.28538269087695
  H   1.10765378517346      1.03881888320595     -1.65657752621079
  H   2.54151612272544      1.06468594225450     -0.60635122277603
  N   1.13464270530763     -1.25694482582673     -0.13011008381605
  H   2.14130759954576     -1.36779876690008     -0.17621190677505
  H   0.74952772722906     -1.40135446961501     -1.05987822720148
  C   -1.44894144625804     -0.71135619673304      1.17563394280125
  H   -1.18797481691125     -1.74098581687305      0.92398439241317
  H   -1.17358447196762     -0.53814409017717      2.21451264109102
  H   -2.52999156587367     -0.57725141170295      1.07914789562997
  N   -1.15749624509177      0.00559119661949     -1.16051098792037
  H   -1.55830441991431      0.83850433513754     -1.56894717566867
  H   -1.86025849434511     -0.72162810161733     -1.19144155722126
