18
Coordinates from ORCA-job run
  C   0.78405427607792      0.20097510208840      0.23143804183417
  C   -0.73622393104836      0.17223851153234      0.44608376315618
  Br  1.40226271145910      2.02801954469905      0.99615290996760
  H   -0.89038511420467      0.22112692946941      1.53829911331818
  C   1.21085091918936      0.21019704693033     -1.22005858249876
  H   2.28822970867229      0.36801738428854     -1.30191514541589
  H   0.68925873793179      0.99820619799900     -1.75840353838162
  H   0.96660293761529     -0.75789923230788     -1.66463114583846
  N   1.39780996012690     -0.85002181862432      0.94374263749390
  H   2.40234721144257     -0.85327629524656      0.82109719134578
  H   1.18410274643121     -0.81496826393300      1.93315377315332
  C   -1.33055232139105     -1.13690058090958     -0.06671862882905
  H   -0.80247186550806     -1.99854269217918      0.33872275766709
  H   -2.38153730476047     -1.20086720193389      0.23103583431754
  H   -1.28942879694225     -1.16719099987710     -1.15705730194956
  N   -1.37206799704911      1.27347874425288     -0.26450039903930
  H   -1.14641057301693      2.15371430114344      0.18290213017658
  H   -2.37744130502551      1.15469332260812     -0.23034341047771
