18
Coordinates from ORCA-job run
  C   0.78380499934385      0.12067108932869      0.13777150338492
  C   -0.73785191768946      0.31403058944903      0.23639534341722
  Br  1.52026252416534      0.40029996567013      2.03360478954526
  H   -0.89938885273529      1.28309349436972      0.71890039760971
  C   1.45718987621229      1.18653216819442     -0.70534626398858
  H   2.54344685359502      1.08431852441061     -0.64949004010032
  H   1.18634774357794      2.17994580204495     -0.34779394427607
  H   1.12338661992805      1.08271735031920     -1.73711390655393
  N   1.08925402902783     -1.17229010093129     -0.35384342168028
  H   2.07659239804144     -1.27026661397406     -0.55487750330617
  H   0.81373734111648     -1.90299849129254      0.28941248872226
  C   -1.44614206598060     -0.76979339668853      1.04964466892856
  H   -2.50572308996397     -0.51639087188615      1.14105310822558
  H   -1.03672310866549     -0.87381464288212      2.05583115885936
  H   -1.39027974944620     -1.73415664813187      0.53604460672650
  N   -1.23413271492136      0.42500411143518     -1.13788210068840
  H   -2.22554719114921      0.63548874659538     -1.11888486555915
  H   -1.11623369445668     -0.47339107603074     -1.59442601926646
