16

C	0.0	0.0	0.0
C	-0.256328	0.075731	-1.557872
Br	1.934989	0.0	0.0
H	0.436078	-0.668518	-1.958982
C	-0.487632	1.117731	0.777819
N	-0.603381	2.111259	1.40765
N	-0.485289	-1.283969	0.555909
O	-0.463258	-2.252534	-0.228222
O	-0.549861	-1.378148	1.789121
C	0.18759	1.390443	-2.030936
N	0.45418	2.447783	-2.469413
C	-1.624488	-0.221981	-2.18395
H	-1.998412	-1.172303	-1.809035
H	-1.466247	-0.299653	-3.269906
H	-2.350347	0.563562	-1.987871
H	-1.910585	0.0	0.0
