16

C	0.0	0.0	0.0
C	-0.253942	0.070037	-1.556688
Br	1.934839	0.0	0.0
H	0.427988	-0.689801	-1.952261
C	-0.48174	1.125094	0.773466
N	-0.600771	2.120973	1.399023
N	-0.495924	-1.276129	0.560064
O	-0.471813	-2.249707	-0.220334
O	-0.560636	-1.365191	1.794502
C	0.205339	1.375549	-2.043253
N	0.471693	2.425666	-2.499231
C	-1.622136	-0.217659	-2.184723
H	-2.008119	-1.161148	-1.80469
H	-2.34217	0.57603	-2.000003
H	-1.461422	-0.308731	-3.269359
H	-1.899277	0.0	0.0
