14

C	-0.407193	-0.168722	-1.429247
C	0.0	0.0	0.0
Br	-2.499233	-0.466559	-1.532313
H	1.099544	0.0	0.0
H	-0.064877	-1.126117	-1.810771
N	0.004119	0.904836	-2.21284
H	-0.274375	0.820425	-3.177275
H	-0.256954	1.803781	-1.835826
N	-0.323783	-1.128108	0.840368
O	-0.463532	-0.926518	2.055221
O	-0.258634	-2.24734	0.312777
C	-0.434755	1.254873	0.562629
N	-0.694574	2.347216	0.916278
H	2.359679	0.0	0.0
