14

C	-0.328148	-0.265486	-1.471465
C	0.0	0.0	0.0
Br	-0.633513	1.587469	-2.427358
H	1.108058	0.0	0.0
H	-1.310777	-0.700823	-1.64018
N	0.708291	-0.995431	-2.013479
H	1.626283	-0.692793	-1.674528
H	0.65332	-1.165562	-3.004973
N	-0.384063	-1.159268	0.838212
O	-0.779069	-2.190326	0.285699
O	-0.201629	-1.035876	2.050955
C	-0.516272	1.199429	0.613314
N	-0.899385	2.169745	1.157289
H	2.516629	0.0	0.0
