14

C	-0.498411	-0.135315	-1.422027
C	0.0	0.0	0.0
Br	0.660496	-1.435359	-2.474006
H	1.099014	0.0	0.0
H	-0.271547	0.79742	-1.937903
N	-1.878556	-0.439841	-1.523127
H	-2.046325	-1.330501	-1.070537
H	-2.15439	-0.506812	-2.494945
N	-0.383452	-1.063206	0.889448
O	-0.212732	-0.865546	2.103874
O	-0.693569	-2.169074	0.398548
C	-0.393512	1.280127	0.546703
N	-0.661974	2.362114	0.922305
H	2.339295	0.0	0.0
