14

C	-0.31865	-0.114953	-1.491187
C	0.0	0.0	0.0
Br	-0.439243	1.834385	-2.269071
H	1.092922	0.0	0.0
H	-1.327062	-0.455839	-1.71732
N	0.678878	-0.881909	-2.061913
H	0.636881	-0.971576	-3.06575
H	1.60679	-0.638656	-1.696192
N	-0.40472	-1.238095	0.71629
O	-0.117473	-1.278488	1.912835
O	-0.950296	-2.148117	0.089078
C	-0.531084	1.12816	0.72895
N	-0.933433	2.031103	1.366576
H	2.547315	0.0	0.0
