14

C	-0.495343	0.130654	-1.422367
C	0.0	0.0	0.0
Br	0.654792	-0.971873	-2.688026
H	1.106367	0.0	0.0
H	-0.255945	1.139375	-1.760331
N	-1.879291	-0.131155	-1.578441
H	-2.06035	-1.085647	-1.290678
H	-2.1512	-0.020477	-2.547723
N	-0.385878	-1.204071	0.681252
O	-0.727744	-2.19447	0.000683
O	-0.190306	-1.238708	1.908295
C	-0.380771	1.161441	0.772186
N	-0.635461	2.16169	1.336512
H	2.332164	0.0	0.0
