14

C	-0.497406	0.071985	-1.426936
C	0.0	0.0	0.0
Br	0.6346	-1.095216	-2.642479
H	1.096201	0.0	0.0
H	-0.245759	1.060992	-1.808648
N	-1.88583	-0.178229	-1.566639
H	-2.166663	-0.090828	-2.53691
H	-2.077845	-1.122469	-1.251343
N	-0.396533	-1.174483	0.732641
O	-0.753426	-2.187058	0.095478
O	-0.19814	-1.159565	1.958838
C	-0.376906	1.193314	0.724599
N	-0.615354	2.20881	1.267955
H	2.345143	0.0	0.0
