14

C	-0.357512	-0.182152	-1.468912
C	0.0	0.0	0.0
Br	-0.328544	1.712806	-2.352927
H	1.107916	0.0	0.0
H	-1.393447	-0.458901	-1.657309
N	0.568489	-1.060392	-2.013389
H	0.479393	-1.191783	-3.010993
H	1.518601	-0.830812	-1.710109
N	-0.40582	-1.189142	0.791204
O	-0.023869	-1.201012	1.962962
O	-1.048824	-2.09162	0.244309
C	-0.491069	1.17372	0.681734
N	-0.827579	2.126101	1.284097
H	2.514496	0.0	0.0
