11
Coordinates from ORCA-job run
  C   -0.57010402717504      0.26032534420541     -0.07082908139672
  C   0.88919161719850     -0.17171360645039     -0.00830661922028
  F   -1.03466308456504      0.33121137821734      1.25249912186500
  H   0.94481571503422     -1.16933210578865      0.43833908773594
  H   -0.66364885433070      1.26943410214671     -0.47698313405977
  H   1.28812197305891     -0.23189560035547     -1.02289337999722
  N   -1.31435282535091     -0.63960990470892     -0.86934163886144
  H   -1.31523340681862     -1.56753789385949     -0.46439377006666
  H   -2.27095153686934     -0.32853929014811     -0.97300822082188
  C   1.69812961161908      0.74865556692453      0.78672587611377
  N   2.34869481819895      1.49900200981705      1.41019175870927
