11
Coordinates from ORCA-job run
  C   -0.72224203903360      0.40819966802048     -0.12628384872119
  C   0.58627819024060      0.45001084117368      0.66143663766463
  F   -1.65368726433417      1.04412363571813      0.70517781307794
  H   0.81111063126606      1.47849066281794      0.95013083427904
  H   -0.65918136086659      1.03139472026735     -1.02189535007372
  H   0.44660731955672     -0.12483404229094      1.58230928012348
  N   -1.13501816807807     -0.90104466596647     -0.44159337821217
  H   -1.33272207024536     -1.06740996611445     -1.41251963492034
  H   -0.59542761536344     -1.64557884870727     -0.03236353476077
  C   1.69243053758039     -0.10930839733044     -0.10938563008639
  N   2.55985183927748     -0.56404360758800     -0.75501318837050
