11
Coordinates from ORCA-job run
  C   -0.63417957735326      0.32027474908185     -0.23757458325890
  C   0.66314586373617      0.50849540846865      0.53966229411294
  F   -1.61273840722231      1.02301853072169      0.49618697663558
  H   0.82077462705671      1.57425877328917      0.71841555393917
  H   -0.58434744823497      0.80754503644774     -1.21314590864065
  H   0.56368261577134      0.02605924451933      1.51706869282144
  N   -0.94107231943769     -1.04376443304260     -0.40880068794349
  H   -1.76870879206913     -1.17694360171233     -0.97309711667895
  H   -1.05698004318918     -1.51499652433570      0.47897902089239
  C   1.81038410714298     -0.04745872866932     -0.17129650483491
  N   2.73903937379935     -0.47548845476848     -0.74539773704462
