11
Coordinates from ORCA-job run
  C   -0.66920029471273      0.02015679137076      0.19017340139968
  C   0.84007628757974      0.01868972554492     -0.05233688231836
  F   -0.87526709212011     -0.75905821302060      1.32812555144439
  H   1.15091266054606     -1.01116443780444     -0.25613287435317
  H   -1.02187474708369      1.02278918128217      0.44358999380047
  H   1.07095171037134      0.62537696301112     -0.93156646708791
  N   -1.39844927078787     -0.49265116859313     -0.90541222828848
  H   -2.01135835548443      0.16139273746489     -1.35881257834015
  H   -0.87455764384539     -1.05057811928090     -1.55932498848733
  C   1.59480202020599      0.52051971476280      1.09304605924566
  N   2.19396472533112      0.94452682526242      2.00765101298518
