17

C	0.0	0.0	0.0
C	-0.25141	-0.096347	-1.541274
Br	2.062746	0.0	0.0
H	-1.333634	-0.214275	-1.59503
C	-0.806996	1.078244	0.616758
N	-0.769824	2.12651	1.200523
N	-0.281763	-1.277458	0.610937
H	0.196624	-1.326501	1.501971
H	0.087116	-1.987907	-0.013056
N	0.329242	-1.326553	-2.089145
H	-0.173312	-1.570491	-2.933926
H	1.301867	-1.174845	-2.330391
C	0.141025	1.177609	-2.279365
H	-0.258197	1.14481	-3.300067
H	-0.263884	2.058352	-1.774331
H	1.227135	1.284441	-2.339085
H	-2.164884	0.0	0.0
