17

C	0.0	0.0	0.0
C	-0.26154	-0.09306	-1.540091
Br	2.063442	0.0	0.0
H	-1.344932	-0.216028	-1.577103
C	-0.887172	1.063183	0.619539
N	-0.875349	2.001058	1.34154
N	-0.281261	-1.268564	0.609446
H	0.231694	-1.382143	1.474459
H	-0.000323	-1.994001	-0.054014
N	0.303912	-1.315623	-2.11484
H	-0.191332	-1.51942	-2.978724
H	1.28744	-1.173944	-2.332296
C	0.100263	1.192979	-2.275567
H	1.1879	1.322767	-2.346086
H	-0.314106	1.162618	-3.293015
H	-0.321393	2.064094	-1.754928
H	-2.141704	0.0	0.0
