15
Coordinates from ORCA-job run
  C   0.74938068965177     -0.05551382173786      0.00132403484338
  C   -0.54938726822027      0.10186177180171     -0.33078660888688
  N   1.43157204620687     -1.24723054014445      0.01327729694081
  H   2.34090829061663     -1.17423421422558      0.44652198139962
  H   0.90322231819657     -2.03661382968574      0.35117997914630
  N   1.63276774134069      1.10326602885671      0.26397310518836
  O   1.45007097116255      2.12052747525996     -0.39300920840087
  O   2.52211655094827      0.92442600386612      1.09651243595397
  N   -1.20006735921590      1.39861123075141     -0.16047545533212
  O   -0.96870421337052      2.02801957473653      0.87062326825870
  O   -1.97706056489490      1.74270457947612     -1.05033489349817
  C   -1.41527524166717     -1.01696250493338     -0.80198196794205
  H   -0.81132829674299     -1.79147041497078     -1.27909152449699
  H   -1.98438047462069     -1.46501383048836      0.01962591545489
  H   -2.12483518939091     -0.63337750856241     -1.53535835862894
