15
Coordinates from ORCA-job run
  C   0.65110852509356     -0.08790146595083      0.30767841136465
  C   -0.55325842165203      0.11499806508236     -0.31384270778145
  N   0.98172468144103     -0.03431073991725      1.61051210152814
  H   1.89760880990319     -0.34308621915448      1.88769853088186
  H   0.22802270307861      0.02699313718280      2.27594726661264
  N   1.84603402817056     -0.34182482277869     -0.53783005720555
  O   2.92119807037324      0.06756107783424     -0.10170843101151
  O   1.69004560918005     -0.98132917488474     -1.57465323703777
  N   -1.73572144902968      0.18763469902935      0.51797756834337
  O   -2.82713197015589      0.16801970384979     -0.05337674143734
  O   -1.61326992400387      0.25718972894109      1.75217415698774
  C   -0.81192844328300      0.21838634362268     -1.78429894597556
  H   -1.13981984784578     -0.73597192151707     -2.20200703982751
  H   -1.60896532808882      0.94347869722951     -1.94636826663633
  H   0.07435295681882      0.53916289143126     -2.32590260880539
