15
Coordinates from ORCA-job run
  C   0.62316313801382     -0.12637201856619      0.33482875948244
  C   -0.54641924090836      0.11874285714604     -0.33645298228038
  N   0.87594297558607     -0.19565623916350      1.65317885861231
  H   1.78879983995740     -0.48695516547329      1.95697554934010
  H   0.08861959952167     -0.18519427650198      2.28087465096864
  N   1.86933659637895     -0.29159083508014     -0.45762480799527
  O   1.78371269933549     -0.82861469432998     -1.55865219427235
  O   2.91176183589152      0.07981450780510      0.08050916164414
  N   -1.77525693049967      0.10792259156700      0.42873383615443
  O   -1.72364255866872      0.06642562711155      1.66922253170626
  O   -2.83212122652364      0.13293662441794     -0.20403554183657
  C   -0.72213738175104      0.35464331322257     -1.80390681061503
  H   -1.01304445801532     -0.56012551015215     -2.32491001045519
  H   0.18898457716040      0.73139753096551     -2.26162026138837
  H   -1.51869946547857      1.08462568703152     -1.94512073906517
