15
Coordinates from ORCA-job run
  C   0.76703329532548     -0.02648359005786     -0.09047447840255
  C   -0.56892200722266      0.11243869307638     -0.23966157630027
  N   1.50489712321665     -1.12296185678560     -0.43118140268610
  H   0.99966431296618     -1.94947153212500     -0.70498051218910
  H   2.34796430967502     -1.29340260466485      0.09428483051146
  N   1.62134256426880      1.04826195803318      0.45468688460196
  O   1.33413183637364      1.45886657852890      1.57429945692452
  O   2.58313032531242      1.38198730189480     -0.23021792122579
  N   -1.17240258849556      1.42800999839344     -0.06897286098135
  O   -0.48326545324308      2.41813607947387     -0.31365290414718
  O   -2.34854622319874      1.45745210441174      0.29479101433279
  C   -1.46720902796944     -1.01272504920459     -0.63636926308439
  H   -1.17042683194625     -1.94494997420675     -0.14763714184654
  H   -2.48521440233171     -0.78515126252891     -0.32503648836049
  H   -1.46517723273077     -1.17000684423875     -1.71987763714699
