15
Coordinates from ORCA-job run
  C   0.80396869426226      0.00354661513101     -0.06947281382303
  C   -0.51154006699774      0.08494203253253     -0.43162096198927
  N   1.93930004958350      0.26041667154039     -0.75726885828412
  H   1.83407657330826      0.34325615120313     -1.75630985835255
  H   2.77039861285188     -0.18001528561120     -0.39376492709667
  N   1.11968711618517     -0.37395169476436      1.33076796540676
  O   0.42830120855036      0.09639450085887      2.22872606709693
  O   2.09346572453938     -1.11153367617975      1.48320459808507
  N   -0.81702366469444      0.53270351542554     -1.77699712624227
  O   -2.00196144149744      0.73056026055049     -2.04833311671514
  O   0.10728965472722      0.70030496002125     -2.58744985817072
  C   -1.70583462352150     -0.21650850491956      0.41785552741143
  H   -2.13779345355741      0.69755508774070      0.83176814851953
  H   -1.45744639407366     -0.87784876586494      1.24398909908028
  H   -2.46588798966582     -0.69182186766410     -0.20109388492623
