15
Coordinates from ORCA-job run
  C   0.76627871786813     -0.04048040101886     -0.03933642940787
  C   -0.55781386867657      0.08026162488549     -0.26849384740007
  N   1.50569292294208     -1.19555851820749      0.03008131566946
  H   2.46811465055494     -1.06687627228848     -0.25009816353255
  H   1.07914908113957     -2.01112644442016     -0.38027483316426
  N   1.61097382759590      1.11951228048451      0.31742242158393
  O   2.63615220474504      1.24747300699044     -0.34963654544628
  O   1.26697594378709      1.80316108353839      1.27200093518951
  N   -1.17820989774594      1.39752911320175     -0.22978424193990
  O   -2.32243081413525      1.43791998009444      0.22473120223038
  O   -0.55319250356726      2.35631127588818     -0.68047555248410
  C   -1.49401433205751     -1.06222790277230     -0.48819575829505
  H   -0.97289324076953     -1.93292475681681     -0.89224340079798
  H   -2.27213267000191     -0.78014546419357     -1.19853820988741
  H   -1.98465002167878     -1.35282860536554      0.44384110768219
