15
Coordinates from ORCA-job run
  C   0.75254738578169     -0.07850705275162     -0.02254411184124
  C   -0.57319933630519      0.09831665114710     -0.20570697790979
  N   1.43588626848105     -1.25008595360558     -0.23556579334501
  H   2.43802025756487     -1.13545285461354     -0.18722951807784
  H   1.14309455908923     -1.77331770813111     -1.04605829477849
  N   1.60472853695597      0.97695534965583      0.57000190489267
  O   2.77329805031183      1.00713129267090      0.18279457455752
  O   1.10755841267094      1.69849123840774      1.42579085806005
  N   -1.16159271893992      1.43111196439811     -0.09902317179219
  O   -0.56567748973712      2.36794312217083     -0.62802404126304
  O   -2.24694110502374      1.50526967493818      0.47581718132206
  C   -1.49513488395068     -1.00241929391566     -0.60817394629636
  H   -1.10813325738798     -1.96518185104120     -0.26789681737309
  H   -1.63408146359728     -1.03987873512185     -1.69412735251975
  H   -2.46937321591367     -0.83937584420813     -0.14705449363551
