15
Coordinates from ORCA-job run
  C   0.76764094633402     -0.06594270392336     -0.15367891715334
  C   -0.57147469995456      0.10076870704184     -0.12006946650688
  N   1.42100884393982     -1.27215920211342     -0.20867005942306
  H   0.98656241640183     -1.96621984922874     -0.79680981404393
  H   2.41049453400207     -1.17613555593678     -0.38595327764029
  N   1.69828499213259      1.07544257537360      0.00148589660199
  O   2.76406233603104      0.98801282600420     -0.60900175540751
  O   1.36758324401705      1.98370859442513      0.75355741632392
  N   -1.15011029619320      1.43867533692392     -0.21934146788645
  O   -0.67225550804142      2.21316029625690     -1.04672101001100
  O   -2.11543943032638      1.67259511815047      0.50693481467898
  C   -1.53725779248697     -1.03411611706507     -0.06902625030242
  H   -1.89767784631287     -1.30721245038916     -1.06662517436698
  H   -2.39756758248446     -0.74281499329153      0.53395782371291
  H   -1.07385415705855     -1.90876258222800      0.39196124142404
