15
Coordinates from ORCA-job run
  C   0.72941452652833     -0.13148610241094      0.04979184851500
  C   -0.54088656189491      0.09255054487149     -0.32175266624437
  N   1.31254066682300     -1.40245610066265      0.01560820480954
  H   1.90176413556078     -1.51770855123512     -0.80081426370921
  H   1.87606729497741     -1.54437151666766      0.84546684621465
  N   1.55812771326884      0.97434142887644      0.60247546880026
  O   2.43662003180046      0.63083065786594      1.39229221228126
  O   1.32024406804667      2.12233263066051      0.24288663848394
  N   -1.12682723009902      1.43821928345786     -0.29404879054955
  O   -1.26910945509709      1.98079646264744     -1.38462818616120
  O   -1.50014171409119      1.85809325477322      0.79629505470752
  C   -1.49188216368590     -0.93993894239553     -0.81523987864689
  H   -1.71928350752414     -0.76216398133828     -1.86969966826614
  H   -2.42795828049146     -0.87021689014492     -0.25392231301729
  H   -1.05968952412179     -1.93082217829778     -0.69271050721753
