15
Coordinates from ORCA-job run
  C   0.73193154572465     -0.07610827414781      0.06299541880072
  C   -0.52972657102380      0.11647104843041     -0.37660922325753
  N   1.38436651091727     -1.28241913597344      0.11641397687053
  H   0.81376257724603     -2.06526347691910      0.39520339014929
  H   2.25841918615503     -1.23719953211144      0.61989230079136
  N   1.61232896593791      1.05958830680789      0.42129583991895
  O   2.42698234633529      0.84705676102658      1.31981067553572
  O   1.50245854960573      2.09323661648187     -0.22630756292266
  N   -1.16540185880555      1.42449475523111     -0.23890276176173
  O   -1.01692226512012      2.02837490777418      0.82227476903958
  O   -1.84974072920398      1.80332997190865     -1.18874825658339
  C   -1.37710559624741     -0.97402477501583     -0.93914840484502
  H   -2.00696496980253     -0.56397216898323     -1.72889079941254
  H   -2.02982368513390     -1.41495508505730     -0.17805441718818
  H   -0.75256400658462     -1.75960991945253     -1.36922494513511
