15
Coordinates from ORCA-job run
  C   0.66388975836564     -0.02831601480077      0.29785446010904
  C   -0.56569944167158      0.05046085432514     -0.29361202272444
  N   1.03213245314130     -0.05792831231506      1.59871818998777
  H   1.94396266536222     -0.44972116065609      1.77774712135068
  H   0.29110962258853     -0.24678353161918      2.25556354994365
  N   1.86079973861387     -0.02635857611420     -0.57966809422471
  O   2.77678269333470     -0.77597788312221     -0.24075443221277
  O   1.87501532615731      0.73413281448396     -1.54234949677144
  N   -1.73006589499812      0.11938024285641      0.56904940961202
  O   -2.82021315175324      0.30749204473432      0.02773369365610
  O   -1.58720600929588     -0.00510622277955      1.79508750206986
  C   -0.86656833511788      0.08690957699461     -1.75882988982288
  H   -1.76251085763751     -0.50286901895779     -1.94919885490412
  H   -0.04685448268506     -0.31290401240943     -2.34998187129564
  H   -1.06257408440428      1.10758919937985     -2.09535926477312
