15
Coordinates from ORCA-job run
  C   0.75414018264401     -0.05445972237436     -0.02285123650101
  C   -0.55388862864111      0.09954197988242     -0.31873197044739
  N   1.41841350567868     -1.25336376740470      0.05846965960902
  H   0.88979611664974     -2.00604163827221      0.47128946206345
  H   2.34330591653051     -1.16379561823593      0.45393555407815
  N   1.66401589046636      1.10488289460356      0.11647981088821
  O   2.57955915889391      0.97606233122579      0.92982996065967
  O   1.47342819482978      2.07112541391304     -0.61149951456872
  N   -1.17909027711900      1.41663721175440     -0.22920074433743
  O   -1.98492819282326      1.70162957870512     -1.11433774507195
  O   -0.89837026702751      2.12306288762928      0.73779612811324
  C   -1.45168376587815     -1.03933285110648     -0.66635422698696
  H   -1.98298637493866     -1.42166993963957      0.21192113661526
  H   -2.19312631232017     -0.70106463312568     -1.39030011137394
  H   -0.87858514694511     -1.85321412755469     -1.11544616273961
