15
Coordinates from ORCA-job run
  C   0.70277169631270     -0.04907218074768      0.23451006610066
  C   -0.57631494848334      0.03674529397263     -0.23910939990838
  N   1.18498522234219     -0.20999372132357      1.48755222559301
  H   2.12432835715021     -0.57238870476004      1.54333691367463
  H   0.51213239698629     -0.50788648574853      2.17655257344695
  N   1.81631314191228      0.11129358549085     -0.73313213570064
  O   2.78679083768745     -0.62696362513616     -0.56356829021171
  O   1.71559200024665      0.97762128027264     -1.59616386984067
  N   -1.66201516574712     -0.04735562286251      0.71932277979951
  O   -2.80137390463512      0.15258667606747      0.29652695727003
  O   -1.40788724110273     -0.30599810978020      1.90576381626907
  C   -1.00621263595272      0.22438350765255     -1.65999875106346
  H   -0.22749220507689     -0.06818432252275     -2.35948310897698
  H   -1.26826114750642      1.26628671552151     -1.85814103996062
  H   -1.89335640413343     -0.38107428609622     -1.84196873649141
