15
Coordinates from ORCA-job run
  C   0.80112487439257     -0.07329564387255     -0.07293325532525
  C   -0.51151245235105      0.07530848597933     -0.43723608385515
  N   1.92575560658397      0.00158652407268     -0.80662940987703
  H   1.84293135062083      0.34654664443580     -1.74920158384601
  H   2.81264311493500     -0.01824244141198     -0.33352301944219
  N   1.10329084177262     -0.44649305409694      1.33262917843977
  O   2.10294476964345     -1.14147595019923      1.51077629692068
  O   0.37531943303486      0.00125215635434      2.21462019907658
  N   -0.78733215842995      0.60430856797352     -1.75663280244126
  O   -1.95262419367747      0.91907221216948     -2.00350493934978
  O   0.14064370490000      0.72834502157004     -2.57294446360113
  C   -1.72444408856397     -0.19830881274891      0.39540521339902
  H   -1.51573779834280     -0.91604175081080      1.18470585931816
  H   -2.10791623601017      0.71440393304626      0.85661866202054
  H   -2.50608676850789     -0.59796589246105     -0.25014985143694
