15
Coordinates from ORCA-job run
  C   0.75671543143331     -0.06987483832984     -0.03989353815738
  C   -0.55614829943577      0.11959961853556     -0.29034380268760
  N   1.45292945869439     -1.23157246628046     -0.26444681449827
  H   2.37941177430414     -1.21916842086500      0.13701251069474
  H   0.94862016396710     -2.07877725583057     -0.05428099572822
  N   1.63495765723811      1.04000928418741      0.39510880515233
  O   2.55990560079012      0.73185288441775      1.14725151950100
  O   1.41207992744680      2.15558089789917     -0.05843518704310
  N   -1.21642120620469      1.35155740141667      0.13412147250894
  O   -2.03169001160834      1.83441249973567     -0.65087186907388
  O   -0.95371286478236      1.78984275908319      1.25293780531921
  C   -1.42639163197144     -0.91331816627441     -0.92236316644231
  H   -1.96044133819810     -1.50859488558564     -0.17392017450507
  H   -0.83176272344768     -1.58163212800375     -1.54847571601283
  H   -2.16605193822559     -0.41891718410577     -1.55240084902757
