15
Coordinates from ORCA-job run
  C   0.76161522911671     -0.05593563113575     -0.01813617805388
  C   -0.55326876671152      0.09305091712064     -0.28126817330649
  N   1.48098723709138     -1.22497865759618      0.03017615391820
  H   2.45296702502655     -1.10121062720855     -0.21762298957198
  H   1.05442489448992     -2.01648767005509     -0.42501149980272
  N   1.61159483088171      1.07675381779358      0.40646794360417
  O   1.24690614537729      1.73360146475042      1.37209424814541
  O   2.65992356317911      1.21070090384663     -0.22254261174161
  N   -1.15703199815879      1.41670396088392     -0.21021559034681
  O   -2.31113169744020      1.45695971372590      0.21859154677734
  O   -0.50856036225694      2.38202244429197     -0.61102837370699
  C   -1.49666417029845     -1.02740206864497     -0.57310011826060
  H   -2.26140867708933     -0.70163892109372     -1.27900906481365
  H   -0.97677474801993     -1.88094547732251     -1.01397663228006
  H   -2.00357850518750     -1.36119416935627      0.33558133943966
