15
Coordinates from ORCA-job run
  C   0.75915105955283     -0.06592342821401     -0.05557156927305
  C   -0.57515453810883      0.09023254882937     -0.18725684544021
  N   1.44890474650993     -1.23670633335678     -0.25151056581083
  H   1.12277614108250     -1.80039455579355     -1.02105866799365
  H   2.45025700253545     -1.10659572890011     -0.26049217188195
  N   1.62361022869780      1.01991658136514      0.46010776766282
  O   2.76767768417629      1.05882012090034      0.00647680066739
  O   1.16198081514133      1.75573160268348      1.32344107524051
  N   -1.17247923603870      1.42047005653991     -0.09986345577827
  O   -0.60237213439345      2.34674508307936     -0.67412029340085
  O   -2.23909765503382      1.50288915435772      0.50804044747332
  C   -1.50309659892393     -1.03299328234293     -0.50469622581080
  H   -1.08712013508688     -1.98084689480516     -0.15699827536764
  H   -1.70183041312486     -1.10545994678811     -1.57941140521833
  H   -2.45220696698567     -0.86588497755467      0.00491338493152
