15
Coordinates from ORCA-job run
  C   0.75894107825412     -0.06821282011497     -0.01427490402230
  C   -0.55209353131883      0.10629323014653     -0.27925312903999
  N   1.46499084739463     -1.24589002421425     -0.01870147733670
  H   1.02681765037844     -2.01463722907707     -0.50098065617052
  H   2.43819677645581     -1.12496895578743     -0.26268702855262
  N   1.61776936142053      1.03432352126438      0.46681501385345
  O   1.25395875145980      1.64996624291310      1.45956946586057
  O   2.67065119521181      1.18648326195180     -0.15011321053650
  N   -1.14614817055309      1.42915139565674     -0.14209099587810
  O   -0.49100201066606      2.40792385593089     -0.49622668152218
  O   -2.29937683883646      1.45584569368101      0.28967126112262
  C   -1.49813076163381     -0.99270159870429     -0.63716192459613
  H   -0.98455805394894     -1.80075730105202     -1.16376607603405
  H   -2.28272520368406     -0.61452165812250     -1.29299649254323
  H   -1.97929108993390     -1.40729761447192      0.25219683539568
