15
Coordinates from ORCA-job run
  C   0.74921594283350     -0.06799575563410     -0.00451445424406
  C   -0.57315948354759      0.09061581608218     -0.22451922510423
  N   1.45649244704090     -1.22898418141800     -0.19611262899585
  H   1.18575421461100     -1.76486246589338     -1.00594587953841
  H   2.45547296185299     -1.09606585141255     -0.13200473706300
  N   1.57049018699853      0.99792197125025      0.61306816588568
  O   2.74263843392109      1.05834416646968      0.24089897575395
  O   1.04690288439298      1.69610562638555      1.47229701394576
  N   -1.18186607959187      1.41483981411684     -0.12707135233595
  O   -2.29114050806289      1.47000354287653      0.40260041247540
  O   -0.57516198531481      2.36538303347025     -0.61817210603979
  C   -1.46930253137675     -1.02218796271751     -0.65149320036480
  H   -2.45629813325863     -0.87361733649333     -0.21318121612827
  H   -1.07849721111651     -1.98063328363472     -0.30349103562175
  H   -1.58254113938194     -1.05886713344769     -1.74035873262469
