15
Coordinates from ORCA-job run
  C   0.75409845374411     -0.05374333034464     -0.02399858157198
  C   -0.55484894348433      0.09945555063612     -0.31677889989400
  N   1.41776782836415     -1.25262566880979      0.05307864648500
  H   0.89354348734594     -2.00633108720079      0.46944436534796
  H   2.34805560674270     -1.16573832657393      0.43592550920759
  N   1.66348738582474      1.10622730749842      0.11597190882471
  O   1.46710631989035      2.07631589596093     -0.60525566029545
  O   2.58510511075067      0.97327908392058      0.92181667912631
  N   -1.18103175350645      1.41546645698251     -0.22020006352119
  O   -0.90206706352566      2.11651138666768      0.75120617762034
  O   -1.98649076238052      1.70487649857584     -1.10434429911053
  C   -1.45153952086302     -1.03920760191601     -0.66737471368818
  H   -2.19694758755231     -0.69811280984484     -1.38588133015635
  H   -1.97781525430776     -1.42879689454386      0.21077006174706
  H   -0.87742330704260     -1.84857646100822     -1.12337980012130
