15
Coordinates from ORCA-job run
  C   0.74763484775402     -0.08042839700185      0.00043259510193
  C   -0.57075233166692      0.09939311829841     -0.22732971247745
  N   1.43636311066302     -1.25369293864586     -0.18417573712652
  H   2.43688225004548     -1.13728306323678     -0.11202956372726
  H   1.16491881106072     -1.78385674588474     -0.99757389942013
  N   1.58209282567834      0.97378048255414      0.62056643565969
  O   1.06336969159578      1.68593455723274      1.47121035490392
  O   2.75855318857936      1.01137287990210      0.25882153241514
  N   -1.15773146168198      1.43444912085256     -0.14161903797718
  O   -2.26929142337808      1.51115758050413      0.38059096686697
  O   -0.53231993304262      2.37170997728224     -0.63474496154772
  C   -1.48400649443500     -0.99906982145532     -0.65492022281948
  H   -2.46679047286884     -0.83839395933201     -0.21134533818152
  H   -1.10502226414612     -1.96423655354488     -0.31256044695734
  H   -1.60290034415715     -1.02983623752489     -1.74332296471307
