15
Coordinates from ORCA-job run
  C   0.75232030394820     -0.07737541777752     -0.01984972054429
  C   -0.55169940232926      0.12287134833145     -0.30539174866808
  N   1.44335655546560     -1.24677206256636     -0.21605546081874
  H   0.92874211303414     -2.08880924202435     -0.01056127651269
  H   2.36190620762889     -1.23819527746801      0.20306011636648
  N   1.62972745753220      1.02908377005668      0.42787430265303
  O   1.42562721836368      2.14323892982854     -0.03777276958926
  O   2.53484879646640      0.71884774956946      1.20285609560059
  N   -1.21002605329104      1.36461795199996      0.09396369440656
  O   -1.99681035808949      1.85246614191788     -0.71656040182412
  O   -0.97465490780624      1.80560333150233      1.21778767997111
  C   -1.41745167264015     -0.90474546666184     -0.95171213661898
  H   -1.98494829444053     -1.48195072829185     -0.21392129443913
  H   -0.81366372697383     -1.59004461077918     -1.55007278461096
  H   -2.12827423686856     -0.40683641763718     -1.61164429537150
