15
Coordinates from ORCA-job run
  C   0.76318146731230     -0.06189081236295     -0.02148624630974
  C   -0.55260778001043      0.09306000882595     -0.27516401681988
  N   1.48199355395838     -1.23229029979869      0.00925919292798
  H   1.05612782051777     -2.01457819628860     -0.46236456172552
  H   2.45350352485770     -1.10292579701578     -0.23779911777575
  N   1.61538202310586      1.06560264918179      0.41302187070037
  O   1.24470019600825      1.72390418815942      1.37546235769520
  O   2.67019967628396      1.19622999172027     -0.20577829214548
  N   -1.15193304746514      1.41872216970127     -0.19327664380686
  O   -0.50822128955529      2.38231222167024     -0.60525961807902
  O   -2.29901612643123      1.46080904019189      0.25341199310318
  C   -1.50361736374865     -1.01885822363584     -0.57386531356267
  H   -2.25555644270788     -0.68888978768154     -1.29181850938680
  H   -2.02606941060634     -1.34110320551914      0.33003110296759
  H   -0.98806680151926     -1.88110394714830     -1.00237419778260
