15
Coordinates from ORCA-job run
  C   0.76086031666943     -0.05716784069922     -0.01597636887513
  C   -0.55268992700815      0.09470191203303     -0.28328027081366
  N   1.47764830274999     -1.22759647076049      0.03440467391200
  H   1.04867532638067     -2.01975015170349     -0.41741106798096
  H   2.44994818204741     -1.10721707110270     -0.21377413014712
  N   1.61202517229496      1.07331593916037      0.41165364182767
  O   1.24810183626209      1.72776861463730      1.37915331760620
  O   2.66040044183483      1.20792359559615     -0.21697692530515
  N   -1.15416380693714      1.41929869781598     -0.21012411971689
  O   -2.30948311294432      1.46038636856509      0.21508455403475
  O   -0.50258405312147      2.38449253754390     -0.60596779386602
  C   -1.49643346414994     -1.02400975649885     -0.58029974966334
  H   -2.00046343503318     -1.36580328171860      0.32704924265926
  H   -0.97726392921246     -1.87329527335581     -1.03040040056796
  H   -2.26357784983273     -0.69304781951266     -1.28113460310367
