15
Coordinates from ORCA-job run
  C   -0.57647402974519      0.26355873797316     -0.27381591937049
  C   0.69932438305476     -0.17099471322518     -0.96858049331299
  F   -1.44204153019992      0.60757914566897     -1.28862662808020
  H   1.13417702684522      0.67588538102639     -1.49917373953388
  H   0.48226863782210     -0.98276401330307     -1.66047970145111
  C   -1.21924971031236     -0.75714396479899      0.61750663861693
  H   -0.59096369453396     -0.97756160849367      1.47835907480973
  H   -1.38878253029259     -1.66695103083716      0.03839960937194
  H   -2.17496744546852     -0.37639332050316      0.97330736645987
  N   -0.33274388560111      1.58002602867280      0.46616298248992
  O   0.28521392074591      2.43218218436917     -0.16198430824220
  O   -0.81874778918248      1.70667224339288      1.58281770302043
  N   1.72016160727583     -0.66444980011405     -0.00550424157697
  O   2.41841778236132     -1.60648529965470     -0.36422761843100
  O   1.80540725723098     -0.06315997017339      1.06383927523000
