15
Coordinates from ORCA-job run
  C   -0.43026999810647      0.28181176014032     -0.16176545704243
  C   1.07315571746379      0.13557448251253     -0.34299953842714
  F   -1.02930488672502      0.15588459711378     -1.37511391619947
  H   1.59047358406856      0.25457080690747      0.60549644148661
  H   1.42345278173330      0.84751516913572     -1.08963520439341
  C   -1.09645666265208     -0.62466990122212      0.83974095335980
  H   -1.01470412643140     -1.65887305772016      0.50882977437231
  H   -2.15192959045213     -0.35322993344256      0.90365585114866
  H   -0.63139388636071     -0.52350123907467      1.81910931226464
  N   -0.63942256666220      1.72473083234794      0.29844022361865
  O   -0.04291765023884      2.03015649775274      1.32715623849860
  O   -1.37897897260638      2.43516082112398     -0.36487593458219
  N   1.37454083900431     -1.22746289391527     -0.86304375904708
  O   1.57267386561149     -1.33941518858864     -2.06902203503975
  O   1.38308155235379     -2.13825275307106     -0.03597295001780
