15
Coordinates from ORCA-job run
  C   -0.39260723387676      0.32737396439616     -0.17248734362069
  C   1.09368075028083      0.03029808470439     -0.30212357839558
  F   -0.95497473110948      0.28238821631585     -1.40879335252992
  H   1.58494528801042      0.08365157218596      0.66596899558832
  H   1.54233549468594      0.71206698813437     -1.02388335525498
  C   -1.18523961958599     -0.52125682189797      0.78690453431770
  H   -0.74908351190477     -0.48420936616667      1.78392857610062
  H   -1.19770493124255     -1.55300373871581      0.43887631331794
  H   -2.20894542169405     -0.14336779124321      0.81848369541889
  N   -0.47171010784432      1.77678992759269      0.30766053817833
  O   -1.11597953447234      2.56704218688776     -0.36470259989897
  O   0.11730241098908      2.00576716029272      1.36027084398108
  N   1.27410754709305     -1.34969507130075     -0.83341188441600
  O   1.50482636357336     -1.46586868975846     -2.03319049435757
  O   1.16004723709762     -2.26697662142699     -0.02150088842920
