15
Coordinates from ORCA-job run
  C   -0.58129028707541      0.25015085788145     -0.32897129892074
  C   0.69907987835405     -0.30754292677327     -0.94194447874725
  F   -1.39838013388167      0.50882850743279     -1.39116149001902
  H   0.44221329498214     -1.21110261401079     -1.49523180979496
  H   1.13868729420406      0.43741991437792     -1.60398261995723
  C   -1.30639730867912     -0.60129879520928      0.67625375105087
  H   -1.55636208307610     -1.55959088553453      0.21966140766765
  H   -2.22903769617296     -0.08919880957267      0.95668585522399
  H   -0.69818026943445     -0.77457886528910      1.55957828489680
  N   -0.24542630754181      1.59075133956181      0.31232846351346
  O   0.46140536555953      1.50925225615459      1.31254502891324
  O   -0.68165593802675      2.60754015608937     -0.20604096811072
  N   1.72909950450606     -0.68622599917303      0.06413363422194
  O   1.48567691835526     -1.67678279326819      0.74915941401687
  O   2.74256776792716      0.00337865733290      0.11598682604514
