19

C	-0.494216	0.014346	-1.45174
C	0.0	0.0	0.0
Cl	0.317527	1.416938	-2.263561
H	1.089908	0.0	0.0
C	-0.012001	-1.237034	-2.176179
H	1.063724	-1.361936	-2.024831
H	-0.230253	-1.15564	-3.244721
H	-0.540508	-2.111416	-1.783306
N	-1.917982	0.272498	-1.540269
H	-2.392445	-0.411507	-0.959752
H	-2.214059	0.156614	-2.503927
N	-0.434286	-1.309668	0.597978
O	-1.653156	-1.502578	0.743885
O	0.420802	-2.131575	0.908806
C	-0.539958	1.118483	0.865686
H	-0.248181	2.069698	0.419863
H	-0.078391	1.053743	1.854749
H	-1.625629	1.084347	0.955497
H	2.860055	0.0	0.0
