19

C	-0.495627	-0.154359	-1.461407
C	0.0	0.0	0.0
Cl	-0.287079	1.474743	-2.246376
H	1.090078	0.0	0.0
C	0.353272	-1.125775	-2.263315
H	0.109168	-1.02474	-3.322409
H	0.156787	-2.147617	-1.938238
H	1.408376	-0.909761	-2.078218
N	-1.90332	-0.489287	-1.596831
H	-2.455593	0.09246	-0.973732
H	-2.023209	-1.455191	-1.308854
N	-0.437977	-1.210587	0.726954
O	-1.264543	-1.10333	1.645771
O	0.044642	-2.295425	0.382106
C	-0.471078	1.234969	0.737902
H	0.068284	2.094478	0.345214
H	-1.54664	1.415675	0.662783
H	-0.218407	1.132821	1.792972
H	2.718791	0.0	0.0
