19

C	-0.374115	0.028253	-1.49852
C	0.0	0.0	0.0
Cl	-0.169672	-1.655263	-2.151846
H	1.092098	0.0	0.0
C	-1.799058	0.445154	-1.809153
H	-1.967363	1.476919	-1.486593
H	-2.506034	-0.201864	-1.290854
H	-1.958921	0.383985	-2.886733
N	0.569135	0.862438	-2.206892
H	1.505715	0.678528	-1.824375
H	0.346325	1.833326	-2.014541
N	-0.557696	-1.18102	0.70652
O	-1.774099	-1.176082	0.945279
O	0.199825	-2.094119	1.020125
C	-0.439249	1.248264	0.745844
H	-0.0079	1.21774	1.750257
H	-1.522648	1.341743	0.824892
H	-0.020829	2.12802	0.252511
H	2.847387	0.0	0.0
