19

C	-0.451947	0.096706	-1.454568
C	0.0	0.0	0.0
Cl	0.211019	-1.353717	-2.415099
H	1.09052	0.0	0.0
C	-1.951578	0.103794	-1.685612
H	-2.388506	0.944492	-1.1412
H	-2.169765	0.226319	-2.750676
H	-2.390228	-0.830794	-1.340652
N	0.154618	1.294278	-1.958739
H	1.150579	1.25988	-1.729167
H	0.064389	1.3063	-2.969499
N	-0.424857	-1.216202	0.711493
O	-1.019769	-2.128516	0.122071
O	-0.113985	-1.273522	1.906081
C	-0.404449	1.202665	0.844385
H	-1.460805	1.174438	1.130619
H	0.207906	1.200577	1.746056
H	-0.208145	2.114678	0.284226
H	2.643779	0.0	0.0
