15

C	0.001951	-0.091957	0.028726
C	-0.529672	-0.094114	-1.394389
F	1.427595	0.103754	-0.039303
H	-1.619696	-0.128119	-1.306372
H	-0.29903	0.905217	-1.776399
N	-0.608954	0.910788	0.779857
H	-1.645962	1.047574	0.422048
H	-0.565734	0.709247	1.770328
C	-0.090852	-1.454978	0.636
N	-0.192613	-2.51287	1.138675
C	0.075044	-1.173396	-2.280014
H	-0.20255	-2.173851	-1.936335
H	-0.282035	-1.067116	-3.308569
H	1.165785	-1.108958	-2.289119
F	-2.905326	1.014984	-0.219842
