15

C	0.0074	-0.087676	0.032039
C	-0.521328	-0.146024	-1.390914
F	1.4327	0.108496	-0.040754
H	-0.292983	0.838579	-1.810689
H	-1.611402	-0.180215	-1.303769
N	-0.607327	0.941877	0.74275
H	-1.643543	1.062793	0.377129
H	-0.567141	0.778014	1.740258
C	-0.083613	-1.426267	0.691652
N	-0.182587	-2.462822	1.237477
C	0.088412	-1.256677	-2.233277
H	1.178927	-1.188823	-2.243355
H	-0.186218	-2.244033	-1.851412
H	-0.267525	-1.191681	-3.265655
F	-2.902428	0.999835	-0.263398
