15

C	0.0	0.0	0.0
C	-0.284194	-0.427549	-1.457778
Br	1.947283	0.0	0.0
H	0.353048	-1.288819	-1.660984
H	0.095561	0.392966	-2.074499
C	-0.561851	1.321178	0.437028
H	-0.255625	2.090684	-0.274752
H	-0.20604	1.579349	1.433002
H	-1.654892	1.217772	0.436313
N	-0.390257	-1.110897	0.965475
O	-0.489673	-0.803467	2.145937
O	-0.507083	-2.236951	0.496971
C	-1.595644	-0.80272	-1.99901
N	-2.352163	-1.224925	-2.795116
Cl	-3.623882	0.0	0.0
