15

C	0.0	0.0	0.0
C	-0.274142	-0.433371	-1.457377
Br	1.947102	0.0	0.0
H	0.319538	-1.331013	-1.634269
H	0.167332	0.357159	-2.072541
C	-0.557574	1.326886	0.423009
H	-0.213564	1.586786	1.422837
H	-1.651047	1.22951	0.410303
H	-0.237582	2.091343	-0.288257
N	-0.398488	-1.102474	0.971605
O	-0.522112	-2.230908	0.510808
O	-0.498205	-0.785912	2.149625
C	-1.589604	-0.731884	-2.034305
N	-2.356113	-1.120732	-2.837695
Cl	-3.619379	0.0	0.0
