15

C	0.0	0.0	0.0
C	-0.569273	0.498148	-1.321305
Br	1.94102	0.0	0.0
H	-0.421171	1.581747	-1.357352
H	-1.655827	0.310326	-1.276705
C	-0.4988	0.799251	1.18427
H	-0.154432	1.830806	1.093691
H	-1.592441	0.763696	1.181435
H	-0.111239	0.370392	2.106219
N	-0.376327	-1.476301	0.198461
O	-0.784211	-2.09376	-0.776873
O	-0.194596	-1.934998	1.321902
C	0.01214	-0.087234	-2.52404
N	0.47712	-0.487926	-3.524682
Cl	-3.629067	0.0	0.0
