17
Coordinates from ORCA-job run
  C   0.63846489668817     -0.26383529934034      0.23911171521492
  C   -0.84702135160955      0.01440692078615      0.53320262789082
  F   1.11523760799107     -0.86817967850716      1.40475506024300
  H   -0.91080335584076      0.58675266734791      1.45902459541246
  C   1.45404541683974      0.99907826728562      0.04033175982222
  H   1.18891039549155      1.49185882915042     -0.89623809431952
  H   1.30389680513930      1.69932988164077      0.86480064585137
  H   2.51160944726129      0.72842406238301      0.00379421429664
  N   0.73996059465134     -1.25534237587645     -0.79482828095915
  H   0.27632199593683     -0.93262042174982     -1.63612083702338
  H   1.71265262312943     -1.45199853828151     -0.99643694969344
  N   -1.65791310210512     -1.14760532181127      0.53983143493838
  H   -2.03444696246507     -1.34301335383638      1.45324961636018
  H   -1.14793464782071     -1.94095396957030      0.17412831359470
  N   -1.33663484322781      0.98675150271465     -0.53116608156803
  O   -1.41603185720219      0.56201444624828     -1.68193986388887
  O   -1.58931366285751      2.13493238141644     -0.17349987617232
