17
Coordinates from ORCA-job run
  C   0.61452152942228     -0.23505476682428     -0.26728379935281
  C   -0.74189740437134      0.29093840853838      0.24705292508271
  F   0.49622292804255     -1.63888738552508     -0.11212912660553
  H   -0.78755914103297      1.37367974298244      0.11678892967535
  C   1.74515443986485      0.21001967383961      0.63559434761803
  H   2.67937525636486     -0.19069333791635      0.23626507023336
  H   1.80380104306336      1.30015443172368      0.67134070289602
  H   1.59514220402097     -0.16438448267234      1.64464451697070
  N   0.89726949567945      0.06000384536169     -1.61715882617141
  H   1.66473087329747      0.69675933682965     -1.74811059126681
  H   0.09979757991661      0.29352929802590     -2.18723850996616
  N   -0.96189499204767     -0.08700673123913      1.59150177577210
  H   -1.84477979596260      0.26400900688811      1.93745785078484
  H   -0.95812548177799     -1.09639195438395      1.66615242717323
  N   -1.83561335565612     -0.23544836696532     -0.70277698355302
  O   -2.50982966943287     -1.18559220522037     -0.32530426479427
  O   -1.95531550939084      0.34436548655733     -1.78379644449635
