17
Coordinates from ORCA-job run
  C   0.62858910729710     -0.23923265994832     -0.22927428978650
  C   -0.75426872896930      0.29422125720968      0.20001758092734
  F   0.50360980381889     -1.63964485669960     -0.05273464234909
  H   -0.79428724419654      1.37380781227017      0.04417311733014
  C   1.70813215546616      0.22675390008818      0.72421736024147
  H   2.66293567517491     -0.18002443031646      0.38414158347214
  H   1.50416469303141     -0.12737513764106      1.73111375815219
  H   1.76356050158168      1.31751567354809      0.74084716271983
  N   0.98463304079112      0.02870107902264     -1.56768622885692
  H   0.21837159991949      0.24530448008237     -2.18536769239263
  H   1.75336958021484      0.66944805998953     -1.66874131837640
  N   -1.04597859141927     -0.05526636339332      1.53848866347672
  H   -1.04528285630501     -1.06279206396278      1.63508673244875
  H   -1.94653036315307      0.30123748049745      1.82879921592714
  N   -1.79481052913439     -0.25515086140944     -0.79572621746409
  O   -1.85577864115765      0.29987025286340     -1.89450291146634
  O   -2.48842920296038     -1.19737362220053     -0.43385187400376
