14

C	-0.341382	0.25345	-1.471105
C	0.0	0.0	0.0
Br	-0.430988	-1.585805	-2.484152
H	1.094341	0.0	0.0
H	-1.364187	0.597058	-1.634061
N	0.618474	1.11239	-1.982632
H	1.561877	0.84177	-1.691277
H	0.539495	1.306819	-2.967872
C	-0.542896	-1.216285	0.580074
N	-1.005719	-2.129315	1.160259
N	-0.408929	1.18922	0.767754
H	0.428446	1.536548	1.227199
H	-1.079795	0.938969	1.482392
H	2.756375	0.0	0.0
