14

C	-0.258366	-0.150694	-1.475419
C	0.0	0.0	0.0
Br	-2.219754	-0.369998	-1.900318
H	1.10514	0.0	0.0
H	-0.050221	0.816809	-1.939975
N	0.479136	-1.271581	-1.958725
H	1.414176	-1.204764	-1.538404
H	0.568203	-1.232639	-2.966483
C	-0.449484	-1.155932	0.773079
N	-0.822007	-2.023253	1.474842
N	-0.450659	1.278579	0.521584
H	-1.375517	1.198423	0.925935
H	0.200638	1.563826	1.245271
H	2.706029	0.0	0.0
