14

C	-0.28065	0.137264	-1.503731
C	0.0	0.0	0.0
Br	-0.194102	-1.716693	-2.407775
H	1.097505	0.0	0.0
H	-1.311948	0.411227	-1.742842
N	0.651514	1.048958	-2.014507
H	0.623206	1.128017	-3.021134
H	1.592997	0.816582	-1.672684
C	-0.603573	-1.163067	0.63082
N	-1.115109	-2.071833	1.173318
N	-0.373099	1.212192	0.730698
H	0.389633	1.86929	0.602512
H	-1.206878	1.626141	0.328294
H	2.751288	0.0	0.0
