14

C	-0.56683	-0.025338	-1.410031
C	0.0	0.0	0.0
Br	0.246958	1.548101	-2.43159
H	1.097741	0.0	0.0
H	-0.18281	-0.873623	-1.974957
N	-1.97597	0.028753	-1.39471
H	-2.249739	0.778014	-0.767448
H	-2.362997	0.179165	-2.316514
C	-0.448922	-1.205867	0.687459
N	-0.758391	-2.182995	1.263777
N	-0.510829	1.200247	0.702195
H	0.192968	1.916237	0.527843
H	-0.465258	1.015537	1.69915
H	2.745004	0.0	0.0
