14

C	-0.542352	-0.018683	-1.420292
C	0.0	0.0	0.0
Br	0.238648	1.597954	-2.400604
H	1.097707	0.0	0.0
H	-0.115763	-0.843151	-1.990375
N	-1.951539	-0.014074	-1.436728
H	-2.323802	0.130426	-2.365507
H	-2.272301	0.714412	-0.808029
C	-0.44927	-1.217547	0.66793
N	-0.758506	-2.203628	1.228725
N	-0.535172	1.184531	0.708734
H	-0.434795	1.010768	1.703741
H	0.126606	1.929775	0.497647
H	2.75456	0.0	0.0
