14

C	0.0	0.0	0.0
C	-0.5275	-0.224289	-1.403934
Br	1.923998	0.0	0.0
H	-0.024174	-1.131983	-1.759702
H	-0.335173	-0.794657	0.656655
H	-1.601564	-0.405242	-1.174977
N	-0.44313	1.252081	0.699495
O	-0.3553	2.317233	0.094496
O	-0.750146	1.129562	1.877711
C	-0.373096	0.905033	-2.410327
H	-0.612821	0.523794	-3.409066
H	0.632603	1.333637	-2.441434
H	-1.080039	1.697874	-2.172572
F	-2.687006	0.0	0.0
