14

C	0.0	0.0	0.0
C	-0.221336	-0.10091	-1.541285
Br	1.931516	0.0	0.0
H	0.450688	0.646394	-1.971604
H	-0.406185	-0.797859	0.601588
H	0.2226	-1.071068	-1.798884
N	-0.442562	1.285626	0.608386
O	-0.562459	1.300599	1.828192
O	-0.52179	2.266225	-0.124329
C	-1.55326	0.03088	-2.265772
H	-1.318916	-0.02538	-3.342197
H	-2.25056	-0.743688	-1.972719
H	-2.026716	0.979032	-2.035477
F	-2.375767	0.0	0.0
