14

C	0.0	0.0	0.0
C	-0.489569	-0.406713	-1.381309
Br	1.925406	0.0	0.0
H	-0.093606	-1.418531	-1.5288
H	-0.355021	-0.693176	0.753156
H	-1.582672	-0.442826	-1.193069
N	-0.449023	1.346162	0.494801
O	-0.544705	2.261735	-0.313118
O	-0.583712	1.457514	1.707915
C	-0.122718	0.472818	-2.569956
H	-0.364559	-0.063472	-3.494644
H	0.938952	0.73432	-2.606598
H	-0.702824	1.393229	-2.553418
F	-2.621613	0.0	0.0
