14

C	-0.631604	0.066598	-1.367246
C	0.0	0.0	0.0
F	-1.992405	0.099348	-1.260943
H	1.089945	0.0	0.0
H	-0.342339	0.86744	0.565374
C	-0.189769	1.264088	-2.092383
N	0.08045	2.243616	-2.681567
N	-0.27713	-1.129977	-2.27301
O	-1.205752	-1.800023	-2.69243
O	0.912374	-1.247863	-2.5088
N	-0.476321	-1.191242	0.744099
O	-0.706358	-1.04311	1.940558
O	-0.569068	-2.24853	0.123465
Cl	3.20718	0.0	0.0
