14

C	-0.565421	0.047073	-1.393186
C	0.0	0.0	0.0
F	-1.932343	0.115785	-1.357528
H	1.090195	0.0	0.0
H	-0.382906	-0.886574	0.500776
C	-0.065976	1.09556	-2.282204
N	0.281525	1.913745	-3.048765
N	-0.232679	-1.319363	-2.031778
O	-0.914315	-2.253438	-1.633438
O	0.671132	-1.352837	-2.853688
N	-0.461433	1.166294	0.788469
O	-0.606846	2.237155	0.203648
O	-0.636514	0.978982	1.988346
Cl	3.178898	0.0	0.0
