14

C	-0.500914	0.009685	-1.424169
C	0.0	0.0	0.0
F	0.053366	-0.948619	-2.182636
H	1.090554	0.0	0.0
H	-0.356415	0.876467	0.537619
C	-1.966844	-0.029503	-1.555624
N	-3.136737	-0.042163	-1.662112
N	-0.070318	1.372869	-2.019838
O	0.633012	1.346679	-3.012217
O	-0.508941	2.353443	-1.432023
N	-0.478734	-1.192387	0.740121
O	-0.968909	-2.121627	0.097288
O	-0.327896	-1.166847	1.956524
Cl	3.203159	0.0	0.0
