14

C	-0.482179	-0.019631	-1.426357
C	0.0	0.0	0.0
F	-0.072577	1.0513	-2.129383
H	1.089041	0.0	0.0
H	-0.342477	-0.886977	0.531575
C	-0.052574	-1.255432	-2.098279
N	0.222525	-2.242821	-2.67024
N	-2.025947	-0.064858	-1.500271
O	-2.572599	0.656399	-2.313749
O	-2.550907	-0.874887	-0.749003
N	-0.517823	1.173274	0.746352
O	-1.361665	1.885844	0.19883
O	-0.079501	1.329513	1.878227
Cl	3.206058	0.0	0.0
