17

C	0.0	0.0	0.0
C	-0.233345	0.121214	-1.546835
Br	1.978621	0.0	0.0
H	-0.073165	1.183276	-1.76544
H	0.575206	-0.422095	-2.04101
N	-0.60418	1.115698	0.666176
H	-1.619333	0.934496	0.455659
H	-0.506764	0.970188	1.668758
C	-0.460841	-1.345172	0.541927
H	-0.149269	-1.46214	1.585665
H	-1.556198	-1.292468	0.478852
H	-0.06453	-2.184474	-0.037272
C	-1.541243	-0.362993	-2.172121
H	-2.415062	0.000545	-1.627033
H	-1.540358	-0.059373	-3.227418
H	-1.587438	-1.456622	-2.145282
F	-3.067022	0.0	0.0
