17

C	0.0	0.0	0.0
C	-0.179478	-0.016087	-1.558885
Br	1.991974	0.0	0.0
H	0.327365	0.88691	-1.923066
H	0.407984	-0.858683	-1.942634
N	-0.600512	1.108908	0.661881
H	-1.623772	0.86034	0.574265
H	-0.443436	1.945767	0.105528
C	-0.486602	-1.279448	0.647378
H	-0.190156	-1.297422	1.699691
H	-0.083092	-2.159189	0.14152
H	-1.581065	-1.225908	0.561704
C	-1.568879	-0.071012	-2.187208
H	-1.43031	-0.007076	-3.276142
H	-2.221957	0.720678	-1.831045
H	-2.096139	-0.989609	-1.941317
F	-3.00556	0.0	0.0
