14
Coordinates from ORCA-job run
  C   -0.45477672208369      0.48437477199099      0.06858993308424
  C   0.99836428629950      0.04138735410933      0.30328799070624
  F   -0.59250908036709      1.77280365089535      0.48128551891358
  H   1.20715327557971      0.17550822763096      1.36898739329597
  N   -1.34771416170536     -0.29714679299330      1.09145369620528
  O   -0.84929307476643     -0.56516155864448      2.17921339585846
  O   -2.49592598515084     -0.52324703336193      0.73029387016365
  N   -0.86308950533227      0.35749540948553     -1.25069044688996
  H   -1.84016866676497      0.59561695007121     -1.36462924058969
  H   -0.67192579965280     -0.55471647152562     -1.64316905462506
  C   1.90876395453901      0.87052597555947     -0.48887106423534
  N   2.65524444971984      1.53160122620914     -1.10791104811408
  C   1.14000369936931     -1.37664645804829     -0.03464807376361
  N   1.20487333031608     -2.51039525137834     -0.33319287000968
