14
Coordinates from ORCA-job run
  C   -0.39798312778592      0.35897361932275     -0.11036684521595
  C   0.77729111334366     -0.59993426352335      0.14696719223702
  F   0.11136087982981      1.61601922599505     -0.33616334634614
  H   0.36833168763593     -1.53250165299875      0.54634937796858
  N   -1.23572410651485      0.49494373182306      1.16025350573532
  O   -0.95114446229099     -0.21377560205551      2.11863020314296
  O   -2.14537501081382      1.30999083437337      1.08425016383742
  N   -1.26109021065724     -0.11363881472482     -1.10046099621115
  H   -0.79526931306800     -0.22324047076866     -1.99314746752873
  H   -2.06470222507983      0.49716823570021     -1.19328555888204
  C   1.72546259627878     -0.03617810900616      1.11115442147589
  N   2.49935733729441      0.40827128963793      1.87296333272743
  C   1.44284262754797     -0.87403300854979     -1.13038827730430
  N   1.92664221428010     -1.09206501522532     -2.17775570563631
