14
Coordinates from ORCA-job run
  C   -0.47566983218103      0.40003462032095      0.08888082524752
  C   0.99282646572465      0.00174855184818      0.31281030390721
  F   -0.58122735958456      1.72626285657289      0.48418741732108
  H   1.25468148726222      0.27165880199123      1.34001442992941
  N   -1.35669656801816     -0.33920493834655      1.09689227649902
  O   -0.83062964867130     -0.64014158851475      2.16212837452043
  O   -2.52924928519718     -0.49541395130773      0.78297390552657
  N   -0.92874154436910      0.11783796693658     -1.18849770216719
  H   -1.92879409371168      0.23770403546379     -1.27821784572508
  H   -0.41937301220817      0.61633544970074     -1.90618943461743
  C   1.82748339373564      0.76040726098724     -0.62302632163492
  N   2.46081201448159      1.37709917916761     -1.39559469893115
  C   1.17769513675816     -1.43889713041018      0.12927053448575
  N   1.33788284597892     -2.59343111441000     -0.00763206436121
