14
Coordinates from ORCA-job run
  C   -0.46200152318978      0.46846875098827      0.09905384462624
  C   1.00407727573387      0.04313224158625      0.27891000571807
  F   -0.61080766049965      1.73473243715759      0.57257761907890
  H   1.23149587053102      0.12218310958878      1.34646287712455
  N   -1.31405709818846     -0.37370382604120      1.10941193286897
  O   -2.45602624967809     -0.63823219068795      0.75462662298666
  O   -0.79327256147904     -0.64720413616806      2.18531744650600
  N   -0.90156816998966      0.39242814140321     -1.21376251339039
  H   -1.88390069103827      0.62248421114876     -1.29394886031330
  H   -0.71014916000409     -0.49997208910303     -1.64941673063359
  C   1.88054992913684      0.93693592075849     -0.47992689809512
  N   2.60076819275996      1.65394858094102     -1.06693734186619
  C   1.16734656344897     -1.35047951539505     -0.13981399894759
  N   1.24754528245639     -2.46472163617706     -0.50155400566322
