16

C	-0.313738	-0.005089	-1.513333
C	0.0	0.0	0.0
Br	0.199465	1.761326	-2.234296
H	1.09625	0.0	0.0
C	0.607327	-1.028872	-2.172178
H	0.281287	-2.032635	-1.876957
H	1.622062	-0.853332	-1.794858
H	0.565123	-0.948583	-3.262189
N	-1.73462	-0.148898	-1.759336
H	-2.052071	-0.992867	-1.288996
H	-1.89442	-0.265658	-2.757053
C	-0.450981	-1.26367	0.566471
N	-0.822128	-2.300322	0.983105
C	-0.57342	1.113057	0.733899
N	-0.999112	2.007164	1.368076
F	2.511145	0.0	0.0
