16

C	-0.321129	0.00694	-1.505966
C	0.0	0.0	0.0
Br	0.347679	1.81181	-2.192362
H	1.107277	0.0	0.0
C	0.542127	-1.03292	-2.195964
H	0.18017	-2.025359	-1.909122
H	0.489165	-0.931379	-3.282586
H	1.565457	-0.891429	-1.835717
N	-1.706097	-0.14953	-1.770561
H	-2.246631	0.570582	-1.30252
H	-1.89039	-0.100886	-2.765627
C	-0.430651	-1.264099	0.583471
N	-0.731854	-2.295938	1.06116
C	-0.59534	1.107603	0.720428
N	-1.103225	1.988276	1.312005
F	2.498408	0.0	0.0
