16

C	-0.566179	-0.000334	-1.400359
C	0.0	0.0	0.0
Br	0.287684	1.502826	-2.428927
H	1.089309	0.0	0.0
H	-0.297282	0.964705	0.43105
N	-0.18084	-1.233541	-2.214625
O	-0.842829	-1.434644	-3.232849
O	0.7451	-1.922794	-1.813337
N	-1.977157	0.053413	-1.430661
H	-2.301127	0.865814	-0.921291
H	-2.318261	0.075494	-2.382844
C	-0.530832	-1.141281	0.866166
H	-1.621029	-1.144821	0.930509
H	-0.116289	-1.03245	1.870928
H	-0.195123	-2.104323	0.481663
Cl	3.526222	0.0	0.0
