16

C	-0.410416	-0.00732	-1.449397
C	0.0	0.0	0.0
Br	-2.508901	0.328921	-1.57112
H	1.093846	0.0	0.0
H	-0.308238	-0.978783	0.38813
N	0.080821	1.177072	-2.279407
O	0.423716	2.189023	-1.687984
O	0.079705	1.020022	-3.496568
N	-0.03401	-1.142808	-2.116559
H	-0.198542	-2.002153	-1.62011
H	-0.251752	-1.159373	-3.100483
C	-0.530965	1.086549	0.923457
H	-0.043511	0.964998	1.893645
H	-0.284541	2.077488	0.550779
H	-1.611198	1.015078	1.061394
Cl	3.44984	0.0	0.0
