16

C	-0.320236	0.027323	-1.491712
C	0.0	0.0	0.0
Br	-0.179926	-1.787937	-2.224638
H	1.094434	0.0	0.0
H	-0.394151	-0.903312	0.466224
N	-1.780897	0.456	-1.645719
O	-1.988169	1.587655	-2.079744
O	-2.64057	-0.301126	-1.211256
N	0.49628	0.882305	-2.288605
H	1.464939	0.705387	-2.019931
H	0.270567	1.847826	-2.082259
C	-0.488049	1.251478	0.724315
H	-1.579187	1.295217	0.794258
H	-0.131899	2.161706	0.236083
H	-0.078711	1.251244	1.736477
Cl	3.429008	0.0	0.0
