16

C	-0.336063	0.07976	-1.484356
C	0.0	0.0	0.0
Br	-0.016988	-1.617533	-2.382267
H	1.09394	0.0	0.0
H	-0.30834	0.972508	0.407701
N	-1.82585	0.423778	-1.606242
O	-2.658059	-0.472882	-1.674505
O	-2.085322	1.623147	-1.51004
N	0.397908	1.087893	-2.196715
H	0.207603	1.976819	-1.743558
H	1.384571	0.879273	-2.042253
C	-0.599251	-1.136251	0.808049
H	-0.296688	-1.027434	1.852444
H	-0.229985	-2.099284	0.455382
H	-1.692396	-1.146917	0.764842
Cl	3.427342	0.0	0.0
