16

C	-0.492538	-0.001697	-1.435664
C	0.0	0.0	0.0
Br	0.112735	-1.548965	-2.442841
H	1.092291	0.0	0.0
H	-0.327005	0.959059	0.42269
N	-2.067968	-0.109206	-1.337472
O	-2.619654	0.966805	-1.099126
O	-2.637561	-1.191319	-1.407279
N	-0.102283	1.156327	-2.124804
H	-0.483823	1.209222	-3.057961
H	-0.309301	1.988558	-1.592648
C	-0.521387	-1.142603	0.861242
H	-1.599449	-1.085209	1.036172
H	-0.296348	-2.107992	0.405518
H	-0.013519	-1.107232	1.827377
Cl	3.510318	0.0	0.0
