16

C	-0.53352	0.057848	-1.411465
C	0.0	0.0	0.0
Br	0.248697	1.538549	-2.414881
H	1.091911	0.0	0.0
H	-0.321084	-0.959641	0.423652
N	-0.099501	-1.215984	-2.205344
O	-0.585049	-1.33338	-3.329964
O	0.617196	-2.035483	-1.648609
N	-1.950364	0.176832	-1.474692
H	-2.262594	0.080028	-2.433565
H	-2.369609	-0.548988	-0.902422
C	-0.498803	1.157513	0.859872
H	-0.156634	2.109612	0.452079
H	-1.587894	1.187992	0.936382
H	-0.072907	1.056994	1.860505
Cl	3.522311	0.0	0.0
