16

C	0.0	0.0	0.0
C	-0.247249	-0.027336	-1.583514
Cl	1.773866	0.0	0.0
H	0.48837	0.695532	-1.948187
N	-0.635407	1.174559	0.61806
O	-0.645549	1.214534	1.87106
O	-0.629568	2.219791	-0.103206
C	-0.468958	-1.198706	0.676252
N	-0.617093	-2.267882	1.157421
N	-1.588686	0.311618	-2.020966
H	-1.529595	0.369306	-3.035645
H	-1.78585	1.238893	-1.656839
N	0.047452	-1.319638	-2.172553
H	0.962467	-1.636133	-1.877202
H	-0.643615	-1.974623	-1.818995
H	-1.900298	0.0	0.0
