16

C	0.0	0.0	0.0
C	-0.268246	0.00509	-1.562549
Cl	1.773263	0.0	0.0
H	0.548627	0.612852	-1.968763
N	-0.347492	1.3105	0.667434
O	-0.205204	2.320256	-0.018374
O	-0.547807	1.295951	1.879602
C	-0.621041	-1.099325	0.706128
N	-0.654981	-2.10599	1.336106
N	-1.463079	0.625461	-2.084215
H	-1.405088	0.574155	-3.099872
H	-2.261089	0.101305	-1.745955
N	-0.170769	-1.408959	-1.96207
H	-0.089856	-1.439933	-2.97238
H	0.669005	-1.829581	-1.574961
H	-2.016748	0.0	0.0
