16

C	0.0	0.0	0.0
C	-0.255493	0.03497	-1.564149
Cl	1.773862	0.0	0.0
H	0.5281	0.701324	-1.939388
N	-0.357861	1.306754	0.668631
O	-0.558833	1.288087	1.881698
O	-0.219818	2.321476	-0.012729
C	-0.675046	-1.093139	0.667442
N	-0.702283	-2.135347	1.24336
N	-1.480441	0.602563	-2.077895
H	-2.236952	-0.039352	-1.87505
H	-1.366274	0.691172	-3.086795
N	-0.082931	-1.35533	-2.015665
H	0.130677	-1.335949	-3.007675
H	0.7052	-1.789982	-1.547211
H	-1.981996	0.0	0.0
