16
Coordinates from ORCA-job run
  C   0.50810602468489      0.41126575140846      0.34895532951873
  C   -0.99168089391460      0.28074459804037      0.04391746828932
  H   0.73463162493182      1.45042794402761      0.60747828877050
  H   -1.54608323018962      0.57685965498578      0.94582320667859
  C   1.41299392032515     -0.06889479926578     -0.77112909784739
  H   1.20372269177008      0.50525472253801     -1.67556694011012
  H   2.45643039609029      0.07867878693881     -0.49508438397068
  H   1.22659097889455     -1.12081233536509     -0.98174811988148
  N   0.83681005761657     -0.35533828067683      1.60728272653175
  O   1.98766912953856     -0.25080631059343      2.01565752867267
  O   -0.04936401413835     -1.02139828349877      2.14406863296993
  N   -1.32066353393005     -1.06007715192268     -0.42956032983812
  H   -1.37460088274581     -1.67303575939575      0.37441802399011
  H   -2.22190938486549     -1.05773265987208     -0.89060309904779
  C   -1.30682837876665      1.25954693486119     -1.00366493294068
  N   -1.55582450530135      2.04431718779019     -1.84024430178534
