16
Coordinates from ORCA-job run
  C   0.45362489016307      0.49310729998181      0.31623235166183
  C   -1.01861687778800      0.16125325381542      0.02969031785257
  H   0.55198423700975      1.56750125042555      0.50053670485863
  H   -1.60691450276085      0.45058423909964      0.91205152485029
  C   1.41317077822956      0.04826409280168     -0.77240147294133
  H   2.43011253827047      0.34060372280783     -0.51372518378559
  H   1.35641685412726     -1.03068425211470     -0.90710020681118
  H   1.13809695399487      0.52687741602647     -1.71398720203898
  N   0.86899431126881     -0.13829745715641      1.62324726135591
  O   1.99749563230126      0.13276718925334      2.01702712540283
  O   0.06843688412847     -0.86778043068041      2.20980689841364
  N   -1.18161088875119     -1.23907632440873     -0.34767532821976
  H   -2.07519516094117     -1.37803525064479     -0.80263410342592
  H   -1.16278931183994     -1.79666509674372      0.49716028214785
  C   -1.44679694056928      1.01976730220851     -1.08135627457801
  N   -1.78640939684310      1.70881304532852     -1.96887269474279
