16
Coordinates from ORCA-job run
  C   0.44536433992173      0.08341293570700      0.43509816686260
  C   -0.79772201807204     -0.20171847851122     -0.41638487420362
  H   0.14874671953238      0.41561793334917      1.43263291788771
  H   -0.45622469580582     -0.54127239342873     -1.39762150094010
  C   1.38939355334450      1.06788768965176     -0.22836205610137
  H   2.25869085025869      1.24463926724670      0.40827478065354
  H   0.86728638118897      2.00830595811951     -0.39656415803277
  H   1.72726120001489      0.67119255847299     -1.18779311236752
  N   1.17473281544401     -1.20671603584081      0.65613972813791
  O   1.39663257857855     -1.88872950527479     -0.34324960597569
  O   1.52544283906203     -1.47113357863991      1.80278605130697
  N   -1.54560370603433      1.03684102026338     -0.58463236909501
  H   -2.05213735161366      1.25516728513529      0.26605061933886
  H   -2.22742784325000      0.93164868018608     -1.32582533109681
  C   -1.58982494929316     -1.29253123603099      0.18831066382616
  N   -2.26661071327675     -2.11161210040542      0.69014007979915
