16
Coordinates from ORCA-job run
  C   0.35661576108291      0.55990374651748      0.27386894246875
  C   -1.09618883163845      0.13801384809978     -0.04003757032868
  H   0.39664789181448      1.65189877219201      0.36319903358443
  H   -1.73943807498077      0.55762029487627      0.73695823939412
  C   1.38355853205347      0.06981371195857     -0.72674487293112
  H   1.11219329650370      0.41594901534812     -1.72580460558656
  H   1.43885841906972     -1.02017049024267     -0.72872530827173
  H   2.37273809224807      0.45099135264272     -0.48232334989693
  N   0.70355513804857      0.06389787569992      1.66261359137041
  O   1.88972746866218     -0.11305135962112      1.91887346882947
  O   -0.22263795024765     -0.09085999439987      2.45782797330083
  N   -1.36956595790332     -1.28385208162839     -0.10024442029652
  H   -0.77904300713733     -1.75743659500507     -0.77081419291648
  H   -1.25827134536243     -1.70042262145090      0.81446362422563
  C   -1.46867013914290      0.77003123132539     -1.31348232718643
  N   -1.72007929307024      1.28567329368774     -2.33762822575920
