14

C	0.0	0.0	0.0
C	-0.474508	0.455802	-1.437325
Cl	1.780321	0.0	0.0
H	0.437766	0.622344	-2.02006
H	-0.339835	-1.014324	0.192577
C	-0.433774	0.853738	1.104476
N	-0.631418	1.52387	2.048576
N	-1.184784	1.711631	-1.316374
H	-1.502002	1.936139	-2.254739
H	-2.01714	1.425326	-0.775307
N	-1.267146	-0.558437	-2.115616
H	-0.741601	-1.427553	-2.164
H	-2.059239	-0.668858	-1.459636
F	-2.686421	0.0	0.0
