14

C	0.0	0.0	0.0
C	-0.278511	-0.133272	-1.571051
Cl	1.792466	0.0	0.0
H	0.526495	0.460339	-2.029617
H	-0.406092	-0.855603	0.527488
C	-0.464635	1.267006	0.548655
N	-0.653857	2.339157	0.991723
N	-1.520201	0.313659	-2.114963
H	-2.237538	0.122965	-1.339711
H	-1.47446	1.322723	-2.20387
N	-0.128488	-1.563285	-1.865731
H	0.850367	-1.795109	-1.984575
H	-0.602989	-1.691259	-2.749629
F	-2.710929	0.0	0.0
