14

C	0.0	0.0	0.0
C	-0.341136	0.085504	-1.538011
Cl	1.79064	0.0	0.0
H	0.571696	-0.24646	-2.050544
H	-0.362075	-0.942072	0.40257
C	-0.478289	1.11601	0.807495
N	-0.648898	2.018021	1.540638
N	-0.57571	1.50716	-1.865147
H	-1.202781	1.554231	-2.657455
H	0.305387	1.941491	-2.121137
N	-1.386593	-0.829242	-1.89192
H	-1.618274	-0.698316	-2.872739
H	-2.182955	-0.565006	-1.232725
F	-2.680648	0.0	0.0
