14

C	0.0	0.0	0.0
C	-0.462848	0.08555	-1.469245
Cl	1.783283	0.0	0.0
H	-1.531115	-0.139541	-1.364726
H	-0.361899	-0.940944	0.402399
C	-0.483063	1.108256	0.818184
N	-0.630767	2.067071	1.481211
N	0.213875	-0.927395	-2.258644
H	-0.338918	-1.105537	-3.087443
H	1.114037	-0.561536	-2.551075
N	-0.184023	1.43744	-1.983981
H	-0.694744	2.095594	-1.400623
H	-0.618102	1.492632	-2.900861
F	-2.56801	0.0	0.0
