14

C	0.0	0.0	0.0
C	-0.480984	0.180542	-1.493732
Cl	1.780421	0.0	0.0
H	0.426897	0.239368	-2.103035
H	-0.340177	-0.958967	0.381753
C	-0.421652	1.044134	0.931646
N	-0.683151	1.835301	1.758712
N	-1.193781	1.436127	-1.599226
H	-1.50853	1.494496	-2.563259
H	-2.027211	1.24879	-1.0165
N	-1.27832	-0.941499	-1.966549
H	-2.071953	-0.918895	-1.301891
H	-0.757598	-1.806261	-1.845143
F	-2.709698	0.0	0.0
