14

C	0.0	0.0	0.0
C	-0.496393	-0.034548	-1.477879
Cl	1.78167	0.0	0.0
H	0.38969	-0.044451	-2.120677
H	-0.33058	-0.906617	0.498556
C	-0.432748	1.162729	0.774372
N	-0.624339	2.104741	1.448213
N	-1.242028	1.183957	-1.764827
H	-2.087709	1.054691	-1.180058
H	-1.516737	1.14654	-2.741765
N	-1.190925	-1.313333	-1.63361
H	-2.036186	-1.142463	-1.058002
H	-1.482822	-1.383805	-2.605109
F	-2.761405	0.0	0.0
