13

C	-0.44548	-0.093891	-1.447538
C	0.0	0.0	0.0
Cl	-2.21195	0.139364	-1.616693
H	1.093517	0.0	0.0
H	-0.336677	0.958322	0.40029
N	0.203875	1.068148	-2.225974
O	0.655551	0.812358	-3.332259
O	0.157735	2.156256	-1.674675
C	-0.083403	-1.354133	-2.080828
N	0.165746	-2.400571	-2.554112
C	-0.541219	-1.097903	0.783096
N	-0.999415	-1.972945	1.417751
Br	3.365563	0.0	0.0
