13

C	-0.468034	0.018537	-1.452786
C	0.0	0.0	0.0
Cl	0.122723	-1.372274	-2.339229
H	1.092837	0.0	0.0
H	-0.341859	0.918628	0.484933
N	-2.025186	0.027697	-1.443819
O	-2.506899	1.063345	-1.000037
O	-2.628135	-0.96564	-1.811719
C	-0.069646	1.253156	-2.122968
N	0.21485	2.247037	-2.68184
C	-0.533178	-1.156696	0.704739
N	-0.979793	-2.077754	1.280376
Br	3.378274	0.0	0.0
