13

C	-0.443326	0.013344	-1.450741
C	0.0	0.0	0.0
Cl	-2.211066	0.248345	-1.604288
H	1.094484	0.0	0.0
H	-0.337855	0.925182	0.470826
N	0.199563	1.234183	-2.138666
O	0.15616	2.275718	-1.503629
O	0.644003	1.066697	-3.264581
C	-0.07343	-1.193364	-2.177838
N	0.160928	-2.199458	-2.73825
C	-0.539083	-1.154622	0.698522
N	-0.990658	-2.07646	1.268537
Br	3.365342	0.0	0.0
