13

C	-0.443944	-0.023191	-1.450369
C	0.0	0.0	0.0
Cl	-2.2115	0.210113	-1.609772
H	1.094565	0.0	0.0
H	-0.337432	0.936881	0.447402
N	0.199347	1.179165	-2.169738
O	0.163981	2.235163	-1.558264
O	0.63416	0.984493	-3.295514
C	-0.075484	-1.248702	-2.146065
N	0.172925	-2.267502	-2.676608
C	-0.53955	-1.136336	0.727695
N	-0.992687	-2.043048	1.320245
Br	3.364791	0.0	0.0
