16

C	0.0	0.0	0.0
C	-0.386249	-0.365845	-1.430112
Cl	1.849593	0.0	0.0
H	0.006935	-1.369951	-1.629726
H	0.151288	0.321353	-2.087942
N	-0.411786	1.339838	0.32069
H	-0.04923	1.603824	1.230279
H	-1.428348	1.326191	0.378414
N	-0.497947	-0.968613	0.91353
H	-0.188943	-1.904549	0.687469
H	-0.259895	-0.746659	1.871171
C	-1.886193	-0.310729	-1.694068
H	-2.474275	-0.878391	-0.975289
H	-2.093563	-0.697903	-2.695787
H	-2.270822	0.708567	-1.656616
Cl	-4.97574	0.0	0.0
