16

C	0.0	0.0	0.0
C	-0.333726	0.120446	-1.491142
Cl	1.864593	0.0	0.0
H	0.142974	-0.719409	-2.010814
H	0.163237	1.023758	-1.861338
N	-0.439576	1.063717	0.854254
H	-0.213124	1.960514	0.443197
H	-1.451803	0.978306	0.92933
N	-0.507562	-1.197938	0.538338
H	-0.210732	-2.012212	0.021378
H	-0.275472	-1.283442	1.518494
C	-1.825295	0.159217	-1.790896
H	-2.355574	-0.708975	-1.405627
H	-1.974415	0.213703	-2.874151
H	-2.325699	1.016553	-1.343138
Cl	-4.802842	0.0	0.0
