16

C	0.0	0.0	0.0
C	-0.393693	-0.124974	-1.480209
Cl	1.863232	0.0	0.0
H	-1.470856	-0.323646	-1.475566
H	0.123096	-0.996463	-1.900178
N	-0.412223	1.182949	0.697798
H	-0.076644	2.008251	0.218168
H	-1.43536	1.168414	0.682592
N	-0.495062	-1.097314	0.715198
H	-0.220854	-1.062902	1.685817
H	-0.2853	-1.984854	0.286152
C	-0.109325	1.110012	-2.322369
H	0.937207	1.419006	-2.267463
H	-0.34897	0.910153	-3.369851
H	-0.744684	1.938045	-2.004239
Cl	-3.902082	0.0	0.0
