15

C	-0.478714	0.030242	-1.442391
C	0.0	0.0	0.0
Br	-2.430081	-0.170507	-1.562188
H	1.09424	0.0	0.0
H	-0.318786	-0.969335	0.397238
N	-0.115096	1.37053	-2.096675
O	-0.824931	2.326187	-1.843962
O	0.889833	1.373496	-2.785833
C	0.089227	-1.048413	-2.24293
N	0.522198	-1.953614	-2.856432
C	-0.494488	1.139932	0.878337
H	-1.581368	1.243264	0.872108
H	-0.167957	0.938576	1.900389
H	-0.047666	2.087653	0.57806
Br	3.506642	0.0	0.0
