15

C	-0.420676	-0.004526	-1.448101
C	0.0	0.0	0.0
Br	-2.369066	0.270957	-1.656081
H	1.096758	0.0	0.0
H	-0.334238	0.943926	0.435412
N	0.215455	1.18047	-2.192388
O	0.674225	0.957927	-3.304703
O	0.174259	2.253822	-1.612472
C	-0.09618	-1.238679	-2.148343
N	0.151455	-2.269806	-2.655588
C	-0.505086	-1.202547	0.78283
H	-0.129802	-1.132212	1.805563
H	-1.596817	-1.252094	0.814643
H	-0.119465	-2.13272	0.360044
Br	3.508153	0.0	0.0
