15

C	-0.534172	0.032557	-1.426958
C	0.0	0.0	0.0
Br	0.294631	1.451365	-2.45152
H	1.092044	0.0	0.0
H	-0.318107	0.941512	0.459682
N	-0.232906	-1.317474	-2.098167
O	0.889337	-1.497262	-2.533845
O	-1.150127	-2.135369	-2.054599
C	-1.980654	0.232084	-1.467838
N	-3.137753	0.437939	-1.432373
C	-0.519993	-1.191544	0.798162
H	-0.108268	-2.128404	0.419136
H	-1.611277	-1.261848	0.798299
H	-0.176177	-1.084506	1.828931
Br	3.573553	0.0	0.0
