15

C	-0.474863	0.009295	-1.44805
C	0.0	0.0	0.0
Br	0.277253	-1.44152	-2.478307
H	1.092999	0.0	0.0
H	-0.334385	0.947981	0.435157
N	-2.014932	-0.116453	-1.414097
O	-2.533115	-1.202226	-1.624308
O	-2.591426	0.908663	-1.06268
C	-0.172856	1.262608	-2.13031
N	0.057023	2.270509	-2.689185
C	-0.522082	-1.178585	0.809193
H	-0.268689	-2.12765	0.33399
H	-0.036321	-1.160307	1.786721
H	-1.604661	-1.139934	0.96255
Br	3.536464	0.0	0.0
