13

C	0.0	0.0	0.0
C	-0.429162	0.089852	-1.510375
Cl	1.784426	0.0	0.0
H	0.453864	0.432688	-2.06785
C	-0.416451	1.204413	0.726443
N	-0.51039	2.210557	1.328371
C	-0.465446	-1.206735	0.680945
N	-0.566175	-2.223568	1.264642
C	-1.493501	1.058308	-1.799679
N	-2.111092	1.919268	-2.312537
C	-0.771738	-1.234642	-2.032719
N	-0.970158	-2.286489	-2.514847
F	-2.266013	0.0	0.0
