14

C	0.0	0.0	0.0
C	-0.509153	-0.115486	-1.435869
F	1.37864	0.0	0.0
H	-1.601177	-0.23388	-1.341613
H	-0.359514	-0.841479	0.59552
C	-0.409416	1.26239	0.641064
N	-0.572065	2.271431	1.218105
C	0.061004	-1.32267	-2.032396
N	0.523282	-2.27636	-2.538914
C	-0.183303	1.119657	-2.274365
H	-0.496442	0.965849	-3.308469
H	-0.731358	1.975247	-1.87655
H	0.886482	1.337142	-2.260175
Br	-3.559382	0.0	0.0
