14

C	0.0	0.0	0.0
C	-0.507638	-0.117747	-1.437589
F	1.378618	0.0	0.0
H	-1.598128	-0.251717	-1.347113
H	-0.357638	-0.842416	0.595709
C	-0.414289	1.262192	0.637962
N	-0.57535	2.276544	1.206308
C	0.08242	-1.313301	-2.038363
N	0.56163	-2.260109	-2.542198
C	-0.200129	1.127214	-2.270133
H	0.863644	1.372982	-2.237194
H	-0.490725	0.965693	-3.309645
H	-0.778561	1.966659	-1.880734
Br	-3.559688	0.0	0.0
