14

C	0.0	0.0	0.0
C	-0.508696	0.016806	-1.442136
F	1.378847	0.0	0.0
H	-1.597211	-0.137825	-1.36318
H	-0.360017	-0.892875	0.515065
C	-0.409306	1.1983	0.754498
N	-0.570179	2.149238	1.423607
C	0.094399	-1.10727	-2.156745
N	0.581093	-1.993595	-2.754792
C	-0.220313	1.340446	-2.150489
H	-0.514275	1.277137	-3.199693
H	-0.807535	2.130004	-1.678561
H	0.840769	1.595025	-2.09754
Br	-3.556473	0.0	0.0
