14

C	0.0	0.0	0.0
C	-0.368693	-0.177842	-1.504046
F	1.381341	0.0	0.0
H	0.604007	-0.052918	-1.995304
H	-0.372692	-0.825042	0.605474
C	-0.401964	1.289061	0.581344
N	-0.488515	2.352589	1.073139
C	-1.194825	0.871232	-2.108529
N	-1.635682	1.70083	-2.815762
C	-0.869573	-1.587591	-1.820812
H	-0.136068	-2.317668	-1.462585
H	-1.831849	-1.743149	-1.335032
H	-0.981421	-1.711376	-2.901182
Br	-3.31615	0.0	0.0
