15
Coordinates from ORCA-job run
  C   0.84558332052207     -0.15575476161728      0.38279766786712
  C   -0.24502382648638     -0.31932003011609     -0.68236382922322
  Br  2.46921952148857     -0.99853028431941     -0.25680988104704
  H   -0.33625240792514     -1.37335082242792     -0.94155327279915
  C   1.11529091699864      1.23738421206587      0.68931628012875
  N   1.34031637594218      2.38263882540315      0.83302317372511
  N   0.45274014435244     -0.91267988300693      1.65635432177666
  O   -0.18617985244744     -1.93882509744518      1.47424466887911
  O   0.85228101280713     -0.45553334354969      2.71377425411788
  N   0.04174257418464      0.46045469354125     -1.82685897818589
  H   -0.01128181452179      1.45647318077361     -1.65002234824458
  H   -0.55326969949513      0.20880849269486     -2.60393815732644
  N   -1.60046050325206      0.03704529816260     -0.05857529237370
  O   -1.61219594163343      0.65378222762661      1.00433511855169
  O   -2.57250982053432     -0.28159270778545     -0.73272372584630
