15
Coordinates from ORCA-job run
  C   0.85892689324267      0.01033129755036      0.28311937724829
  C   -0.33891701026700     -0.13501413530041     -0.66289012896699
  Br  2.47911070661850      0.04028885834298     -0.79689530564428
  H   -0.27455916099076     -1.11539411834058     -1.15006584397784
  C   0.79106005551706      1.21495884590214      1.08675663780194
  N   0.73505192970748      2.20879490073523      1.71230043385920
  N   0.99892471996810     -1.22815817036417      1.18319054531346
  O   0.71349668338423     -2.29299370569117      0.65645933435421
  O   1.42388350449115     -1.04115844124969      2.30986395314808
  N   -0.45034999516719      1.01545088496791     -1.51497064969834
  H   -1.38583073844778      1.04170246265890     -1.90396716874399
  H   0.21454361301345      0.95439818277132     -2.27497595101654
  N   -1.61009518733640     -0.19617268591736      0.16428390174194
  O   -1.49921972955794     -0.41807207167218      1.36527136794387
  O   -2.65602628417558     -0.05896210439327     -0.45748050336301
