15
Coordinates from ORCA-job run
  C   0.88191611532499     -0.19540295366279      0.26572500653933
  C   -0.32689514920444     -0.25330134827076     -0.67592098749062
  Br  2.40610309159572     -0.98675437866399     -0.63283712205154
  H   -0.46487394449391     -1.27800636473502     -1.01847945316314
  C   1.20971678224150      1.16149140870874      0.66387950788777
  N   1.46822315153341      2.28714462063954      0.88527660668114
  N   0.62440282126509     -1.06410404777108      1.50138633200010
  O   1.14329736617154     -0.70600625111224      2.54507461094390
  O   -0.04293609616564     -2.06850050399108      1.29970703492474
  N   -0.16193548016548      0.62884562535282     -1.76894168350611
  H   -0.18143731615038      1.60415379265772     -1.49589113170081
  H   -0.84452180003977      0.45268365483233     -2.49303708763009
  N   -1.59499761634269      0.05042384233839      0.13246109625595
  O   -2.64384302523486     -0.20703388019829     -0.44580575866390
  O   -1.47321890033509      0.57436678387571      1.23740302897329
