15
Coordinates from ORCA-job run
  C   0.83758266829139     -0.07308840707894      0.32934835231832
  C   -0.41310536790125     -0.39707833078803     -0.49476080949833
  Br  2.30005846357288     -1.17253829311494     -0.33945903874346
  H   -0.68414732269962     -1.44387651251151     -0.31276493603082
  C   1.21238227981319      1.32528086875111      0.25394875912368
  N   1.52722861859964      2.45415862633613      0.16092735919850
  N   0.65039993803329     -0.50028139154223      1.79415459223010
  O   1.20263365083165      0.18307785788520      2.63845517958125
  O   0.00029798115764     -1.52098766217646      1.96265806701790
  N   -0.23433711646713      0.00688375329074     -1.86164984694471
  H   0.35655642933582     -0.65504573339670     -2.34776859557219
  H   -1.14076724611476      0.02518231827488     -2.31475311216604
  N   -1.58045723623714      0.40623748324068      0.04608678129611
  O   -1.44404061961951      0.95827705409195      1.13276382792951
  O   -2.58928512059607      0.40279836873813     -0.64818657973984
