15
Coordinates from ORCA-job run
  C   0.68732335502873     -0.38675567918011      0.36660392325714
  C   -0.45029005447745      0.36092768495978     -0.35813145068748
  Br  0.19066660344831     -2.19885821721481      0.77798306601175
  H   -0.06121559578790      1.33795793114951     -0.65050941381852
  C   1.95648369934825     -0.37354090450508     -0.33990991638235
  N   3.01070432895906     -0.37083075617241     -0.86197872727752
  N   0.89434672287392      0.44379624452573      1.67187742692067
  O   1.28332069927272      1.58013241354312      1.44408937188740
  O   0.64518003162139     -0.06667332471802      2.74350835659005
  N   -1.57104314324521      0.48670370102638      0.48231510840614
  H   -2.05770597304903     -0.39326550852934      0.59781842348299
  H   -2.21582564829266      1.18564483090902      0.14032908320476
  N   -0.71142016854859     -0.36611950622042     -1.68710746473761
  O   0.16822564753520     -0.26234199212040     -2.53568712157684
  O   -1.76875050468667     -0.97677691745298     -1.79120066528061
