15
Coordinates from ORCA-job run
  C   0.80509987118551      0.01865214354359      0.31587268873082
  C   -0.29155915557483     -0.10110492581996     -0.76735903799998
  Br  2.51475012277108      0.16926421378003     -0.59909783205729
  H   -0.02018479960387     -0.90312000012901     -1.45162998494866
  C   0.63345168511856      1.17556403159788      1.17435001566273
  N   0.50043751699739      2.18061812939815      1.77060664882711
  N   0.87486965544212     -1.26145144475274      1.15160943104388
  O   0.63005745131029     -2.29120756319369      0.53818530850005
  O   1.19938492466095     -1.14419923402803      2.32175120996029
  N   -0.59481511041853      1.08698819192603     -1.47438100498051
  H   -0.60302315551401      1.91956337964729     -0.89998563289357
  H   -0.02785177929540      1.21172755079104     -2.29803549388712
  N   -1.56382410710783     -0.58306853107171     -0.08706361702621
  O   -1.69394535713832     -0.30903035343921      1.10548199810028
  O   -2.36384776283311     -1.16919558824968     -0.79830469703180
