15
Coordinates from ORCA-job run
  C   0.93213477599804     -0.23819533549399      0.18489487944617
  C   -0.27597885545211      0.17898839866770     -0.69249935162545
  Br  1.82055055211289     -1.88579857493180     -0.29556047669052
  H   0.13158959792826      0.48157384332272     -1.65887807575711
  C   1.90107572768622      0.84695677350653      0.12947265686136
  N   2.67811306645706      1.72124833683544      0.01156185907726
  N   0.46270731795447     -0.40389720583802      1.63526105603389
  O   1.18023396197535      0.04844181590676      2.51220257837264
  O   -0.58913661868698     -1.01487913737825      1.76765605241623
  N   -0.92970253601880      1.25361789626406     -0.04418330754422
  H   -1.38543747344927      1.86765738867807     -0.70467149211745
  H   -1.61425195968440      0.91056538122620      0.61990787410153
  N   -1.21066267522050     -0.98838288760882     -1.05071858174861
  O   -0.79154074380324     -1.76409377000891     -1.90209666815162
  O   -2.31069413779700     -1.01380292314771     -0.51334900267413
