15
Coordinates from ORCA-job run
  C   0.91951106957262     -0.27316634422851      0.15089482129097
  C   -0.23854466750155      0.18192699581983     -0.76823068281227
  Br  1.75019980921666     -1.85877498905640     -0.55471377865625
  H   0.14896695585552      0.21929714590242     -1.78727250444154
  C   1.90371279128521      0.79106381298229      0.25533692579068
  N   2.73266003564803      1.62212855667801      0.32444508987794
  N   0.38176276824046     -0.54216101092165      1.59082207757540
  O   0.03088402312196      0.47657819734590      2.17190935092229
  O   0.33861870685522     -1.68525752833488      1.99725545505593
  N   -0.76207057862608      1.43303935419371     -0.38603033365578
  H   -1.38324667935407      1.81240092815516     -1.08730598460584
  H   -1.20050721389979      1.42046713922053      0.52479975629838
  N   -1.27820045782572     -0.94428189548681     -0.80222923274326
  O   -1.92476456223937     -1.10415265109919      0.23075463536873
  O   -1.41798200034912     -1.55010771117047     -1.85943559526537
