15
Coordinates from ORCA-job run
  C   0.74642224064561     -0.33908397988047      0.28838374660948
  C   -0.50874661740784      0.33426873397018     -0.30283439714746
  Br  0.44248209569597     -2.20512596731168      0.64292153147438
  H   -0.23172094601103      1.35401210006211     -0.57648849627352
  C   1.94637844626432     -0.18035175483770     -0.51471732943558
  N   2.95408046984958     -0.05566088473866     -1.10883523481521
  N   0.99071186188528      0.44730037516942      1.61438085764487
  O   1.25805594880566      1.62352501288890      1.41578677200201
  O   0.87984526190868     -0.13156391923456      2.67443683011806
  N   -1.56037409201401      0.32282124350727      0.63080019142030
  H   -2.28901278790131      0.97612846170490      0.37899689584312
  H   -1.95902693210868     -0.60098437962560      0.74082005291143
  N   -0.81869254983509     -0.35581929746733     -1.64134511933898
  O   -0.01941037535608     -0.14767860881631     -2.54814541521739
  O   -1.83199202442109     -1.04278713539050     -1.69416088579546
