16

C	0.0	0.0	0.0
C	-0.570773	-0.152151	-1.386877
F	1.359745	0.0	0.0
H	-1.630494	-0.431589	-1.304491
H	-0.496686	0.791843	-1.924974
C	-0.54825	1.216775	0.690219
H	-1.640899	1.14773	0.710545
H	-0.142811	1.259825	1.701174
H	-0.241294	2.108149	0.138295
N	-0.351194	-1.223387	0.863847
O	-1.154072	-2.040822	0.440166
O	0.230397	-1.265143	1.946412
N	0.147945	-1.149409	-2.227173
O	0.125237	-0.946805	-3.440877
O	0.692544	-2.105177	-1.681317
Cl	-3.775845	0.0	0.0
