16

C	0.0	0.0	0.0
C	-0.588365	-0.156146	-1.378915
F	1.359843	0.0	0.0
H	-1.631799	-0.483514	-1.277463
H	-0.564874	0.792121	-1.911703
C	-0.524664	1.227037	0.695495
H	-0.112781	1.26076	1.704193
H	-1.617444	1.179853	0.717145
H	-0.198867	2.110927	0.141923
N	-0.351249	-1.218619	0.877623
O	-1.196439	-2.012567	0.491084
O	0.266464	-1.270507	1.939523
N	0.16485	-1.121135	-2.225581
O	0.649184	-2.114308	-1.689916
O	0.231063	-0.860017	-3.427245
Cl	-3.799201	0.0	0.0
