16

C	0.0	0.0	0.0
C	-0.552332	-0.046608	-1.411688
F	1.359021	0.0	0.0
H	-0.263821	-0.9659	-1.910781
H	-1.645169	0.061717	-1.355418
C	-0.529132	1.09765	0.874448
H	-0.261402	2.058718	0.435828
H	-1.61887	1.012761	0.920906
H	-0.088792	1.000664	1.865653
N	-0.32856	-1.361103	0.657135
O	0.004059	-1.460224	1.833804
O	-0.796274	-2.263993	-0.027918
N	0.029109	1.058688	-2.220163
O	0.814191	0.741978	-3.115555
O	-0.306823	2.213124	-1.96105
Cl	-3.732135	0.0	0.0
