16

C	0.0	0.0	0.0
C	-0.554601	-0.096299	-1.409548
F	1.359077	0.0	0.0
H	-1.646274	0.005343	-1.358416
H	-0.251947	-1.022171	-1.885769
C	-0.542489	1.1427	0.806149
H	-1.632276	1.049172	0.834572
H	-0.123329	1.105051	1.809838
H	-0.276926	2.08083	0.319835
N	-0.337006	-1.319117	0.720746
O	-0.028169	-1.356063	1.908301
O	-0.798967	-2.249982	0.070162
N	0.014359	1.003141	-2.237273
O	-0.446813	2.134207	-2.09491
O	0.916893	0.705176	-3.021498
Cl	-3.750108	0.0	0.0
