16

C	0.0	0.0	0.0
C	-0.600665	-0.183689	-1.368286
F	1.359789	0.0	0.0
H	-1.651475	-0.480906	-1.247514
H	-0.57166	0.751701	-1.92385
C	-0.520667	1.241905	0.672634
H	-1.612611	1.201079	0.714293
H	-0.203299	2.110819	0.092706
H	-0.095017	1.300352	1.673764
N	-0.345987	-1.207155	0.892745
O	-1.104803	-2.066044	0.469475
O	0.210764	-1.204732	1.988523
N	0.106043	-1.182153	-2.215052
O	0.727202	-2.091354	-1.670401
O	-0.007638	-1.033255	-3.430218
Cl	-3.764101	0.0	0.0
