18

C	-0.66364	-0.060927	-1.574084
C	0.111619	-0.052309	-0.243966
Cl	-0.384567	-1.629362	-2.455744
H	1.180048	-0.163851	-0.481287
C	-2.166296	0.114726	-1.405683
H	-2.567365	-0.69794	-0.799243
H	-2.664837	0.112086	-2.376758
H	-2.349361	1.070667	-0.912088
C	-0.148733	0.992836	-2.455114
N	0.211094	1.804695	-3.224388
C	-0.246059	-1.169836	0.730855
H	-0.083111	-2.174083	0.329167
H	-1.285615	-1.084166	1.069769
H	0.429096	-0.968322	1.569846
N	-0.031546	1.274264	0.34021
H	0.752239	1.234446	1.065642
H	-0.887538	1.268424	0.892166
F	1.775528	0.542864	2.002258
