18

C	-0.229154	0.073675	-1.501748
C	0.011927	0.146454	0.028577
Cl	0.41671	1.611457	-2.241238
H	1.10719	0.232424	0.126839
C	0.474826	-1.104932	-2.159946
H	0.507653	-0.970777	-3.243912
H	1.471364	-1.193282	-1.670296
H	-0.087398	-2.016291	-1.935751
C	-1.669933	0.082757	-1.777505
N	-2.833998	0.054457	-1.943686
C	-0.325879	-1.192324	0.671682
H	-0.361118	-1.040938	1.753387
H	-1.291618	-1.600704	0.347729
H	0.511682	-1.851082	0.436291
N	-0.685183	1.241642	0.692623
H	-0.425924	2.120546	0.260138
H	-1.688214	1.12841	0.576803
F	2.452289	-1.236205	-0.236578
