18

C	-0.228062	0.032325	-1.461388
C	-0.018788	0.081379	0.05548
Cl	0.230249	1.668189	-2.138409
H	1.051015	0.281184	0.182875
C	0.653164	-1.019213	-2.126033
H	1.629511	-1.013371	-1.595872
H	0.717574	-0.833015	-3.200491
H	0.197194	-2.00138	-1.969636
C	-1.644306	-0.152683	-1.799006
N	-2.757739	-0.372976	-2.10407
C	-0.226792	-1.300194	0.662003
H	-1.139274	-1.79158	0.308206
H	-0.297344	-1.201642	1.751491
H	0.687917	-1.853553	0.440158
N	-0.946418	1.060606	0.637715
H	-0.859085	0.999626	1.646088
H	-0.640126	1.991818	0.376622
F	2.565967	-1.050227	-0.090502
