18

C	-0.229841	0.03925	-1.484268
C	-0.003096	0.115227	0.028761
Cl	0.212524	1.66477	-2.195789
H	1.074718	0.317881	0.138833
C	0.649498	-1.019248	-2.141167
H	1.632158	-0.997139	-1.622944
H	0.200999	-2.001045	-1.962304
H	0.700313	-0.85151	-3.219317
C	-1.648813	-0.159057	-1.802101
N	-2.763713	-0.394323	-2.090288
C	-0.202096	-1.255719	0.661338
H	-1.114665	-1.757607	0.322601
H	-0.266158	-1.139282	1.749422
H	0.711576	-1.811575	0.442723
N	-0.925665	1.10304	0.604928
H	-0.82272	1.062268	1.612921
H	-0.624575	2.029487	0.321586
F	2.589864	-0.985332	-0.131177
