14

C	0.0	0.0	0.0
C	-0.491544	0.199535	-1.429902
F	1.405687	0.0	0.0
H	-1.587949	0.253838	-1.335315
H	-0.130262	-0.608985	-2.062287
N	-0.516785	1.002638	0.850928
H	-0.290926	0.75721	1.810125
H	-1.553802	0.861451	0.70069
C	-0.349386	-1.396623	0.402226
N	-0.499683	-2.51326	0.734565
N	0.071727	1.449564	-1.994797
O	-0.539001	2.498768	-1.800461
O	1.12053	1.358106	-2.639285
F	-2.739812	0.0	0.0
