14

C	0.0	0.0	0.0
C	-0.513524	-0.25148	-1.415299
F	1.411628	0.0	0.0
H	-0.118005	-1.171091	-1.848749
H	-1.616299	-0.28062	-1.260191
N	-0.505463	1.15086	0.66537
H	-0.28927	1.950502	0.080971
H	-1.534941	0.962837	0.611083
C	-0.380018	-1.208318	0.777707
N	-0.507496	-2.215498	1.366242
N	-0.203393	0.822378	-2.391579
O	-0.640766	0.650087	-3.52972
O	0.440734	1.814091	-2.041392
F	-2.747179	0.0	0.0
