14

C	0.0	0.0	0.0
C	-0.522419	-0.066215	-1.422986
F	1.376037	0.0	0.0
H	-0.300515	0.878709	-1.913859
H	-1.615395	-0.224147	-1.298558
N	-0.530346	1.201726	0.561287
H	-0.314471	1.202471	1.553852
H	-1.564118	1.006252	0.462848
C	-0.362998	-1.199968	0.813326
N	-0.538051	-2.064157	1.589045
N	0.104788	-1.130112	-2.232637
O	0.407893	-0.851041	-3.395662
O	0.25366	-2.239708	-1.723467
F	-2.756772	0.0	0.0
