14

C	0.0	0.0	0.0
C	-0.517071	0.038772	-1.440732
F	1.379893	0.0	0.0
H	-1.608353	-0.11151	-1.327601
H	-0.021466	-0.704335	-2.07166
N	-0.535736	0.97769	0.882833
H	-0.305945	1.886687	0.499455
H	-1.56351	0.786317	0.74526
C	-0.431918	-1.339802	0.507092
N	-0.647009	-2.429578	0.886666
N	-0.315674	1.348465	-2.118436
O	0.467419	2.172544	-1.638943
O	-0.953706	1.522763	-3.158712
F	-2.756071	0.0	0.0
