14
Coordinates from ORCA-job run
  C   -0.42924659053685      0.55442833921472      0.40289392201663
  C   0.69115700313948     -0.39971495216780     -0.00932658617600
  F   -0.37598828467072      1.63912177192201     -0.45812596893769
  H   0.75914108381837     -1.21922428351599      0.71193761131225
  H   -0.19599138258322      0.92133951451076      1.40545115160333
  C   -1.79531207053114     -0.08213102182586      0.33282374085826
  H   -1.85623532133377     -0.94955921539175      0.99413012482517
  H   -2.02046081425225     -0.39378296192109     -0.68828814599809
  H   -2.54581617231186      0.64454345515390      0.64635780708046
  N   2.00960602807447      0.34276652919502      0.10536622432641
  O   2.67187940411033      0.51572128099555     -0.90748546002874
  O   2.28367964606471      0.71424826951143      1.24051114350619
  C   0.50976083378488     -0.91899812994530     -1.35818122541366
  N   0.29282663722757     -1.36975859573559     -2.42006433897454
