14
Coordinates from ORCA-job run
  C   -0.44412698054643      0.56161797165327      0.37531311021199
  C   0.69523487427972     -0.39242218354361      0.01846780856936
  F   -0.38311270148722      1.61875397358277     -0.51937560232385
  H   0.75500090282564     -1.18838282532513      0.76637235156923
  H   -0.23665368559175      0.96351768100668      1.37008922176854
  C   -1.80189466935880     -0.09125928877571      0.29582683358449
  H   -1.99923292051135     -0.44249834455484     -0.71806507548427
  H   -1.87122521326406     -0.93448649907562      0.98674605897970
  H   -2.56623596529659      0.63893500964963      0.56392174855503
  N   2.00285474381552      0.36806173997050      0.14026839282787
  O   2.24635261012545      0.77771511806371      1.26919711496488
  O   2.68702737653197      0.51664321802619     -0.86181694702419
  C   0.55055470421465     -0.95472170917915     -1.31742093468842
  N   0.36345692426326     -1.44047386149867     -2.36952408151035
