14
Coordinates from ORCA-job run
  C   -0.40933838857941      0.10277126678002      0.69020343646372
  C   0.65363212055049     -0.32589191799794     -0.32032017807819
  F   -0.20583835283087      1.44951287380909      0.94689866489482
  H   0.59961086666665     -1.40758891193027     -0.47359176565523
  H   -0.21757506957789     -0.43923783961433      1.61936698076924
  C   -1.81527701072826     -0.11020219085106      0.18604355379694
  H   -1.99452625529819     -1.16442282810353     -0.03730943465817
  H   -2.52308890553373      0.20539108970878      0.95353091981741
  H   -1.99286008538074      0.48171810150150     -0.71315841134674
  N   2.01893389630192     -0.07888182285335      0.29494446404977
  O   2.23823576101328     -0.72218681534108      1.31462620553239
  O   2.76793092180907      0.71963119697050     -0.24879546880166
  C   0.52804837301977      0.37734407139901     -1.58982839872184
  N   0.35311212856793      0.91104372652267     -2.62061056806247
