14
Coordinates from ORCA-job run
  C   -0.69613859239258     -0.45320872442153      0.29340399190774
  C   0.81449827302317     -0.33973566301922      0.03968739385549
  F   -0.82611406917253     -1.34353724306528      1.34835776558062
  H   1.31194066977945      0.04219847243571      0.93283287552100
  H   -1.16989670068998     -0.90298147070036     -0.58263652600044
  C   -1.32849889618393      0.86622649872748      0.66163836162077
  H   -1.32601051260056      1.55617770719103     -0.18377851324408
  H   -0.80235922849248      1.32796583011962      1.49926885253907
  H   -2.36446501160676      0.68972273986541      0.95413950131465
  N   1.02068101119589      0.68547713530843     -1.04240228614293
  O   0.64504240755293      0.37011468437784     -2.16652682658348
  O   1.48603395266844      1.76572035195571     -0.69513735076363
  C   1.39081427825452     -1.61375241057601     -0.37115804166175
  N   1.84347241866443     -2.64938790819884     -0.68768919794303
