14
Coordinates from ORCA-job run
  C   -0.51465481597998     -0.30267797113470      0.78079319359254
  C   0.85070015785115     -0.51215125605964      0.10613095199823
  F   -0.26792767594575      0.32086870201298      1.99247547687872
  H   1.53290894792927     -0.97135607227335      0.82439366773203
  H   -0.90936414345937     -1.30057547573922      0.99862915925440
  C   -1.50413656756665      0.51222344248666     -0.01516429008375
  H   -2.44882228806864      0.54468561571083      0.52900379081984
  H   -1.14579448889608      1.53253455501416     -0.14948390192441
  H   -1.67860082767042      0.06934046445777     -0.99703985623009
  N   1.45997935954916      0.82376762984763     -0.24232708607592
  O   2.20496412076718      1.30718113737181      0.60184248622458
  O   1.12317209119559      1.32953755502071     -1.30800685104837
  C   0.71934221517635     -1.32900246347922     -1.09204043120648
  N   0.57723391511821     -2.02437586323642     -2.02720630993134
