14
Coordinates from ORCA-job run
  C   -0.74475377201607     -0.42124155019247      0.21272716365414
  C   0.78400563392607     -0.40347716545456      0.06513090625537
  F   -1.00905391425932     -1.37384726050072      1.18512583427693
  H   1.24453480279378     -0.13207678269535      1.01658339784365
  H   -1.18732592634751     -0.76937653790951     -0.72381109060815
  C   -1.30731155305388      0.91162369290575      0.64098553122667
  H   -2.37071712647352      0.79207252617681      0.85253750360945
  H   -0.80933105701104      1.27123597564941      1.54345958480038
  H   -1.19876938079318      1.65859781510146     -0.14715274542510
  N   1.13669300480565      0.68474634697509     -0.91253418729239
  O   1.66540575350316      1.69003399805434     -0.45013372861611
  O   0.80739825583300      0.49261518509683     -2.07839161492825
  C   1.29536650739439     -1.68122651009330     -0.41421963274794
  N   1.69385877169846     -2.71967973311376     -0.78930692204867
