14
Coordinates from ORCA-job run
  C   -0.50909161768442     -0.31108999888445      0.78100128675249
  C   0.86593375583062     -0.48452478671321      0.11587735043122
  F   -0.28898034605783      0.33073056728529      1.98834809401072
  H   1.55871880363702     -0.91285055291152      0.84294116819934
  H   -0.87418599351968     -1.31869769638240      1.00582881989921
  C   -1.51861732147683      0.46563900772480     -0.02792838219812
  H   -1.19139610570337      1.49546256075053     -0.16922462652178
  H   -1.67342424456279      0.00902563776091     -1.00681875233543
  H   -2.46707277093839      0.47357761692074      0.51057744039326
  N   1.43362486113217      0.86628494806767     -0.24504415134963
  O   1.08598468611978      1.34910325734830     -1.31797824278443
  O   2.15785088249623      1.38353422402116      0.59717390368260
  C   0.76731528277724     -1.31899211507016     -1.07320067069263
  N   0.65134012795026     -2.02820266991767     -2.00155323748682
