14
Coordinates from ORCA-job run
  C   -0.50535145151197     -0.31755024700620      0.78047393031133
  C   0.85610372381267     -0.50609140421834      0.09235880722174
  F   -0.25440325930920      0.29195503257010      1.99863868069305
  H   1.54879521484037     -0.96754942100931      0.79906025944964
  H   -0.88961971868431     -1.32178905312553      0.98806719705594
  C   -1.50873819036331      0.49874297962452      0.00367630235768
  H   -1.16128210512669      1.52427255872170     -0.11960726012431
  H   -2.44930448285629      0.51466182290466      0.55576273582201
  H   -1.68694468799288      0.06746869123700     -0.98277144195497
  N   1.45069823798230      0.84024485597151     -0.24284963507005
  O   2.19923599301266      1.31838116378188      0.60118593609350
  O   1.09951789781843      1.35810763110398     -1.29797719935412
  C   0.72228807670037     -1.30777249771194     -1.11566943957989
  N   0.57800475167787     -1.99108211284405     -2.05934887292155
