14
Coordinates from ORCA-job run
  C   -0.51566626532182     -0.30714911500951      0.77833621575650
  C   0.85478184337236     -0.50513228607222      0.11062761141039
  F   -0.28111546648507      0.31947909547058      1.99095090297033
  H   1.53841207534471     -0.95786725980165      0.83153247317124
  H   -0.90262643811631     -1.30838833617324      0.99495456256887
  C   -1.50796127428641      0.49858076643771     -0.02357373612150
  H   -1.67273744513797      0.05437180623103     -1.00653666150987
  H   -1.15798274597328      1.52215773382443     -0.15546086313875
  H   -2.45614301261704      0.52263256034233      0.51498748242205
  N   1.45383064548979      0.83636872360599     -0.23517016997555
  O   1.11767217041807      1.33912619461968     -1.30252821943750
  O   2.19017253612525      1.32672396629431      0.61259531333224
  C   0.73593973885450     -1.32314042346980     -1.08802512951900
  N   0.60342363833322     -2.01976342629964     -2.02368978192945
