15
Coordinates from ORCA-job run
  C   0.89751264150806      0.11654466735289     -0.00254044032785
  C   -0.63193602764244     -0.14342526557175     -0.08635321261878
  Br  1.83896064631174     -1.33307511928453      0.83444501850717
  H   -1.03319316717843      0.77504965816378     -0.53583558849070
  C   1.45177089467680      0.35446987679863     -1.32643242647437
  N   1.84370334132485      0.51325466331246     -2.42392152893123
  N   1.04782483994377      1.41797544452723      0.81316670150279
  O   0.58271537687453      2.39608219619039      0.23909564111390
  O   1.55007061782272      1.37644852480738      1.91818684818602
  N   -1.14234149401766     -0.23128708271064      1.25120929405704
  H   -2.11705043983573      0.03124040297752      1.29303901934157
  H   -1.02348735094479     -1.16991551197755      1.61284318621132
  N   -0.85705895497488     -1.34261667792243     -0.87284854707929
  H   -0.55968628071204     -1.21750348716259     -1.83520159415424
  H   -1.84980464315650     -1.54424228950079     -0.87885237084335
