18

C	0.0	0.0	0.0
C	-0.094477	-0.032061	-1.579895
Br	2.203419	0.0	0.0
H	0.713408	-0.659538	-1.95098
N	-0.348516	1.20385	0.616273
H	0.34793	1.824425	0.973529
H	-1.311541	1.250243	0.921367
N	-0.488872	-1.107113	0.604822
H	-0.89809	-1.807299	0.003844
H	-1.007108	-0.928649	1.449796
C	-0.039398	1.359099	-2.16221
H	0.028601	1.315069	-3.249709
H	-0.935743	1.908367	-1.878406
H	0.83746	1.872756	-1.77019
N	-1.293758	-0.778659	-2.153875
O	-1.365049	-1.97838	-1.877397
O	-2.002365	-0.214439	-2.973719
Cl	-3.43035	0.0	0.0
