18

C	0.0	0.0	0.0
C	-0.471576	0.09477	-1.481356
Br	1.963209	0.0	0.0
H	-1.538511	0.339317	-1.405219
N	-0.410356	1.080896	0.857311
H	-1.43141	1.022448	0.888953
H	-0.170434	1.970075	0.433783
N	-0.46364	-1.264128	0.501244
H	-1.485212	-1.23829	0.404746
H	-0.26684	-1.260703	1.498085
C	-0.261309	-1.157094	-2.302079
H	-0.860795	-1.956557	-1.871104
H	0.786716	-1.457404	-2.305529
H	-0.582442	-0.985022	-3.331054
N	0.162679	1.275925	-2.153083
O	-0.113888	2.394777	-1.713972
O	0.923706	1.081253	-3.099995
Cl	-3.538089	0.0	0.0
