18

C	0.0	0.0	0.0
C	-0.26532	-0.026282	-1.514517
Br	2.144934	0.0	0.0
H	0.239015	0.841521	-1.934136
N	-0.345507	1.296148	0.511188
H	-1.242155	1.234778	0.987147
H	0.369059	1.673155	1.115108
N	-0.562383	-1.040053	0.680937
H	-0.487743	-1.95023	0.252602
H	-0.48525	-1.016553	1.684828
C	-1.74653	-0.03457	-1.844983
H	-1.873649	0.05574	-2.927123
H	-2.242195	-0.93174	-1.48185
H	-2.253545	0.7926	-1.353426
N	0.364154	-1.200673	-2.195475
O	0.967557	-0.986613	-3.243245
O	0.18975	-2.32014	-1.708495
Cl	-4.557676	0.0	0.0
