18

C	0.0	0.0	0.0
C	-0.258754	0.016473	-1.519399
Br	2.143839	0.0	0.0
H	0.253358	0.892407	-1.910815
N	-0.367047	1.279931	0.53538
H	-1.247397	1.191327	1.035325
H	0.355509	1.688112	1.104825
N	-0.565036	-1.054496	0.644365
H	-0.592626	-1.038514	1.647935
H	-0.547567	-1.950009	0.186125
C	-1.734822	0.030677	-1.876297
H	-2.249236	-0.872777	-1.557139
H	-1.83585	0.156052	-2.958943
H	-2.247497	0.848814	-1.373727
N	0.367488	-1.143014	-2.229897
O	0.177336	-2.273679	-1.776084
O	0.980208	-0.904729	-3.266715
Cl	-4.544911	0.0	0.0
