18

C	0.0	0.0	0.0
C	-0.446961	-0.057071	-1.482757
Br	2.049993	0.0	0.0
H	-1.514145	0.208758	-1.427338
N	-0.490599	1.131022	0.618661
H	-0.438608	1.985223	0.091808
H	-0.267651	1.194368	1.597526
N	-0.392473	-1.126686	0.785904
H	-0.028419	-1.989976	0.406548
H	-1.41823	-1.120729	0.779816
C	-0.258302	-1.401546	-2.144599
H	-0.928417	-2.117232	-1.669257
H	0.776199	-1.741971	-2.074686
H	-0.529027	-1.339626	-3.198281
N	0.213424	1.02337	-2.288929
O	0.916637	0.706824	-3.246269
O	0.004104	2.189702	-1.947094
Cl	-3.591722	0.0	0.0
