18

C	0.0	0.0	0.0
C	-0.488848	0.064606	-1.455548
Br	2.064671	0.0	0.0
H	-1.569318	0.23404	-1.348549
N	-0.449746	1.137701	0.709455
H	-1.470757	1.156421	0.604759
H	-0.213324	1.056135	1.692278
N	-0.406555	-1.248382	0.543127
H	-0.508398	-1.201627	1.547147
H	0.190606	-2.01644	0.273523
C	-0.230992	-1.18261	-2.271027
H	0.82601	-1.45279	-2.273634
H	-0.543428	-1.01691	-3.30285
H	-0.837318	-1.987853	-1.856533
N	0.05462	1.271107	-2.157874
O	1.012619	1.115316	-2.918721
O	-0.501685	2.346361	-1.945177
Cl	-3.619229	0.0	0.0
