18

C	0.0	0.0	0.0
C	-0.174731	0.087972	-1.580746
Br	2.053677	0.0	0.0
H	0.605717	-0.530308	-2.02052
N	-0.432709	1.105928	0.774698
H	-0.049524	1.98242	0.447956
H	-1.458336	1.107081	0.716326
N	-0.477075	-1.183752	0.543625
H	-1.006705	-1.747602	-0.104878
H	-0.998758	-1.003742	1.388215
C	-0.090525	1.513177	-2.080334
H	0.834146	1.97047	-1.723829
H	-0.953589	2.082339	-1.734593
H	-0.088206	1.534503	-3.170827
N	-1.409411	-0.572874	-2.176702
O	-1.474684	-1.798393	-2.050406
O	-2.169842	0.102677	-2.854655
Cl	-3.526285	0.0	0.0
