18

C	0.0	0.0	0.0
C	-0.188035	0.114044	-1.577256
Br	2.053463	0.0	0.0
H	0.611675	-0.468775	-2.031922
N	-0.432982	1.092363	0.796831
H	-1.458932	1.081882	0.744157
H	-0.066142	1.974531	0.468405
N	-0.45294	-1.199376	0.540429
H	-0.987585	-1.026269	1.37915
H	-0.981727	-1.755702	-0.115433
C	-0.149482	1.552536	-2.045071
H	-1.043179	2.075811	-1.704459
H	-0.123986	1.598767	-3.133969
H	0.746404	2.039038	-1.657149
N	-1.397041	-0.578389	-2.188908
O	-2.123983	0.059859	-2.936832
O	-1.460274	-1.796901	-2.021595
Cl	-3.465732	0.0	0.0
