13
Coordinates from ORCA-job run
  C   0.59408321475250     -0.58668655418469      0.41539711046198
  C   -0.49741964233238      0.10708075944310     -0.40263527743287
  F   0.54799339830056     -1.94202945131409      0.08018010855020
  H   -0.28088718922402     -0.10366292684784     -1.45632923858376
  H   0.36520845990345     -0.52387043804272      1.48334202742021
  N   1.85659679757109     -0.00078230524478      0.16846051059467
  H   2.13434136646869     -0.12603796965758     -0.79707633858050
  H   2.56929675427983     -0.39243010641242      0.76875588039765
  C   -0.42291356106435      1.56770167037345     -0.19834956989640
  N   -0.47195417948326      2.72768067290034     -0.02067261491469
  N   -1.80302598779760     -0.45555370734164     -0.09552273664572
  H   -2.10502380612004     -0.14526637076325      0.82086424502403
  H   -2.48729562525447     -0.12914327290789     -0.76641410639481
