13
Coordinates from ORCA-job run
  C   0.88597849745512     -0.30324981462582     -0.27146348742734
  C   -0.61441490933962     -0.02640423263361     -0.35112124966878
  F   1.48635770698049      0.93508890821381      0.06449946506632
  H   -1.10650781034824     -0.97190685122365     -0.59437561176388
  H   1.29733160011919     -0.57142215102401     -1.24645255872400
  N   1.13053645045982     -1.31674289753493      0.67116340442305
  H   0.69209700005255     -1.08349061685235      1.55297990784539
  H   2.11900861009328     -1.48636638447420      0.79352271380127
  C   -0.89746187790810      0.93331384786147     -1.43567150511609
  N   -1.15175591072369      1.69217647132424     -2.29480656085434
  N   -1.06718459163140      0.40816944834098      0.96436862513828
  H   -2.07735319604427      0.45863587844230      0.99356259812097
  H   -0.69763156916512      1.33219839418576      1.15379425915916
