13
Coordinates from ORCA-job run
  C   0.58027936787477     -0.67110313211713      0.32672205205236
  C   -0.55010667350541      0.03996184957615     -0.42140277420648
  F   0.49582877965530     -2.01343604045169      0.03698249794331
  H   -0.46168944913003     -0.29543680403443     -1.45828909688522
  H   0.41715462295948     -0.58504504374403      1.41222776071677
  N   1.85614982845183     -0.21496747774114     -0.15004579286716
  H   2.58638243599588     -0.77982291027480      0.26616213466678
  H   2.01651737120858      0.75167853837393      0.10577479464863
  C   -0.32060718922598      1.49806324513017     -0.38037117380383
  N   -0.16778781855157      2.65890195334041     -0.28157714822299
  N   -1.84172939195105     -0.36756930014888      0.10413472717821
  H   -2.57894518349984     -0.12078744136718     -0.54341814708144
  H   -2.03144670028197      0.10056256345861      0.98210016586106
