13
Coordinates from ORCA-job run
  C   0.49038053015709     -0.62516463550666      0.40284622361889
  C   -0.51822620143057      0.17978643472122     -0.43139063843798
  F   0.08358553465104     -1.95997456186042      0.25166625832421
  H   -0.34208153839443     -0.10086381591277     -1.47821599939286
  H   0.37358673300160     -0.39604760769932      1.46620099733472
  N   1.82793551810917     -0.46128827728211     -0.00747293705679
  H   2.43519337430082     -0.05234676399393      0.68140466591515
  H   1.95490113544331     -0.03923148626795     -0.91395424496743
  C   -0.20972085740452      1.60801517358022     -0.28790802668755
  N   0.05866081051443      2.73892956428550     -0.12644673060717
  N   -1.92218684217947     -0.05809969940966     -0.14305069529073
  H   -2.13376288007106      0.21954894423865      0.80859036041195
  H   -2.09826531669740     -1.05226326889278     -0.22326923316440
