13
Coordinates from ORCA-job run
  C   0.56818648836390     -0.51113199181968      0.44874888573890
  C   -0.51050693956402      0.25464648557728     -0.31133595260599
  F   0.27319070622669     -1.87887910387440      0.22639478728845
  H   -0.34315501260670      0.06530753765935     -1.38556799546054
  H   0.45465979154696     -0.34836107431804      1.52145088375424
  N   1.85967683549820     -0.15265275151405      0.02315649402748
  H   2.01086860724125     -0.37917857828042     -0.95099027525507
  H   2.57799777500472     -0.58440778414102      0.58714781389248
  C   -0.34643847817814      1.69421966328043     -0.08464533410619
  N   -0.25704661468052      2.85227876616439      0.08008971790133
  N   -1.81773284912536     -0.17011385991368      0.17184131110083
  H   -1.91785571022423     -1.16207584418824     -0.00309246902575
  H   -2.55184459950276      0.32034853536807     -0.32319786725019
