13
Coordinates from ORCA-job run
  C   0.52414041112224     -0.66517158381288      0.37230184580924
  C   -0.51553619380640      0.21328754680959     -0.32261823879751
  F   0.11662621281696     -1.98399015511585      0.12854443610434
  H   -0.41038507928118      0.01353282569670     -1.40107605491888
  H   0.44114341386141     -0.54206269111843      1.45688097201112
  N   1.82084695663991     -0.46576203406632     -0.16090842298158
  H   1.94997031217046      0.43206832739902     -0.60230622879911
  H   2.55355283044119     -0.63113226206873      0.51146316257574
  C   -0.19346571621323      1.62656042730858     -0.09406036150201
  N   0.08770089080770      2.75415328965471      0.06950081749233
  N   -1.83059768231211     -0.09042159632968      0.22323279949796
  H   -2.54543916865018      0.42075679620556     -0.27937067295824
  H   -2.00055718759677     -1.08081889056227      0.09841594646659
