13
Coordinates from ORCA-job run
  C   0.56652116967819     -0.52477313872311      0.43498481909963
  C   -0.50743184303141      0.26245783485693     -0.30956615634726
  F   0.29599272120403     -1.88392496615978      0.13882773249457
  H   -0.31684766370724      0.12542282330708     -1.38774365903126
  H   0.42819378030449     -0.41752954618779      1.51170376912524
  N   1.86116074542684     -0.12839587159560      0.05557481717652
  H   2.03560376207544     -0.30172644959663     -0.92554902990996
  H   2.57389742402874     -0.57890972041590      0.61185314693239
  C   -0.36928606436572      1.69155300909673     -0.01103360025939
  N   -0.29945209282226      2.84147837448970      0.21009215268057
  N   -1.81794628256090     -0.20216057810284      0.12672809995999
  H   -2.54882450649148      0.30145799203988     -0.35985157642040
  H   -1.90058114973873     -1.18594976300867     -0.09702051550064
