13
Coordinates from ORCA-job run
  C   0.52689736357965     -0.76727752834431     -0.07389608176082
  C   -0.69217876515535      0.04430526979742     -0.53081271912681
  F   1.28307729581045     -1.06538590129718     -1.21818118367828
  H   -1.16517088067578     -0.50031529965168     -1.35308710152646
  H   0.18784684677396     -1.72436634187391      0.33199625921674
  N   1.25619538692947     -0.06663850291272      0.91302467521937
  H   1.97635188830943     -0.64259638301082      1.32693385229631
  H   1.67898177116782      0.77029068576079      0.52799795973396
  C   -0.21951916992764      1.33312890888822     -1.06174419492123
  N   0.21012823251704      2.35783063961535     -1.43898857890822
  N   -1.67702622269145      0.27714669077715      0.51215848883377
  H   -1.19349422424749      0.56731133856639      1.35465197571482
  H   -2.17208952239011     -0.58343357631471      0.71094664890689
