13
Coordinates from ORCA-job run
  C   0.61486215788651     -0.56789547050048      0.41041299895549
  C   -0.51906410749516      0.08961358375421     -0.37956249242815
  F   0.54579363103753     -1.93845179865787      0.14877112777932
  H   -0.36347770397236     -0.17569734821920     -1.43163104945358
  H   0.44633219870844     -0.44873986984502      1.48477096080191
  N   1.86336140485102     -0.00321054229434      0.06333975116187
  H   2.60730153570460     -0.36903543042936      0.64163517871141
  H   2.08561232527808     -0.17866286343814     -0.90872329363526
  C   -0.42834145724156      1.55825803561101     -0.25398063289140
  N   -0.46320952896982      2.72596763681502     -0.13251177778759
  N   -1.80669663984955     -0.44887881269589      0.02952880732955
  H   -2.52722090250637     -0.15376727513671     -0.61744411812775
  H   -2.05525291343135     -0.09049984496322      0.94439453958418
