13
Coordinates from ORCA-job run
  C   0.52505977754924     -0.44704553263762      0.44925924299930
  C   -0.52432359660857      0.21831768812658     -0.44897321560477
  F   0.25157573641900     -1.83407069993250      0.37122157168401
  H   -0.29638352294427     -0.08121543803503     -1.48022819347494
  H   0.36865000234721     -0.17174876815108      1.49529481455171
  N   1.83309078115482     -0.11867003982517      0.05237688487803
  H   2.02656701956626     -0.42199446689363     -0.89312028414311
  H   2.53102192657790     -0.49371847872326      0.67930356945288
  C   -0.38539066012836      1.67575975837249     -0.35909789154454
  N   -0.28724764050824      2.83928113777365     -0.24604759846775
  N   -1.90262524092575     -0.16017520858641     -0.17725110053774
  H   -2.17693982402670      0.16519730515096      0.74253416669399
  H   -1.96505475847254     -1.17091725663898     -0.18327196648706
