13
Coordinates from ORCA-job run
  C   0.52129669826559     -0.45007865522887      0.45255693287112
  C   -0.51257852286532      0.22124158109905     -0.45903118507854
  F   0.28244120522556     -1.83942021403189      0.32156233455158
  H   -0.24358980947693     -0.03966368984028     -1.49092526441557
  H   0.32442233487356     -0.21241926428429      1.50097410559516
  N   1.83387269932947     -0.08053862483807      0.11032692902483
  H   2.06527299717286     -0.35019032641836     -0.83687453565881
  H   2.51920681570837     -0.45971608752102      0.74862068051467
  C   -0.41015222367953      1.67785349130605     -0.31893757957721
  N   -0.35742369947244      2.84044352309627     -0.17134515032436
  N   -1.89015473861086     -0.19524746535231     -0.24620467369030
  H   -1.92944697381915     -1.20639402528903     -0.28636222687004
  H   -2.20216678265120      0.09412975730276      0.67363963305747
