13
Coordinates from ORCA-job run
  C   0.61599540067319     -0.81016517625268     -0.03941190550784
  C   -0.64638445452240     -0.10416476256052     -0.52821267711876
  F   1.42994956286296     -1.03033760737727     -1.15982118767206
  H   -1.05015257585168     -0.68802800159275     -1.35950557994246
  H   0.33340849985199     -1.78788883917816      0.35375465908880
  N   1.25290719200860     -0.05023151801584      0.96932525784373
  H   1.98257048147933     -0.57708798366042      1.42937736490028
  H   1.64729659895705      0.80172824916075      0.58687126041139
  C   -0.28219046016012      1.23444777650245     -1.04254679315680
  N   -0.00314591624077      2.32212703672935     -1.38715250261000
  N   -1.60854310245610     -0.09163549520415      0.55865066772525
  H   -2.46438670440300      0.36858755658747      0.27560785137248
  H   -1.20932452219905      0.41164876486177      1.34206358466598
