13
Coordinates from ORCA-job run
  C   0.58388451859494     -0.66231356012937      0.33252242664046
  C   -0.56470469734140      0.03052920362067     -0.40566407090731
  F   0.47994800420866     -2.01367239563855      0.09591520012128
  H   -0.51067028254388     -0.34216646287321     -1.43204557019728
  H   0.45554278292847     -0.53455092654755      1.41858242849799
  N   1.84736691317262     -0.23584526131834     -0.20117063001313
  H   2.02449044606282      0.73746803885383      0.01495687244744
  H   2.58557437422531     -0.79311940638949      0.21120627514927
  C   -0.32207180362753      1.48683556297361     -0.42121977035050
  N   -0.13540287221145      2.64541824104096     -0.36333341379638
  N   -1.84198519408557     -0.34896325171011      0.17385869607257
  H   -2.59720847059147     -0.12472297270894     -0.46103435975860
  H   -2.00376371879150      0.15510319082648      1.03742591609419
