13
Coordinates from ORCA-job run
  C   0.91701848316801     -0.33867138328145     -0.22979452087160
  C   -0.55244969484488      0.08805934098483     -0.33658389062777
  F   1.62199409778699      0.84965880100870      0.02231603938946
  H   -1.13014638165869     -0.80078889542621     -0.60915467373302
  H   1.28390036027740     -0.71262394488803     -1.18854192193826
  N   1.13454020917581     -1.27056999910300      0.80011417994338
  H   0.40645749317788     -1.26477031978660      1.49840821339013
  H   1.40028581322324     -2.18990696774759      0.49381560266557
  C   -0.73003610992445      1.09127150798492     -1.40370456113980
  N   -0.90252803638269      1.90061157205839     -2.23689806646460
  N   -0.99097259539411      0.52961666401728      0.98027673563079
  H   -1.97829644518898      0.75137637008003      0.97365498667161
  H   -0.47976719341554      1.36673725409874      1.23509187708411
