13
Coordinates from ORCA-job run
  C   0.57543817104695     -0.66242982839870      0.25829547403711
  C   -0.54033412773102      0.22644547724228     -0.29085255242891
  F   0.27907381093511     -1.95723212298659     -0.17320910728208
  H   -0.43618090031832      0.20422146301658     -1.38670867851304
  H   0.50141369568791     -0.70440320887608      1.35086446542519
  N   1.84160246621832     -0.28612463783793     -0.26657055802406
  H   2.60241064798069     -0.62388654128832      0.30521373017756
  H   1.93223200329367      0.71234612733306     -0.38891099958462
  C   -0.32552197271594      1.60814454371094      0.15447931470808
  N   -0.12217253931580      2.71378841954037      0.49168848818382
  N   -1.81717951514324     -0.26234460152776      0.21106959071231
  H   -2.57886852846071      0.26315755216042     -0.19936993715063
  H   -1.91391321147762     -1.23168264208828     -0.06598923026074
