13
Coordinates from ORCA-job run
  C   0.63881115125168     -0.66435865794194      0.21057672460202
  C   -0.56298114389017      0.05922126896734     -0.40221184971668
  F   0.65213276761128     -1.94836344383936     -0.28326940440926
  H   -0.47633830976923     -0.10555933778786     -1.47959688334665
  H   0.49783034059115     -0.76006155122275      1.29839459981716
  N   1.86222448381843     -0.03796212485257     -0.20690410770048
  H   1.95370482139977      0.88712904998932      0.19503069730078
  H   2.64492378095983     -0.59956090717118      0.10545613246655
  C   -0.44561563507323      1.50764964393449     -0.14020951077378
  N   -0.37910184257348      2.64819058117173      0.13437444863391
  N   -1.80451035159961     -0.52718251259836      0.07239306378034
  H   -2.57580890129925     -0.24384168617378     -0.51813623191575
  H   -2.00627116142718     -0.21630032247508      1.01510232126184
