13
Coordinates from ORCA-job run
  C   0.54252786801666     -0.63708939222008      0.30401493714379
  C   -0.53560016464315      0.20123420362986     -0.39990610186909
  F   0.23701080835452     -1.96307088840127     -0.04416893724981
  H   -0.35063608751330      0.09409217679167     -1.47691706970235
  H   0.42158171119870     -0.58009688643047      1.38979098600266
  N   1.85606115399145     -0.30755162062525     -0.08012947896909
  H   1.93972866044132      0.26799823249647     -0.90306959331270
  H   2.45050116603596      0.01370049999497      0.66386128144468
  C   -0.33996206696849      1.61213612052263     -0.04471023820065
  N   -0.16226832828557      2.72485353669846      0.28279916289603
  N   -1.91321154139680     -0.18798158821740     -0.15037738310047
  H   -2.13571671012981     -0.06810878180572      0.83116934914707
  H   -2.01001646910149     -1.17111561243387     -0.37335691423005
