13
Coordinates from ORCA-job run
  C   0.84229990686959     -0.24357824283397     -0.19145897381157
  C   -0.62556384992520      0.07352934549559     -0.49862778745600
  F   1.42039077228279      0.95270875098451      0.27772636564447
  H   -1.06962751796226     -0.83468829682827     -0.91742269069692
  H   1.38234897959680     -0.50990332048688     -1.10295803586464
  N   0.94175736430231     -1.29568286651365      0.74882410379953
  H   0.57717004405727     -1.00358988203280      1.64631786746874
  H   1.90342397122411     -1.58302673149021      0.87173069666871
  C   -0.68338754704909      1.11910078297473     -1.53173582749191
  N   -0.70767346549656      1.94322568839606     -2.36611668104254
  N   -1.42203287269395      0.48115889357826      0.64673856896321
  H   -0.94477112779948      1.20658484808031      1.16717469077555
  H   -1.61533465740634     -0.30683896932369      1.24980770304337
