13
Coordinates from ORCA-job run
  C   0.53691903253853     -0.61034125943388      0.36749445397648
  C   -0.53196715342069      0.16556533536901     -0.41755364710247
  F   0.21714553216952     -1.96058686263583      0.15240472861357
  H   -0.34931423153623     -0.05276288547419     -1.47810569093844
  H   0.41717174054329     -0.44352254692976      1.44202731637193
  N   1.85522721270906     -0.33640549066817     -0.04433857992958
  H   1.94592200030375      0.13645833570163     -0.92971434021941
  H   2.44562955295295      0.07099417228074      0.65964370102741
  C   -0.31881540771831      1.60289040733076     -0.20823056914095
  N   -0.14738846211218      2.74391324046033      0.00566804915640
  N   -1.91385293012506     -0.17855750195250     -0.12969505033942
  H   -2.02395824768909     -1.17771393243087     -0.25347628172215
  H   -2.13371863861556      0.04206898838272      0.83487591024663
