13
Coordinates from ORCA-job run
  C   0.67008810223101     -0.85131441978655     -0.18925234518685
  C   -0.63092911241376     -0.09611400667871     -0.49457337585103
  F   1.30946222823629     -1.01929398861229     -1.41078441322001
  H   -1.17918998324411     -0.66958000575004     -1.24673244495320
  H   0.39796237766575     -1.83679476313313      0.19418250023885
  N   1.54754423000295     -0.22108473819796      0.72445243441137
  H   1.41574800499731     -0.49796446364407      1.68269905664267
  H   1.62748545098976      0.77945924947550      0.61330653780653
  C   -0.30876398616614      1.22840429847801     -1.06210526708378
  N   -0.04549588865336      2.31514143717980     -1.42237563364092
  N   -1.42778736277434     -0.03779693607230      0.72228685505770
  H   -1.01153697758930      0.61833097909732      1.37194731117936
  H   -2.36358708328206      0.28860735764442      0.51594878459933
