13
Coordinates from ORCA-job run
  C   0.57236724944328     -0.69361799127072      0.30446499946974
  C   -0.51514914838091      0.20727346793690     -0.28676944014210
  F   0.25057553549825     -1.97645230383604     -0.16439189394153
  H   -0.37456529923055      0.18401063415908     -1.38136236808869
  H   0.46776447982461     -0.72716344038446      1.39069712335771
  N   1.88787019679931     -0.35013403454171     -0.06955706381891
  H   2.43697436982338      0.04258241264723      0.67597933916969
  H   1.96193379802517      0.20079080297285     -0.91103058010398
  C   -0.28423084737577      1.58508999960048      0.16182665026075
  N   -0.08581207781356      2.68687820634405      0.51372046232795
  N   -1.82252462764723     -0.24897911639443      0.16021683916240
  H   -1.93734141187866     -1.21206898584289     -0.12966486067076
  H   -2.55686221708733      0.30379034860966     -0.26412920698226
