13
Coordinates from ORCA-job run
  C   0.53678031445289     -0.61548430280879      0.35573244996843
  C   -0.52441235256418      0.17438017228018     -0.42620365210125
  F   0.25177145932298     -1.96025391643394      0.07020366810507
  H   -0.30609617740385      0.00926104469608     -1.48952779753909
  H   0.38172853037494     -0.49915805560816      1.43237971705885
  N   1.86166727492494     -0.29841072944639     -0.00095977759363
  H   1.97033482514205      0.20812279471438     -0.86539369387883
  H   2.41661879040654      0.09868937105830      0.73701687691618
  C   -0.34730902951832      1.60399013651276     -0.14342055327666
  N   -0.18516545055699      2.73393126603700      0.12853175338192
  N   -1.90691454566634     -0.21045985374756     -0.19713381261322
  H   -2.15909133291926     -0.04110182386836      0.76981757466073
  H   -1.99191230599540     -1.20450610338548     -0.37104275308851
