13
Coordinates from ORCA-job run
  C   0.60024422929970     -0.82041121747034     -0.06352329959881
  C   -0.65415104438572     -0.08094407230162     -0.52255340498657
  F   1.39727889610587     -1.03093888853107     -1.19760844362949
  H   -1.07836492383032     -0.64044112816892     -1.36046201996544
  H   0.30379781889674     -1.80089759504418      0.31203912542868
  N   1.26231009677721     -0.09487004839428      0.95420758008523
  H   1.66837576820483      0.75794243069847      0.58634637720598
  H   1.98713050112446     -0.64521488550618      1.39381043269160
  C   -0.27011464690851      1.26049538242925     -1.01493384687431
  N   0.02528840865105      2.34948422753163     -1.34143142437653
  N   -1.60287972197330     -0.07202732768490      0.57580434746932
  H   -2.45313145530990      0.40991213662615      0.31273717309035
  H   -1.18478392665210      0.40691098581598      1.36456740346001
