13
Coordinates from ORCA-job run
  C   0.68586355083692     -0.84789065628333     -0.14163397210237
  C   -0.60259281299282     -0.10766039570803     -0.52660826333707
  F   1.39165144797562     -1.02597303197552     -1.32454480006479
  H   -1.10449940227184     -0.69511209775136     -1.30001166161596
  H   0.40074940243776     -1.83066111298702      0.23937733728595
  N   1.50751381611269     -0.19863911392725      0.80976268617384
  H   1.58559715331292      0.80103657977707      0.69014301293382
  H   1.32788097371050     -0.46524525304987      1.76311207914562
  C   -0.26043508955093      1.21238476613106     -1.09295550442118
  N   0.01360115458947      2.29674095090470     -1.45240215850324
  N   -1.46462466264600     -0.04094808543037      0.64435949885671
  H   -2.39069984419177      0.27371037309989      0.38351530212102
  H   -1.09000568732253      0.62725707720003      1.30688644352763
