13
Coordinates from ORCA-job run
  C   0.53804620524874     -0.76561188359126     -0.05312156447798
  C   -0.66021162366001      0.04263826429734     -0.56617950627599
  F   1.35590328074818     -1.04783591823305     -1.15838826429903
  H   -1.08692790999638     -0.49730270365739     -1.41641936243213
  H   0.18455038949996     -1.72865323496833      0.32551477915018
  N   1.20947081935100     -0.06966911276856      0.97733065722726
  H   1.64469667692893      0.77450587726404      0.62292690985158
  H   1.91274543637730     -0.64435638581167      1.42107503043410
  C   -0.17160000448968      1.33928249803762     -1.06262313964293
  N   0.23189002902234      2.38731934040396     -1.40262058489161
  N   -1.69895896796395      0.26275833186453      0.42602337284258
  H   -1.26116930872342      0.54860038246678      1.29457133394459
  H   -2.19943502234301     -0.60167545530398      0.59191033856937
