13
Coordinates from ORCA-job run
  C   0.61475505096692     -0.80757150312336     -0.06266827802623
  C   -0.64902465340790     -0.08915022781221     -0.52929509821483
  F   1.42608233471274     -0.99825217785298     -1.19022274210856
  H   -1.05407941263552     -0.64978297857845     -1.37586988991980
  H   0.33236959704740     -1.79521490475635      0.30486837683280
  N   1.25400251508468     -0.07529729599370      0.96452393762249
  H   1.64666305850001      0.78727538221761      0.60507932477159
  H   1.98453877985433     -0.61396726761874      1.40887721697229
  C   -0.28496941350103      1.26283504795415     -1.00757814640927
  N   0.01439143073799      2.35397326531071     -1.32309040382762
  N   -1.60900633730797     -0.10740832207964      0.55933283453118
  H   -2.46683380713769      0.35725580968672      0.29006736550682
  H   -1.20988914291398      0.37630517264624      1.35497550226912
