15
Coordinates from ORCA-job run
  C   -0.40854406816060      0.45234980903493     -0.13631718121943
  C   1.11478021579121      0.15651699882652     -0.09015620620320
  Cl  -0.57139736503928      2.15387889729039      0.54053886247152
  H   1.62135154805295      0.91673323653102     -0.69811214341686
  N   -0.82845974217475      0.35126936921934     -1.48534150827427
  H   -0.41362706652508      1.06468478723621     -2.07266493008588
  H   -1.83589750377529      0.40329312404281     -1.56542597120347
  C   -1.20279146674356     -0.48203227130615      0.75223677763634
  H   -0.86515114781112     -0.41967948510359      1.78646558012616
  H   -1.09451147299728     -1.50656297782599      0.38926848920908
  H   -2.25853479899455     -0.20487654449640      0.72310273512869
  C   1.39094850099694     -1.16528541884642     -0.66370683801073
  N   1.61880068971523     -2.22692563290744     -1.11000210075904
  C   1.65173041159191      0.23243820313259      1.27108429585297
  N   2.08030326607327      0.27519790517217      2.36303013874811
