15
Coordinates from ORCA-job run
  C   -0.40885194819962      0.44958228088659     -0.14552505878751
  C   1.11481982648281      0.16433458295386     -0.06671236939098
  Cl  -0.59880210822062      2.14874470494667      0.52957410363125
  H   1.62928647922032      0.92704205380000     -0.66478566059516
  N   -0.79838536905302      0.34740718672668     -1.50381746662784
  H   -0.37422678452488      1.06393844502505     -2.08069255049939
  H   -1.80402914778065      0.39596580543986     -1.60571171136860
  C   -1.21581097326465     -0.49176170501885      0.72404577690626
  H   -0.90062450932921     -0.42938799054381      1.76539271158002
  H   -1.09313824115255     -1.51476111461261      0.36135684152375
  H   -2.27253418524676     -0.22157584753799      0.67291789614596
  C   1.41271321516047     -1.15677635312772     -0.63146261838671
  N   1.65976771569807     -2.21828378186352     -1.06759091966638
  C   1.62242946189847      0.24484522216379      1.30575664530514
  N   2.02838656831181      0.29068651076199      2.40625438023017
