15
Coordinates from ORCA-job run
  C   -0.40793423501524      0.44017467787002      0.06212024260579
  C   0.98937084256583     -0.04360201907469      0.53998678323670
  Cl  -0.71098216172290      1.99748693730861      0.89001550240020
  H   0.95931236928262     -0.17107159167970      1.62842459060851
  N   -0.32104369992666      0.70520289068679     -1.35489687074776
  H   -1.11106401013569      1.26104718474819     -1.65937295491328
  H   -0.32423480843815     -0.16883341784415     -1.87164544093032
  C   -1.49012687692621     -0.54397841745240      0.48618835592395
  H   -1.49303489792896     -0.69993782910800      1.56728711100933
  H   -1.33553920252431     -1.50482329697190     -0.01205579149619
  H   -2.46571154251613     -0.15346129364442      0.19171453205751
  C   2.04130942380676      0.92275047732384      0.21247570537239
  N   2.90952653829661      1.67992331242872     -0.01101724727819
  C   1.28920590723860     -1.33994411252809     -0.07794326554439
  N   1.47094635394385     -2.37993350206283     -0.59228125230423
