15
Coordinates from ORCA-job run
  C   -0.38880826896361      0.29605754160540     -0.15904361076616
  C   1.03299062027691     -0.31819691205297     -0.01419245127878
  Cl  -0.23296493292795      2.06484457645212      0.07025580334170
  H   0.91806517579576     -1.39015727246119     -0.22058896462826
  N   -0.81998190836799      0.01598924541854     -1.51455230784312
  H   -1.20078569981642      0.83798097960889     -1.96120002938052
  H   -1.52313754839618     -0.71273733637560     -1.51942303797804
  C   -1.32368639565687     -0.25734104824726      0.90346099516745
  H   -2.31354592598459      0.18328790340750      0.77518192937024
  H   -0.96945419267889     -0.03609368162617      1.91063299831439
  H   -1.40433001484100     -1.34366795935830      0.78945142841793
  C   1.58252717864187     -0.16585997955385      1.33545631025135
  N   1.99313595587835     -0.06293036746173      2.43052374006966
  C   1.94914204712967      0.22897708643746     -1.01726735691502
  N   2.70083390991095      0.65984722420716     -1.80869544614281
