15
Coordinates from ORCA-job run
  C   -0.41393798681843      0.26788155155951     -0.12882365859052
  C   0.99551776349008     -0.35985176347772      0.02701609906164
  Cl  -0.26258420632307      2.02358167100551      0.37115575993214
  H   0.88375425612889     -1.41942985800995     -0.23567920545398
  N   -0.81113893526010      0.10052658423084     -1.48230499235811
  H   -0.22927641309585      0.63546282155592     -2.11772064786366
  H   -1.77472676148352      0.38302063374166     -1.61251129150212
  C   -1.40484929663914     -0.39513860950192      0.80827839319958
  H   -1.49045115410753     -1.45425944757493      0.55351811694756
  H   -2.38403255848835      0.07451388623328      0.69562925010377
  H   -1.09653704798473     -0.28738316944717      1.84786983359964
  C   1.49766786780013     -0.27237617712748      1.39942557600206
  N   1.88221508569780     -0.23986055493191      2.50795587722184
  C   1.94310458175058      0.23656167608683     -0.91829583956844
  N   2.66527480533324      0.70675075565752     -1.71551327073139
