15
Coordinates from ORCA-job run
  C   -0.42521064609629      0.37828926206498      0.03723532585076
  C   0.98257627834870     -0.07428150841329      0.50623507509068
  Cl  -0.70708449387075      1.97199778192615      0.92648703943634
  H   1.00439063893860     -0.04935574389715      1.60103871471976
  N   -0.43052543904544      0.50844751529770     -1.36840899855754
  H   0.19884838112967      1.23082889484671     -1.69847347049189
  H   -1.36046611947909      0.68501119474378     -1.72582642509950
  C   -1.49706036107588     -0.58943324571471      0.50029205325721
  H   -2.48194375344386     -0.18537082282405      0.25834354970142
  H   -1.37036671152119     -1.54714788229319     -0.00752272938279
  H   -1.44922138436930     -0.73535941329737      1.58007274035748
  C   2.01704078378283      0.83401404500502      0.00170010493334
  N   2.82135982031836      1.57826183087877     -0.41947323013000
  C   1.25359820843137     -1.44502717017558      0.05950908785069
  N   1.44406479795223     -2.56087473814778     -0.25120883753597
