15
Coordinates from ORCA-job run
  C   -0.41393725972686      0.39230363646418      0.02905684294481
  C   0.98039375539851     -0.09172650220450      0.50696363170424
  Cl  -0.63947449489277      2.02082119727715      0.87046708522029
  H   1.00669633323195     -0.03390802670824      1.60052614431686
  N   -0.42125772048651      0.47972730461494     -1.37968189861798
  H   -1.34638702830447      0.67664899636635     -1.73901561804824
  H   0.23054435430218      1.16991403384012     -1.73421315855766
  C   -1.51415692205380     -0.52547722948246      0.52569178613294
  H   -2.48668391163532     -0.09781740954365      0.27441576721262
  H   -1.46651726297113     -0.63917556446039      1.60933216671751
  H   -1.42008047682796     -1.50202692171263      0.04739490278066
  C   2.04306398788356      0.76557159323926     -0.02662311106919
  N   2.87037067700364      1.46827695282423     -0.47401869635351
  C   1.20570291373431     -1.48241749926098      0.09880092506017
  N   1.37172305534472     -2.60271456125339     -0.21009676944348
