15
Coordinates from ORCA-job run
  C   -0.48762106669371      0.50305017572617     -0.07610697055095
  C   1.06640449123265      0.28134620424741     -0.03470221000863
  Cl  -0.73397016076533      2.13172548064952      0.63789163818061
  H   1.52895235821811      1.12090272080154     -0.56750395771539
  N   -1.01314187289598      0.52234669141787     -1.40772028029924
  H   -0.99393839092282     -0.40105490115165     -1.82398762224300
  H   -0.53322451378394      1.18412708226197     -2.00550716830074
  C   -1.21701581421023     -0.53254856914169      0.75522655581621
  H   -0.88460846573614     -0.51120339627739      1.79300729881828
  H   -2.28491654539823     -0.31899637481703      0.71575037502575
  H   -1.04073592808604     -1.53246752828655      0.34716698231674
  C   1.38950950820520     -0.95909166765156     -0.74496863884919
  N   1.58458624546312     -1.95160044927569     -1.34182252588212
  C   1.60285553540822      0.24741523126511      1.32695811460438
  N   2.01686461996511      0.21504930023197      2.42531840908725
