15
Coordinates from ORCA-job run
  C   -0.40954599046560      0.26600226828718     -0.14839119880227
  C   0.97548655864354     -0.40869088192625      0.02674105551766
  Cl  -0.13913415291289      2.06930046610093      0.03114247838539
  H   0.79473629411290     -1.48864556359336     -0.04562676235826
  N   -0.90847589074167     -0.10393372847616     -1.42555710125542
  H   -0.34705815954815      0.27887385724641     -2.17837003230098
  H   -1.86387574729520      0.20973772507814     -1.54418238015494
  C   -1.36266942645876     -0.16819772617441      0.94824834644989
  H   -1.51589659637046     -1.24840631782789      0.88806097492678
  H   -0.97730076804407      0.09753492976297      1.93226965313898
  H   -2.32403603086725      0.33199508518852      0.81545071188158
  C   1.57602508848357     -0.12541031726121      1.33149741449080
  N   2.04399786147509      0.06369430585292      2.39144640953453
  C   1.88387270178970     -0.03385010017438     -1.06030989525486
  N   2.57487425819927      0.25799599791656     -1.96341967419885
