15
Coordinates from ORCA-job run
  C   -0.48717445826372      0.50544237105367     -0.06354926707384
  C   1.06652355823330      0.27759869557597     -0.05855562780358
  Cl  -0.71065434819501      2.13301448384025      0.66027861201028
  H   1.52001651530990      1.11673404283424     -0.59960312283008
  N   -1.04306827803988      0.53056691917840     -1.38274467844161
  H   -0.57491278483375      1.19262485848797     -1.98945409481023
  H   -1.03700588558403     -0.39157469402566     -1.80213656322736
  C   -1.20156857298939     -0.52961667065938      0.78132548850769
  H   -2.26907025216613     -0.31094930281590      0.76802584777106
  H   -1.03985980174201     -1.52889813171169      0.36576211355333
  H   -0.84454102216568     -0.51356019408277      1.81100714973966
  C   1.36786927652004     -0.96264468083679     -0.77882813484076
  N   1.54477128084810     -1.95592342185640     -1.38005414003801
  C   1.63380638904164      0.23740355991183      1.29045758616845
  N   2.07486838402660      0.19978216510627      2.37806883131502
