15
Coordinates from ORCA-job run
  C   -0.39064758443722      0.29604307931523     -0.14069940641341
  C   0.95847956097891     -0.44802310369606      0.03467829713269
  Cl  -0.07306145838623      2.05683489111551      0.25336946013325
  H   0.74474482929229     -1.50633956690981     -0.16115252515032
  N   -0.82485000605737      0.08810624596704     -1.47693421266115
  H   -0.20907188562570      0.53178941509344     -2.14957317924986
  H   -1.76179694848790      0.44775031316043     -1.61132058799393
  C   -1.42092685262227     -0.21830959082785      0.84610970367238
  H   -2.35489039684216      0.33276595230686      0.71938379287158
  H   -1.60798345519302     -1.27776277951578      0.65491590318842
  H   -1.08477005863075     -0.08054706667650      1.87346630246975
  C   1.49247329255695     -0.32628953691843      1.39235912368335
  N   1.89434756052493     -0.27344801441618      2.49392879133601
  C   1.93933264599563      0.00234692482233     -0.95677521975403
  N   2.69762075693395      0.37508283717979     -1.77175624326474
