15
Coordinates from ORCA-job run
  C   -0.35111592549342      0.36393238306453     -0.15098956498594
  C   1.00068911328803     -0.38379087903818      0.00596360184218
  Cl  -0.08929988620428      2.07222340039817      0.29665879245292
  H   0.82983170494425     -1.41229667338508     -0.34129007840021
  N   -0.67569878228005      0.31881945094186     -1.56312430575037
  H   -1.30729508789129      1.07294893482526     -1.80337347634593
  H   -1.13445446748526     -0.56003121474388     -1.78071990163388
  C   -1.40610567199260     -0.22656119375304      0.77311417286800
  H   -1.55263760131678     -1.28503094403736      0.53276889546562
  H   -1.12519599716299     -0.13958091449842      1.82348896586230
  H   -2.35075092001665      0.29794805216042      0.62019462287137
  C   1.44095349251161     -0.44913298011173      1.40194221960174
  N   1.77020307432568     -0.51283094188575      2.52724634986002
  C   2.04208240206115      0.20297783484790     -0.84114529128040
  N   2.90779455271258      0.63940568521531     -1.50273500242738
