15
Coordinates from ORCA-job run
  C   -0.42136194350283      0.43974283938274     -0.13762936859886
  C   1.10919767038511      0.20215230489712     -0.03902837446944
  Cl  -0.67960451981150      2.10910891208461      0.58866155555412
  H   1.60918189033479      1.00159781210478     -0.60024039006925
  N   -0.78330464667136      0.36971600931047     -1.50534806581632
  H   -0.36730122035402      1.11419945614113     -2.05211230073517
  H   -1.78802512768911      0.39620982618191     -1.62474090792725
  C   -1.21202189451640     -0.55519895998175      0.68596259580624
  H   -1.04646506556831     -1.56158139779181      0.29483240600770
  H   -2.27636789209692     -0.32022228448161      0.62072517140944
  H   -0.92017952380416     -0.51441837535186      1.73511828782449
  C   1.46223302405998     -1.08743061183497     -0.64328971941246
  N   1.75740519024199     -2.11657535393859     -1.12440279818313
  C   1.58788443946744      0.25170741874939      1.34521570921370
  N   1.96872961952527      0.27099240452839      2.45527619939617
