15
Coordinates from ORCA-job run
  C   -0.44175137733742      0.34895360187859      0.09386130250123
  C   1.01072717366607     -0.06448437174236      0.44974047547906
  Cl  -0.75425631569158      1.84192413181214      1.13494536984025
  H   1.09003829290339     -0.13243012912172      1.54012598465911
  N   -0.53056199551046      0.59955329539004     -1.29243320482011
  H   -1.48634767275657      0.75581991463327     -1.58533903073245
  H   0.04333845617515      1.38061911084920     -1.58818300780002
  C   -1.43607918971422     -0.71285913987339      0.52213189102743
  H   -2.45200888142480     -0.34476865360864      0.36643121239392
  H   -1.28866089637929     -1.61476984779894     -0.07456141141818
  H   -1.32210518071130     -0.94812547910963      1.58097800989623
  C   1.96946718999594      0.93920582533853     -0.02214132622526
  N   2.70948305731350      1.75901115953850     -0.42043779819595
  C   1.32637022446686     -1.37343299605932     -0.13180312996712
  N   1.56234711500473     -2.43521642212631     -0.57331533663813
