15
Coordinates from ORCA-job run
  C   -0.40636146708568      0.40133542993650     -0.19563300452151
  C   1.09611256641971      0.21460136755864      0.15412898691753
  Cl  -0.58603961691370      2.09108878249338     -0.75691574813494
  H   1.35852377928693      0.92430580129599      0.94749631703331
  N   -0.71004114981370     -0.46629642356183     -1.30939605960319
  H   -1.59097113514783     -0.20111273452784     -1.73334107084598
  H   -0.78355678515886     -1.42725800481738     -0.98965068301073
  C   -1.27196750386024      0.21622136384312      1.04373695833519
  H   -1.18809284594228     -0.81170030744795      1.40655091577166
  H   -2.31466183833778      0.40899794497964      0.78566397801935
  H   -0.98262721882086      0.90113028014194      1.84385053589272
  C   1.96056201302963      0.46595247121037     -1.00220545289067
  N   2.68960270850301      0.67868058561910     -1.89681893019045
  C   1.31044374730992     -1.14874974458611      0.65204357911089
  N   1.42107474653172     -2.24819681213755      1.04948967811685
