15
Coordinates from ORCA-job run
  C   -0.49907739511928      0.49358861670920     -0.06891884685589
  C   1.05925410662876      0.31065552029847     -0.00923752521922
  Cl  -0.79907083828024      2.09168795155583      0.69233484201381
  H   1.50785339565674      1.17912214582478     -0.50636421050187
  N   -1.00406381197770      0.54208020293770     -1.40777739240835
  H   -0.53055643541543      1.23286591123107     -1.97719516579781
  H   -0.95681256460797     -0.36736505367493     -1.85160652865327
  C   -1.21427154853760     -0.58639721368792      0.71705397286711
  H   -1.00463835315073     -1.56811152473434      0.28152981854278
  H   -0.89977669738070     -0.58884759998871      1.76061252751410
  H   -2.28666623309893     -0.39954844735310      0.66572019833734
  C   1.42555027938799     -0.89781443400566     -0.75299357018326
  N   1.65457523308954     -1.87417129347938     -1.36413507123935
  C   1.57508064310774      0.24538828101645      1.35930139011476
  N   1.97262021969777      0.18786693735059      2.46267556146910
