15
Coordinates from ORCA-job run
  C   -0.50539932635448      0.48704690173044     -0.06435240481114
  C   1.05573895986494      0.31902677350049     -0.04475196428785
  Cl  -0.79840377219710      2.09924953425366      0.66953244993409
  H   1.48215480619244      1.18101427727026     -0.57180353988874
  N   -1.04847218254644      0.50100687447409     -1.38904389446281
  H   -1.00586443958306     -0.41810824773410     -1.81305334354462
  H   -0.59629722322935      1.18167037486534     -1.98738794540886
  C   -1.18806522710507     -0.58102193451694      0.76558050541835
  H   -0.98021399445049     -1.57057820048383      0.34724955586098
  H   -0.84552259169221     -0.55609319251351      1.79996534253298
  H   -2.26331375220566     -0.40569982359798      0.73916035382872
  C   1.41270214689506     -0.89997678207092     -0.77559039147436
  N   1.63504166128592     -1.87627623732080     -1.38938245604776
  C   1.60974508649662      0.28617215342746      1.30990444695247
  N   2.03716984862889      0.25056752871634      2.40297328539855
