15
Coordinates from ORCA-job run
  C   -0.40515797060594      0.50959034337429     -0.10125556346548
  C   1.13249630913336      0.29239623957520     -0.02374899659605
  Cl  -0.71414188517963      2.12419919533506      0.60503976743832
  H   1.59212833930427      1.14015680299629     -0.54277973181091
  N   -0.73140602483955      0.58312828315706     -1.51158329624088
  H   -0.76527720614373     -0.35375887529597     -1.90245108573104
  H   -1.64496796246594      1.00563675291303     -1.62970421447385
  C   -1.17184593982530     -0.52939452492691      0.70081858843659
  H   -0.89420458200843     -0.51388141804916      1.75595255734903
  H   -2.24152132500577     -0.32850364145149      0.61979491357092
  H   -0.97286556247490     -1.52594498259683      0.29504167082878
  C   1.48179829560291     -0.94014981196505     -0.73742998282991
  N   1.70361316855307     -1.92024523667739     -1.34497224998910
  C   1.62284271475791      0.24044932487998      1.35538065440820
  N   2.00850963119765      0.21732154873185      2.46389696910542
