15
Coordinates from ORCA-job run
  C   -0.52496831652222      0.35894289303074      0.16715793196732
  C   0.97847588242107      0.01299251039833      0.46778381255409
  Cl  -0.90227946476177      1.72992404442219      1.26549254637433
  H   1.09053326999318     -0.19009375382477      1.53873457388913
  N   -0.77945229829405      0.78153252760586     -1.17358645561011
  H   -0.67665205217831      0.01493992530385     -1.82762778516963
  H   -0.19826204947563      1.56323801104707     -1.45187792071072
  C   -1.41372416946523     -0.81857964113520      0.52145679945921
  H   -1.25029544714605     -1.13583282135183      1.55260701338646
  H   -1.21238268033393     -1.66168232173510     -0.14461954272645
  H   -2.45344042180541     -0.51557646474316      0.40155864827122
  C   1.84824416502579      1.13327356220553      0.10366186164897
  N   2.51644939187045      2.04589740835664     -0.21080337617385
  C   1.36288168137654     -1.17873938610831     -0.29365426743502
  N   1.61287250929554     -2.14123649347185     -0.91828383972499
