15
Coordinates from ORCA-job run
  C   -0.41713357280493      0.25518866247634     -0.14633845535069
  C   0.98945662491945     -0.37145043976046      0.03260658722026
  Cl  -0.21899826262825      2.06114227150513      0.09332603324325
  H   0.85254583880559     -1.45503393210733     -0.07369936180944
  N   -0.88047894899041     -0.09248980631325     -1.44305085014434
  H   -0.32049628119241      0.33345061158730     -2.17349744458922
  H   -1.84421293078646      0.19133171870411     -1.56949981179419
  C   -1.37118033018273     -0.24918032349268      0.91899039930682
  H   -1.48203803119967     -1.33191018922038      0.82219612400557
  H   -1.01273656242942     -0.00092605870450      1.91767536505991
  H   -2.34859293267471      0.21841514374262      0.78471616874298
  C   1.55673721003381     -0.10303648124065      1.35549183544338
  N   2.00121843855007      0.08536379857368      2.42536399270950
  C   1.90097658542914      0.06792301108447     -1.02731513376671
  N   2.59493315515093      0.39221201316564     -1.91696544827706
