15
Coordinates from ORCA-job run
  C   -0.41855389788545      0.26625730203874     -0.11905431400408
  C   0.99629522219234     -0.35661810015660      0.00197991047359
  Cl  -0.25856628123937      2.02516881264709      0.36918538347541
  H   0.88053396168233     -1.41765699918017     -0.25328997171794
  N   -0.85159221470546      0.09160014792301     -1.46019405084222
  H   -1.81898968795598      0.37138167990902     -1.56584774115824
  H   -0.28810276678424      0.62435294208244     -2.11377562234886
  C   -1.38190584845604     -0.39456149696775      0.84790399699805
  H   -1.47208028737253     -1.45509132559399      0.60076711261561
  H   -2.36485880965298      0.07249437966731      0.76023046669647
  H   -1.04521373642861     -0.28121064430442      1.87806959379789
  C   1.53549485774880     -0.26156371830994      1.35940314028762
  N   1.95170596270001     -0.22398321526056      2.45629783847239
  C   1.91670309532477      0.23686974904177     -0.97161010544324
  N   2.61713043083241      0.70356048646405     -1.79006563730244
