15
Coordinates from ORCA-job run
  C   -0.50660108308391      0.48508015636513     -0.07321940747310
  C   1.05482307729360      0.32018147290058     -0.04843396636553
  Cl  -0.80479399719710      2.10585258146865      0.63904804372593
  H   1.48065335537091      1.17557823537761     -0.58656496971786
  N   -1.04673944131113      0.48079777767000     -1.39916665123295
  H   -0.59607881589942      1.15585418431114     -2.00482180434721
  H   -1.00093234171575     -0.44330615032858     -1.81175145771942
  C   -1.18877554131438     -0.57375013602128      0.76892334447015
  H   -2.26418513890843     -0.39990368063662      0.73967251649974
  H   -0.97965423738957     -1.56805012316182      0.36266617906766
  H   -0.84697579468439     -0.53603873026361      1.80318218879766
  C   1.41469792474131     -0.90971886351912     -0.75928444005095
  N   1.64175308696440     -1.90554673691315     -1.33893487074014
  C   1.60702394469456      0.30885826103914      1.30729320590002
  N   2.03578500243929      0.30611175171192      2.40039208918601
