15
Coordinates from ORCA-job run
  C   -0.50047181625448      0.49296120698090     -0.05489066953765
  C   1.05858506087528      0.30788760568357     -0.03837205985406
  Cl  -0.77659979961279      2.09416698260774      0.70860232388518
  H   1.49462357356900      1.17270999686643     -0.55274261433420
  N   -1.04315688429498      0.53734161582881     -1.37911996596070
  H   -1.00795055593501     -0.37346132749924     -1.82129834818192
  H   -0.58548550889646      1.22614140983752     -1.96371585115648
  C   -1.19467209113641     -0.58316037591056      0.75488408325980
  H   -2.26780460321220     -0.39473372298886      0.73373223434635
  H   -0.85034989484635     -0.58297192431327      1.78898138905284
  H   -0.99937041146689     -1.56662360423062      0.31654932026144
  C   1.40292673613664     -0.90375821259204     -0.78745068086508
  N   1.61665317736381     -1.86396902076568     -1.42904485112244
  C   1.61208812791786      0.24910712290169      1.31587733918758
  N   2.03898488979299      0.18736224759364      2.40800835101933
