15
Coordinates from ORCA-job run
  C   -0.51014684666644      0.38087203877528      0.16484438970599
  C   0.98151740407156     -0.01517994263482      0.46229982368306
  Cl  -0.83024274843123      1.78002357137468      1.24573617063743
  H   1.09259574432511     -0.20273096263848      1.53623754868785
  N   -0.75771607213405      0.79377000685926     -1.18019674802647
  H   -0.68651085470747      0.01484018398558     -1.82378943832774
  H   -0.14987642317230      1.54957119245676     -1.47276004226469
  C   -1.43895156618464     -0.75834336958148      0.54097263842953
  H   -2.46767323942517     -0.41866820573994      0.42466934622052
  H   -1.27940934421615     -1.06827077996716      1.57495357253444
  H   -1.27390916982782     -1.61673495496082     -0.11543338623359
  C   1.88917096061276      1.06612719319362      0.07363957415493
  N   2.58606102067181      1.94793396918650     -0.26618120575279
  C   1.31752037348518     -1.23458738924733     -0.27789960760984
  N   1.52757076159885     -2.21762255106163     -0.88509263583865
