15
Coordinates from ORCA-job run
  C   -0.41167985687141      0.27677102396841     -0.11757111494919
  C   0.99136471057300     -0.37125211398085      0.00841712771222
  Cl  -0.23813162899507      2.01229738242204      0.44368355155049
  H   0.86670041759001     -1.41911981203841     -0.29277837984303
  N   -0.81749148985695      0.16189891271311     -1.47381679022342
  H   -1.77765976717115      0.46250428720943     -1.58888572414808
  H   -0.23132142824246      0.71086495070128     -2.09319263314149
  C   -1.40536318309045     -0.40751900347082      0.80109786952953
  H   -1.09074235253683     -0.33893108076488      1.84212258095234
  H   -1.50388797636920     -1.45625928437109      0.51057965733242
  H   -2.37986303344486      0.07630841183115      0.70998465817202
  C   1.50018904548681     -0.34084747817958      1.38071794152528
  N   1.89001010085757     -0.35524338355088      2.48765221096845
  C   1.94162786977148      0.24862978390162     -0.91886502736413
  N   2.66624857229950      0.73989740360949     -1.70114592807340
