15
Coordinates from ORCA-job run
  C   -0.41771352447949      0.44428833137377     -0.13783222478686
  C   1.11283804697354      0.19148953881555     -0.07349873354218
  Cl  -0.64009977464703      2.12870995043985      0.56402605176560
  H   1.60544255563517      0.97519429210531     -0.66253287458910
  N   -0.81315455323852      0.35424485840755     -1.49531847658251
  H   -0.40866084201482      1.08928853193147     -2.06308224899990
  H   -1.82043144701756      0.38225650941595     -1.59050630833975
  C   -1.19844593718291     -0.52742131297661      0.72204851232613
  H   -2.26113673984593     -0.27996992628821      0.68043507203206
  H   -0.87878096322862     -0.47337079981633      1.76243642330336
  H   -1.05504851158093     -1.54198843355525      0.34362701542118
  C   1.43415352477902     -1.11488319112990     -0.65920010077492
  N   1.69553644827828     -2.17412646087501     -1.09252390702366
  C   1.62636967709600      0.25953888709529      1.29734018914832
  N   2.01813204047382      0.28674922505657      2.40358161064217
