15
Coordinates from ORCA-job run
  C   -0.39655361243122      0.51738244793781     -0.10493733785926
  C   1.13753547001598      0.27776079906296     -0.02027621370307
  Cl  -0.68380698546628      2.13819291474437      0.59661749027106
  H   1.61071911809108      1.12001689327097     -0.53615532677494
  N   -0.71538266845176      0.59228368402219     -1.51694445022223
  H   -1.61963571772022      1.03276206574418     -1.64054620277146
  H   -0.76689808616765     -0.34533762269957     -1.90408480767723
  C   -1.18223236652626     -0.50797285715917      0.69605225148489
  H   -0.99508242589721     -1.50861730499056      0.29473897903869
  H   -2.24845400213166     -0.29209170745880      0.60820854833984
  H   -0.91023666461130     -0.49284723807140      1.75261884397575
  C   1.47286209524298     -0.95862662151130     -0.73360161934181
  N   1.68143299413966     -1.95141570609216     -1.32487992124489
  C   1.62043992494466      0.21560440806213      1.36081199856530
  N   1.99429292696922      0.16190584513836      2.47237776791932
