15

C	-0.513108	0.010678	-1.436481
C	0.0	0.0	0.0
Cl	-0.084213	-1.643584	-2.145744
H	1.087095	0.0	0.0
H	-0.380606	0.899143	0.492724
N	-1.898674	0.304563	-1.52299
H	-2.194325	0.212401	-2.488112
H	-2.414381	-0.329647	-0.925551
N	0.203333	0.968056	-2.235722
H	-0.03809	1.889741	-1.888209
H	1.204518	0.830325	-2.119829
N	-0.505894	-1.147377	0.803486
O	-1.730977	-1.323207	0.825266
O	0.299541	-1.827603	1.425069
Br	3.502618	0.0	0.0
