15

C	-0.412985	0.065125	-1.460934
C	0.0	0.0	0.0
Cl	-2.304196	0.417493	-1.427545
H	1.092653	0.0	0.0
H	-0.352449	0.888949	0.517896
N	0.155335	1.216011	-2.110692
H	-0.119719	2.060733	-1.624237
H	1.167644	1.112082	-2.036871
N	-0.081697	-1.056876	-2.203897
H	-0.360448	-1.925902	-1.776577
H	-0.355417	-0.956997	-3.169509
N	-0.511307	-1.142889	0.790518
O	-0.603511	-2.249608	0.25518
O	-0.78785	-0.921638	1.967214
Br	3.454527	0.0	0.0
