15

C	-0.454728	0.062328	-1.452713
C	0.0	0.0	0.0
Cl	-0.035715	-1.477145	-2.341976
H	1.08912	0.0	0.0
H	-0.359086	0.907454	0.484168
N	-1.892929	0.156133	-1.540456
H	-2.181361	0.09999	-2.510207
H	-2.157062	1.06606	-1.178181
N	0.241287	1.18532	-2.002316
H	1.238542	1.102679	-1.808339
H	0.11001	1.215151	-3.007091
N	-0.584007	-1.119376	0.767204
O	-1.497154	-0.834262	1.546961
O	-0.133964	-2.247148	0.596262
Br	3.493598	0.0	0.0
