15

C	-0.430612	-0.040421	-1.455442
C	0.0	0.0	0.0
Cl	-2.311903	-0.044373	-1.522487
H	1.088879	0.0	0.0
H	-0.4017	0.883374	0.492078
N	0.068593	1.135058	-2.080933
H	-0.150938	1.972942	-1.556885
H	-0.288516	1.224473	-3.022939
N	-0.024528	-1.260729	-2.071397
H	-0.208286	-1.224151	-3.067421
H	0.976926	-1.362242	-1.914382
N	-0.493006	-1.164787	0.769829
O	0.115015	-2.226265	0.650883
O	-1.475858	-0.987629	1.493492
Br	3.54808	0.0	0.0
