15

C	-0.424346	-0.060911	-1.463535
C	0.0	0.0	0.0
Cl	0.001028	1.618782	-2.135856
H	1.087346	0.0	0.0
H	-0.449618	0.852862	0.49866
N	0.319919	-1.089987	-2.093993
H	0.222046	-1.053348	-3.100508
H	1.305204	-1.035993	-1.8416
N	-1.853138	-0.156334	-1.630359
H	-2.07518	-0.104263	-2.617282
H	-2.155056	-1.060768	-1.276409
N	-0.481547	-1.223821	0.697725
O	0.258493	-2.203296	0.735598
O	-1.622442	-1.181293	1.177373
Br	3.521595	0.0	0.0
