15

C	-0.483978	0.018784	-1.446979
C	0.0	0.0	0.0
Cl	-0.114615	-1.660766	-2.135487
H	1.087088	0.0	0.0
H	-0.373966	0.907781	0.4825
N	-1.855247	0.366135	-1.555849
H	-2.411082	-0.246364	-0.970708
H	-2.139407	0.287844	-2.524354
N	0.282013	0.941641	-2.241587
H	1.275664	0.759596	-2.10627
H	0.074932	1.874685	-1.89908
N	-0.533969	-1.130871	0.806095
O	0.25237	-1.826443	1.435855
O	-1.763475	-1.281424	0.811546
Br	3.556136	0.0	0.0
