15

C	-0.434875	0.08244	-1.452907
C	0.0	0.0	0.0
Cl	-2.362178	0.25662	-1.366776
H	1.092639	0.0	0.0
H	-0.372769	0.864094	0.54377
N	-0.00419	1.302832	-2.076248
H	-0.352292	2.101109	-1.559371
H	1.01383	1.299606	-2.042959
N	-0.018256	-0.980478	-2.233929
H	-0.160963	-1.884656	-1.812661
H	-0.3312	-0.900879	-3.187864
N	-0.488069	-1.181722	0.744671
O	-0.901554	-0.994896	1.886344
O	-0.428691	-2.287162	0.202768
Br	3.455369	0.0	0.0
