15

C	-0.281747	0.005234	-1.496418
C	0.0	0.0	0.0
Cl	-2.054057	0.195008	-1.855214
H	1.090592	0.0	0.0
H	-0.421938	0.884445	0.466065
N	0.358046	1.217949	-1.969025
H	0.259396	1.280212	-2.976629
H	1.351602	1.146946	-1.741014
N	0.122	-1.254163	-2.064266
H	1.05806	-1.470945	-1.72848
H	0.14221	-1.175444	-3.074542
N	-0.528224	-1.185871	0.700806
O	-1.568301	-1.035106	1.348167
O	0.093441	-2.241048	0.604519
Br	3.477606	0.0	0.0
