18
Coordinates from ORCA-job run
  C   0.93805128111594     -0.23469815790357     -0.21565979142588
  C   -0.52353011253921      0.16742198750634     -0.45641883346751
  F   1.73703501122262      0.56740178273688     -1.03714843179898
  H   -0.67066735258160      0.05079657554621     -1.53737800664437
  C   1.14660299249944     -1.62897757749705     -0.65561334821736
  N   1.29455126139236     -2.74567867842787     -0.98701939290578
  C   1.43760555082601     -0.06472911446835      1.20751233005730
  H   2.49266271642357     -0.33879954764380      1.25133441325767
  H   0.88305512000981     -0.70037650362127      1.89886803254300
  H   1.33750460464005      0.97742309666239      1.51124346785640
  C   -0.76430026307197      1.63206391321053     -0.09703497469200
  H   -1.74070145483786      1.94478116448300     -0.47462867544578
  H   -0.76862478879199      1.78447375069501      0.98513153316290
  H   -0.00749712372584      2.28066280516352     -0.54046900124312
  C   -1.50124695425054     -0.75310417255117      0.27012152258296
  H   -1.35043275015686     -1.80332647370713      0.01062226621157
  H   -1.41374729429910     -0.64792671528515      1.35464134585514
  H   -2.52532044387485     -0.48740813489852     -0.00210445568615
