18
Coordinates from ORCA-job run
  C   0.93983625070619     -0.24629470342141     -0.20263261953900
  C   -0.51757259555228      0.15832725391918     -0.46392750027234
  F   1.74973882889252      0.53474809048398     -1.03397649157637
  H   -0.65494059657788      0.02304533480255     -1.54403390483242
  C   1.14460915188029     -1.65000973567467     -0.61280185314568
  N   1.28841797337657     -2.77369041279073     -0.92165835542781
  C   1.42883537877595     -0.04852130115672      1.22050744708681
  H   2.48027265420022     -0.33309589400271      1.28122845394883
  H   1.33769587533812      1.00187974097711      1.49748518884710
  H   0.86077565412297     -0.66050982451052      1.92217422906232
  C   -0.75437225737768      1.63019797195355     -0.13271528493448
  H   -1.72546189270422      1.94116713033889     -0.52520114645206
  H   -0.76828246814035      1.80156737760744      0.94656799414811
  H   0.01001199714747      2.26705773787374     -0.58024437016600
  C   -1.50657631125156     -0.74471036847584      0.26926696794384
  H   -1.42557460143290     -0.62474556712985      1.35280803369886
  H   -1.36141313733046     -1.79958602755489      0.02565788602350
  H   -2.52699990407296     -0.47582680323910     -0.01350467441320
