14

C	-0.5755	-0.002064	-1.424776
C	0.0	0.0	0.0
Br	0.134346	-1.58369	-2.345628
H	1.092781	0.0	0.0
H	-0.321561	-0.923616	0.492428
C	-2.10107	-0.088771	-1.438445
H	-2.41612	-0.986857	-0.901832
H	-2.520451	0.791411	-0.944891
H	-2.474415	-0.138698	-2.462067
C	-0.149913	1.177367	-2.178714
N	0.127171	2.16148	-2.759498
C	-0.522913	1.13875	0.748037
N	-1.014099	2.041228	1.317571
Cl	3.304111	0.0	0.0
