14

C	-0.411933	0.069435	-1.472035
C	0.0	0.0	0.0
Br	-2.349197	0.498459	-1.610086
H	1.095876	0.0	0.0
H	-0.313915	0.928332	0.486995
C	0.391173	1.156914	-2.175467
H	0.187708	2.120236	-1.702942
H	1.453783	0.923523	-2.050935
H	0.129627	1.213054	-3.232942
C	-0.244471	-1.217632	-2.14286
N	-0.113927	-2.251919	-2.686013
C	-0.563617	-1.13296	0.716399
N	-1.039993	-2.033729	1.299768
Cl	3.304462	0.0	0.0
