14

C	-0.406748	0.060672	-1.474
C	0.0	0.0	0.0
Br	-2.352899	0.439442	-1.623451
H	1.095834	0.0	0.0
H	-0.318816	0.929108	0.482013
C	0.372258	1.169141	-2.171106
H	0.136375	2.126923	-1.702497
H	0.119873	1.216845	-3.231101
H	1.439368	0.964833	-2.036621
C	-0.199681	-1.220526	-2.144582
N	-0.023151	-2.249842	-2.684148
C	-0.557734	-1.134448	0.718813
N	-1.021597	-2.041469	1.302725
Cl	3.308273	0.0	0.0
