14

C	-0.567888	-0.000988	-1.426626
C	0.0	0.0	0.0
Br	0.126063	-1.555918	-2.406707
H	1.092727	0.0	0.0
H	-0.316531	0.932951	0.483177
C	-2.093807	-0.060564	-1.457287
H	-2.436262	-0.977708	-0.976355
H	-2.497037	0.800706	-0.915427
H	-2.458365	-0.036504	-2.485038
C	-0.123562	1.199478	-2.133861
N	0.125153	2.196563	-2.704612
C	-0.522418	-1.119505	0.773882
N	-0.98258	-2.004481	1.393946
Cl	3.296837	0.0	0.0
