14

C	-0.575794	0.008418	-1.42498
C	0.0	0.0	0.0
Br	0.135938	-1.564735	-2.360402
H	1.092801	0.0	0.0
H	-0.320458	-0.927261	0.487168
C	-2.099473	-0.077254	-1.440344
H	-2.474133	-0.118155	-2.463937
H	-2.518296	0.799105	-0.939403
H	-2.415785	-0.978231	-0.911017
C	-0.141608	1.196576	-2.154913
N	0.135285	2.176621	-2.741723
C	-0.526912	1.132977	0.753914
N	-1.004822	2.033613	1.33697
Cl	3.301009	0.0	0.0
