14

C	-0.408188	0.064718	-1.472931
C	0.0	0.0	0.0
Br	-2.353372	0.445696	-1.622872
H	1.095875	0.0	0.0
H	-0.317338	0.92841	0.484542
C	0.372627	1.171973	-2.16975
H	0.140501	2.13041	-1.699906
H	1.438961	0.964814	-2.039074
H	0.117399	1.220887	-3.228517
C	-0.201384	-1.216354	-2.14439
N	-0.022555	-2.245238	-2.684435
C	-0.558276	-1.134825	0.716878
N	-1.022146	-2.042486	1.299398
Cl	3.304745	0.0	0.0
