14

C	-0.411816	0.061364	-1.47259
C	0.0	0.0	0.0
Br	-2.347351	0.498281	-1.612824
H	1.095835	0.0	0.0
H	-0.313129	0.931507	0.4814
C	0.39644	1.139664	-2.183364
H	1.457405	0.901329	-2.057022
H	0.135529	1.190105	-3.241117
H	0.198842	2.107199	-1.717144
C	-0.251028	-1.230358	-2.13498
N	-0.122353	-2.265872	-2.675831
C	-0.563083	-1.128968	0.723016
N	-1.028836	-2.032709	1.310896
Cl	3.303546	0.0	0.0
