14

C	-0.430276	-0.038674	-1.477681
C	0.0	0.0	0.0
Br	0.050786	1.695563	-2.274511
H	1.093732	0.0	0.0
H	-0.366392	0.903979	0.491068
C	0.314607	-1.143924	-2.218543
H	0.023617	-2.111437	-1.799573
H	0.076876	-1.127894	-3.283334
H	1.386297	-0.997288	-2.062942
C	-1.879457	-0.168547	-1.626223
N	-3.042613	-0.301642	-1.736957
C	-0.497632	-1.180356	0.69954
N	-0.89907	-2.139883	1.245505
Cl	3.320838	0.0	0.0
