14

C	-0.468036	-0.025132	-1.46011
C	0.0	0.0	0.0
Br	0.034234	1.660025	-2.337567
H	1.093779	0.0	0.0
H	-0.318706	-0.94114	0.464673
C	0.219455	-1.177937	-2.185935
H	-0.096952	-2.122523	-1.732394
H	-0.046284	-1.18436	-3.243924
H	1.299528	-1.067623	-2.063417
C	-1.924494	-0.127085	-1.55667
N	-3.091299	-0.257162	-1.623778
C	-0.546629	1.108031	0.77029
N	-1.004352	1.986089	1.401521
Cl	3.321866	0.0	0.0
