14

C	-0.568321	0.034253	-1.426362
C	0.0	0.0	0.0
Br	0.135352	-1.489653	-2.447531
H	1.092702	0.0	0.0
H	-0.317997	0.920106	0.505938
C	-2.092935	-0.036327	-1.458746
H	-2.504654	0.804175	-0.891165
H	-2.427105	-0.969706	-1.004388
H	-2.460327	0.013251	-2.484539
C	-0.12096	1.257706	-2.090316
N	0.145011	2.276711	-2.612233
C	-0.522724	-1.138253	0.745732
N	-0.985884	-2.03711	1.343805
Cl	3.299986	0.0	0.0
