17

C	-0.561448	-0.012647	-1.412005
C	0.0	0.0	0.0
F	-1.96104	0.01392	-1.289778
H	1.09027	0.0	0.0
N	-0.215683	1.278643	-2.146657
O	-1.110115	1.82908	-2.787113
O	0.951601	1.625673	-2.084567
N	-0.10859	-1.083429	-2.180647
H	-0.695112	-1.244803	-2.9882
H	-0.036092	-1.898754	-1.585102
N	-0.389968	-1.283415	0.594465
H	-1.332539	-1.228968	0.963083
H	0.251408	-1.495446	1.348698
N	-0.458789	1.219716	0.634675
H	-1.431782	1.145873	0.90913
H	0.115367	1.419112	1.443742
Br	3.614631	0.0	0.0
