17

C	-0.430546	-0.021595	-1.465145
C	0.0	0.0	0.0
F	-1.805598	0.010845	-1.516153
H	1.095759	0.0	0.0
N	0.031532	1.259668	-2.156682
O	1.130898	1.240591	-2.694826
O	-0.721105	2.229808	-2.094927
N	0.044059	-1.117073	-2.225618
H	1.03728	-0.970248	-2.384081
H	-0.051403	-1.917833	-1.606403
N	-0.442383	-1.279386	0.555692
H	0.228815	-1.548072	1.2656
H	-1.328065	-1.114222	1.019916
N	-0.496849	1.158151	0.732016
H	-1.11245	1.723799	0.162153
H	0.290696	1.728602	1.01295
Br	3.532532	0.0	0.0
