17

C	-0.532687	0.015065	-1.427498
C	0.0	0.0	0.0
F	-0.086173	1.112521	-2.105801
H	1.094613	0.0	0.0
N	0.018271	-1.163241	-2.26427
O	0.711201	-2.014935	-1.718253
O	-0.337963	-1.175212	-3.443435
N	-1.942697	-0.005475	-1.440363
H	-2.292253	-0.184133	-2.373116
H	-2.233496	-0.718765	-0.77874
N	-0.587855	-1.166114	0.674768
H	0.060339	-1.939324	0.573491
H	-0.620772	-0.913143	1.655038
N	-0.423374	1.205005	0.6948
H	0.31053	1.895024	0.607547
H	-1.272414	1.572247	0.283636
Br	3.595762	0.0	0.0
