17

C	-0.393334	-0.156559	-1.466761
C	0.0	0.0	0.0
F	-1.682468	-0.602427	-1.625993
H	1.098775	0.0	0.0
N	-0.403073	1.248626	-2.113623
O	0.706632	1.717752	-2.343272
O	-1.479691	1.786703	-2.344569
N	0.49541	-1.043564	-2.101979
H	0.403828	-1.027011	-3.109423
H	1.455787	-0.836471	-1.828296
N	-0.505696	-1.179334	0.72217
H	-0.478157	-1.979525	0.097504
H	0.173705	-1.374459	1.451253
N	-0.487768	1.238101	0.559865
H	-1.348683	1.042979	1.056216
H	0.19885	1.598592	1.209271
Br	3.537058	0.0	0.0
