17

C	-0.34845	0.033798	-1.484337
C	0.0	0.0	0.0
F	0.108513	-1.11081	-2.063327
H	1.101194	0.0	0.0
N	-1.868042	0.008391	-1.651754
O	-2.40234	-1.058044	-1.932581
O	-2.449997	1.071827	-1.447146
N	0.156936	1.152605	-2.199971
H	1.171287	1.079161	-2.140367
H	-0.110953	1.969185	-1.662417
N	-0.604877	-1.17503	0.628936
H	-0.419286	-1.984045	0.043967
H	-0.100304	-1.336736	1.494368
N	-0.40674	1.238406	0.629959
H	0.24528	1.45814	1.370693
H	-1.336641	1.129921	1.016944
Br	3.537349	0.0	0.0
