17

C	-0.566894	0.005174	-1.411885
C	0.0	0.0	0.0
F	-0.085605	1.054737	-2.141771
H	1.091417	0.0	0.0
N	-0.091556	-1.225445	-2.225168
O	0.744842	-1.978452	-1.741503
O	-0.61825	-1.35388	-3.331688
N	-1.975586	0.0557	-1.387611
H	-2.35028	-0.13543	-2.30825
H	-2.280038	-0.636692	-0.709907
N	-0.579647	-1.167187	0.683661
H	0.067892	-1.939781	0.569687
H	-0.587104	-0.917041	1.664787
N	-0.409986	1.207664	0.699923
H	-1.249552	1.593781	0.285676
H	0.338446	1.884583	0.62558
Br	3.588153	0.0	0.0
