17

C	-0.465106	-0.03756	-1.448208
C	0.0	0.0	0.0
F	-1.837301	-0.168193	-1.450091
H	1.092964	0.0	0.0
N	-0.164252	1.296937	-2.114741
O	-1.086428	2.087622	-2.266236
O	1.00443	1.471629	-2.439294
N	0.107224	-1.057389	-2.250753
H	0.102418	-1.887388	-1.663958
H	1.081909	-0.803153	-2.394943
N	-0.404485	-1.287478	0.571483
H	0.205129	-1.503248	1.351036
H	-1.361853	-1.238532	0.901087
N	-0.460247	1.218612	0.630029
H	0.021133	1.349258	1.510913
H	-1.461752	1.194455	0.786203
Br	3.536909	0.0	0.0
