16

C	-0.606561	-0.015276	-1.571163
C	0.086512	0.063817	-0.179092
Cl	0.066333	-1.378392	-2.521707
H	1.172172	0.109018	-0.364848
C	-2.044926	-0.235429	-1.39714
N	-3.200041	-0.373152	-1.230269
C	-0.406364	1.2063	-2.359241
N	-0.231133	2.197562	-2.966097
N	-0.157566	-1.156672	0.536244
H	0.75331	-1.282556	1.076027
H	-0.891585	-0.999326	1.220876
C	-0.330503	1.329469	0.563856
H	-0.137531	2.250148	0.004395
H	0.265117	1.341862	1.479248
H	-1.392504	1.294177	0.833164
H	2.18211	-0.883157	1.609286
