16

C	-0.56048	-0.031274	-1.55391
C	0.097852	0.050298	-0.157107
Cl	-2.364422	-0.129583	-1.411677
H	1.186977	0.110306	-0.333411
C	-0.260611	1.148263	-2.372714
N	0.007287	2.102197	-3.005025
C	-0.112221	-1.231609	-2.263874
N	0.253751	-2.145815	-2.904518
N	-0.113143	-1.194866	0.529685
H	-0.913446	-1.102601	1.148809
H	0.758244	-1.252786	1.138047
C	-0.307034	1.302078	0.610107
H	-1.358503	1.255633	0.909104
H	-0.138489	2.227373	0.04873
H	0.320736	1.307441	1.503983
H	2.134004	-0.733766	1.737575
