15
Coordinates from ORCA-job run
  C   0.78770403035146      0.20833763206307     -0.39777678855872
  C   -0.59416417123338     -0.04519776825073      0.26208606061125
  Cl  0.69927922312739      0.18309004086337     -2.14585716770633
  H   -0.38389465907562     -0.07082034514402      1.33919897745552
  N   1.70149541755955     -0.92532747547247      0.11663129642487
  O   1.89736473955060     -0.87335069455279      1.32487703136402
  O   2.10739329559916     -1.75924082709797     -0.66751028384327
  C   1.35228703591291      1.47028101987081      0.06294325123507
  N   1.73933575476744      2.51163541613203      0.44737701109143
  N   -1.02967297194517     -1.35505130794687     -0.12772543901129
  H   -1.46737153937489     -1.32435332700809     -1.04051928137880
  H   -1.67153167117689     -1.74756282364703      0.54636529588920
  N   -1.49681421378627      1.01417156661003     -0.15061068935431
  H   -2.42495756483739      0.80409672048275      0.19569935569417
  H   -1.21745270543891      1.91129217309793      0.23282137008721
