16
Coordinates from ORCA-job run
  C   0.48799482940741      0.10856770059731      0.59532466151809
  C   -0.53826372926022      0.18170807141735     -0.54822030314313
  H   -0.06216533122881     -0.06723169204707      1.52622008347877
  H   0.01642484350080      0.35955231816019     -1.48183811156605
  N   1.13191498176172      1.40650680881130      0.72170336914648
  H   1.73530965020472      1.42771763122114      1.53516014863072
  H   1.70251966174630      1.59697820888648     -0.09533585798690
  N   1.33201986943900     -1.06286505488757      0.37576467497358
  H   1.91638388423315     -1.22159367102672      1.18844876003893
  H   1.95005511804148     -0.89140589735766     -0.41156687228220
  C   -1.43079726360239      1.32653957109092     -0.35016891422027
  N   -2.20638048676277      2.19627666300072     -0.20927696850636
  C   -1.35723159855283     -1.10394573808452     -0.69068090260937
  H   -2.06593086347015     -1.01899807272937     -1.51652308109921
  H   -0.69143966901939     -1.94736543225986     -0.86305775048393
  H   -1.92141389643803     -1.29044141479263      0.22604706411085
