16
Coordinates from ORCA-job run
  C   0.71745999892049     -0.21716678889645      0.29692660133672
  C   -0.45015852741711     -0.13683621589191     -0.70231051299395
  H   0.84883625852533     -1.28325236016272      0.54028133448140
  H   -0.11682268543222     -0.56914194696945     -1.65444691388003
  N   0.34510755685388      0.45035841891245      1.52385837395657
  H   0.96671175427707      0.18752894565380      2.27824455633274
  H   0.42270471088992      1.45299883397033      1.38416958596337
  N   1.89511435163002      0.38886153018704     -0.31983590643507
  H   2.14626028612896     -0.09681914321858     -1.17458797852246
  H   2.68393819852575      0.32124724575457      0.31366255074064
  C   -0.77713081287788      1.27021366335021     -0.94811242207273
  N   -1.07471086223977      2.39410719971869     -1.11063255513781
  C   -1.67926651263680     -0.89724830852735     -0.20199604833302
  H   -1.99152605576056     -0.49347807467309      0.76019510357176
  H   -2.50380876398695     -0.81770303978746     -0.91249497485958
  H   -1.43370889540012     -1.95466995942007     -0.07492079414857
