16
Coordinates from ORCA-job run
  C   0.82223799722310      0.24992044773397      0.06725770469262
  C   -0.46489537858756      0.09302360204636     -0.77508307894998
  H   1.42173773684901      1.04760170356644     -0.41024823654495
  H   -0.15419727271777     -0.19569722425627     -1.78674448354892
  N   1.52464850332103     -1.02703431928619      0.06825697209404
  H   2.12417592895806     -1.09624363420772      0.88128351807069
  H   2.11476820361618     -1.09066344900566     -0.75278161302564
  N   0.45884906818752      0.57526983305801      1.43535329421533
  H   1.29860011968463      0.73675254213205      1.98126130443499
  H   -0.06719033603702      1.44287343265026      1.44898131409941
  C   -1.11108146902485      1.40461833002670     -0.87207392070801
  N   -1.61493260060099      2.46600867156768     -0.86720455714538
  C   -1.42013826903505     -0.95747343905080     -0.20928928759448
  H   -2.27997036818488     -1.08820961753516     -0.86955924581832
  H   -0.88302236035240     -1.90075397109608     -0.11821214794495
  H   -1.76958950329900     -0.66199290834360      0.77880246367356
