16
Coordinates from ORCA-job run
  C   0.79040570235125      0.35662102253285      0.11294337452948
  C   -0.43593823869865      0.11167772795148     -0.79056656511599
  H   1.33420283865650      1.22133436665482     -0.29472824061294
  H   -0.07613763130387     -0.25094647631426     -1.76256327916397
  N   1.58962323920080     -0.87092525053077      0.12499045576911
  H   2.40229452751188     -0.72993848543421      0.71476100967483
  H   1.92752013560717     -1.08468548784072     -0.80796466276126
  N   0.35197899131241      0.72273498806272      1.44044162699742
  H   0.15445250709592     -0.11695139890321      1.97234302311607
  H   1.06406223475679      1.25063269990081      1.92737344865405
  C   -1.11245265526022      1.38723524159196     -1.03393699910667
  N   -1.65662401188896      2.40682528085738     -1.23891466151753
  C   -1.40550538028266     -0.91378236035527     -0.19935893922318
  H   -0.86770382888979     -1.83443244005411      0.02837735095987
  H   -1.85638231023724     -0.52042757245905      0.71235992605126
  H   -2.20679611993132     -1.13497185566042     -0.90655686825054
