16
Coordinates from ORCA-job run
  C   0.70855135882141     -0.21489816906969      0.32031804127527
  C   -0.42119250343818     -0.12935586028667     -0.72078109589774
  H   0.84346762698373     -1.28403459468772      0.54865152677306
  H   -0.04691735233933     -0.54112399285406     -1.66684347386218
  N   0.28192782187928      0.42490194219935      1.54455921115662
  H   0.88193058094567      0.15910607726554      2.31547588900011
  H   0.34742207366177      1.43111589197789      1.42446560184916
  N   1.90132042918352      0.41578179673818     -0.24021324003854
  H   2.19303204763444     -0.05411243180276     -1.09090455368158
  H   2.66500948464972      0.34940535625053      0.42330383537807
  C   -0.75490082208270      1.27790003359567     -0.95586779398571
  N   -1.05947040751429      2.40103537413066     -1.11076169997147
  C   -1.65988869024334     -0.91158943490186     -0.28159156771602
  H   -1.40668043116876     -1.96780812481460     -0.16032503327788
  H   -2.45614388619617     -0.83089619012822     -1.02355324978567
  H   -2.01546733077677     -0.52642767361223      0.67306760278451
