15

C	0.0	0.0	0.0
C	-0.241968	0.003229	-1.564126
Br	1.920859	0.0	0.0
H	0.477645	-0.693851	-1.982107
H	-0.300325	0.875617	0.554874
N	-0.600776	-1.184014	0.609578
O	-0.635466	-1.220252	1.855282
O	-0.620966	-2.215245	-0.113743
N	0.186206	1.358143	-2.070444
O	-0.329316	2.341258	-1.537771
O	0.969578	1.398285	-3.017534
N	-1.499289	-0.254093	-2.21103
H	-2.204259	0.265225	-1.694545
H	-1.695118	-1.227262	-1.995769
H	-2.048133	0.0	0.0
