16

C	0.0	0.0	0.0
C	-0.250635	0.357235	-1.486112
F	1.356701	0.0	0.0
H	0.513859	-0.222664	-2.006727
H	-0.430891	0.684032	0.725866
N	-0.347969	-1.397058	0.431242
O	-0.100522	-2.290163	-0.37157
O	-0.683632	-1.536558	1.60154
C	-0.005797	1.848637	-1.635706
H	0.025205	2.126044	-2.689484
H	0.949978	2.108604	-1.175691
H	-0.814264	2.403973	-1.160069
N	-1.497378	-0.039868	-2.246711
O	-2.167546	0.865915	-2.724423
O	-1.649102	-1.235896	-2.461126
Br	-3.52429	0.0	0.0
