14

C	0.0	0.0	0.0
C	-0.464533	0.125589	-1.479253
Cl	1.761664	0.0	0.0
H	0.446528	0.100486	-2.083144
H	-0.378591	0.825304	0.593075
N	-0.387449	-1.262722	0.726009
O	-0.625292	-1.136568	1.920898
O	-0.32428	-2.315075	0.102044
N	-1.037253	1.455528	-1.634822
H	-1.95327	1.412112	-1.177854
H	-1.197606	1.619131	-2.623564
C	-1.262099	-0.987715	-2.038984
N	-1.739129	-1.798785	-2.744391
Br	-3.44438	0.0	0.0
