16
Coordinates from ORCA-job run
  C   -0.99389658377085      0.00897282235282     -0.20956803394297
  C   0.36119561516042     -0.61095029423088      0.16438596309495
  F   -1.94352288458654     -0.63416091190952      0.61011802159433
  H   0.30132993568596     -1.68092802339529     -0.03636871611584
  N   -1.02243296116803      1.40996318249536     -0.10716793344663
  H   -0.75932736968805      1.71199574939807      0.82238624939297
  H   -1.92265965699087      1.78519048204029     -0.37546989007186
  C   -1.31202038079485     -0.38762425496202     -1.59662576609718
  N   -1.54338258562160     -0.71484477446176     -2.70002538659353
  N   0.54053658169456     -0.52571989613651      1.65251669797808
  O   0.49238360509816      0.59379409028831      2.16259293584128
  O   0.76118572119520     -1.57314540152815      2.24935808001762
  C   1.54269581473319      0.03833546180476     -0.52655414735538
  H   1.60710636145378      1.09208723583304     -0.26075292817271
  H   1.42469033791210     -0.04190730805786     -1.60873647098916
  H   2.46511844968742     -0.47105815953067     -0.24108867513397
