16
Coordinates from ORCA-job run
  C   -0.72496650316214      0.44101300910380     -0.43700699372450
  C   0.28934334998458     -0.24709481997124      0.49095916754357
  F   -0.08933656142019      0.81165000971549     -1.62315310933228
  H   -0.26668325244107     -0.67005012644705      1.32712406685329
  N   -1.81132418402067     -0.44428177500282     -0.66579765672220
  H   -2.53909042554797      0.01018566374902     -1.20361573326398
  H   -1.50100978534265     -1.26989974750070     -1.16278772561969
  C   -1.24614613105879      1.67624903091930      0.18080501711329
  N   -1.67683842655155      2.64552103237158      0.68340768048322
  N   1.21661619236190      0.75795526173216      1.10763412500758
  O   1.73273701832406      1.58306797152260      0.35976843548621
  O   1.42229716817158      0.64052951495935      2.31345709221674
  C   1.14001588158338     -1.28740785163962     -0.21826278676871
  H   1.69379886895199     -0.82619908372681     -1.03479277457158
  H   0.52167034854000     -2.09584511978850     -0.61227968679095
  H   1.84091644162754     -1.72539296999657      0.49454088208997
