16
Coordinates from ORCA-job run
  C   -0.86055168472577      0.09122283589229     -0.44587099910243
  C   0.32043445837564     -0.54555997501244      0.30042248455936
  F   -1.22595003379095     -0.87983051905423     -1.40517878163555
  H   -0.04542502639064     -1.48862746137740      0.71214902766688
  N   -1.89810834168763      0.41836018417592      0.44173438364599
  H   -2.18062608235404     -0.36743150776881      1.01316117526884
  H   -2.69305110512747      0.83604992370012     -0.02304577893360
  C   -0.46776927346427      1.28650103645267     -1.21413645831128
  N   -0.17071986490073      2.21987763418553     -1.86093433770203
  N   0.63161368516695      0.31072187091994      1.48868991295453
  O   1.22776074272473      1.36202660591409      1.27468005848448
  O   0.25343245487652     -0.10084971961642      2.58311754193896
  C   1.55008208303970     -0.74432072615582     -0.55796059458689
  H   1.29249988696651     -1.35782604866406     -1.42182426630911
  H   2.32679064442050     -1.25494361841562      0.01405568312843
  H   1.93958745687096      0.21462948482424     -0.89905905106659
