16
Coordinates from ORCA-job run
  C   -0.96283781487817      0.18530877788860     -0.26607105658170
  C   0.24805324090744     -0.67213466770433      0.13310949846906
  F   -2.05781724675041     -0.35492099737955      0.43869334702850
  H   0.03541511231566     -1.70043482376517     -0.16040004889576
  N   -0.77878756515760      1.56053344934433     -0.04668857312868
  H   -1.58569369404079      2.09707529761076     -0.33687106793123
  H   -0.53832465147932      1.74677500963056      0.91881548203345
  C   -1.23796331501226     -0.05051641229576     -1.69816151656811
  N   -1.43547543476184     -0.25500776983885     -2.83709463938327
  N   0.33124090608584     -0.72697716656364      1.63121474523478
  O   0.42295438586716      0.34497107058914      2.22973609629389
  O   0.34096010227619     -1.83739582903175      2.14991137123359
  C   1.56321428231891     -0.17334263304185     -0.42946435266052
  H   1.51297100514815     -0.15520888787575     -1.51982897069118
  H   2.37187731932873     -0.84406809057645     -0.13231901857093
  H   1.77121336783229      0.83434367300972     -0.07358129588189
