16
Coordinates from ORCA-job run
  C   -0.89962654507054      0.02314957744172     -0.37311811795003
  C   0.39316250927891     -0.52181999346561      0.25076762322067
  F   -1.24891422880244     -0.94561421229577     -1.34100718747267
  H   0.15254695528091     -1.51058557352223      0.64719690345585
  N   -1.88654521233121      0.21771051594219      0.60534459525743
  H   -2.04355255202710     -0.60701680894298      1.16965794181607
  H   -2.75327512994473      0.57259786408508      0.22426154150032
  C   -0.68383083297525      1.27564384371260     -1.12005883830021
  N   -0.52779543528987      2.25398103192676     -1.74960143600866
  N   0.71889859235140      0.31616821779844      1.44762771171786
  O   1.19638047449370      1.42688994859702      1.23554267512619
  O   0.46986906155760     -0.16942436920812      2.54888882793500
  C   1.56163031852868     -0.56941898454956     -0.70904554967650
  H   1.83156827749014      0.43442172612753     -1.03650587308103
  H   2.42655659259186     -1.02408942556499     -0.22241310269448
  H   1.29192715486795     -1.17259335808209     -1.57653771484581
