16
Coordinates from ORCA-job run
  C   -0.96613457769184     -0.00754946104599     -0.31380137355391
  C   0.36240580232215     -0.60815840844399      0.17079821219626
  F   -1.97436730741575     -0.71857547876450      0.36867131422681
  H   0.36056717178368     -1.66689741060846     -0.08963618510569
  N   -1.05163996100610      1.38472363666325     -0.14626090101637
  H   -1.93100760142221      1.74866453943572     -0.48863812406200
  H   -0.89589150634530      1.64504296589281      0.81935115940326
  C   -1.12505827953889     -0.34112377352504     -1.74413379640622
  N   -1.23117124261352     -0.62091422267499     -2.87920825532596
  N   0.38159599106002     -0.59787216633651      1.67174543331960
  O   0.57568708908173     -1.66880214249018      2.23540533660203
  O   0.24180578581683      0.49092405284576      2.22946304390161
  C   1.58746257357161      0.11084082408395     -0.35608608756222
  H   1.58702887172548      1.15033391987183     -0.03247210395350
  H   1.58750137077203      0.08503439246170     -1.44737859227416
  H   2.49121581990007     -0.38667126736536      0.00118091961045
