16
Coordinates from ORCA-job run
  C   -0.90390910638413     -0.05901817492458     -0.42281073041273
  C   0.33808213713402     -0.58079819259787      0.31258430554778
  F   -1.28480390632903     -1.09189814969749     -1.26645327189638
  H   0.03744381817306     -1.52817405645697      0.76119677364936
  N   -1.98177594758455      0.15859120625234      0.48817874106880
  H   -1.74200634780040      0.85164261823767      1.18678389091038
  H   -2.80294194586020      0.47832597406735     -0.01266394366274
  C   -0.60194891242383      1.09124301023403     -1.30987370850827
  N   -0.38750715883614      2.02217005545815     -1.99370825761540
  N   0.65520491864525      0.32028067164041      1.46155354320384
  O   0.73509699329641     -0.19025063383393      2.57584266376736
  O   0.82198957463996      1.51183509877797      1.19865626757230
  C   1.55518815163026     -0.71555804298750     -0.57959086400384
  H   1.87522100962901      0.26108857991279     -0.94499024460649
  H   1.31030900380491     -1.35317475139088     -1.43006305260422
  H   2.37435771826541     -1.17630521269150     -0.02464211240976
