16
Coordinates from ORCA-job run
  C   -0.86858570368755      0.09295113543014     -0.42976085189086
  C   0.32943133637949     -0.54858044658079      0.28486009092894
  F   -1.24238736739116     -0.86343710866068     -1.40109313631908
  H   -0.02243805737421     -1.50223509096247      0.68418352674883
  N   -1.89342699336235      0.39545941534499      0.48028952599236
  H   -2.69825172891366      0.81811832743348      0.03785774246879
  H   -2.16114198438761     -0.40169743353395      1.04283372103015
  C   -0.49692126846354      1.30462417309440     -1.18278302811543
  N   -0.21726534722275      2.25164887740888     -1.81743333135270
  N   0.65394339549394      0.28707949941020      1.48399329394326
  O   1.23828217580219      1.34710836497975      1.28046545252317
  O   0.29753460195764     -0.14826159271385      2.57644740475379
  C   1.54607313908443     -0.72164785954919     -0.59740368267644
  H   1.92333226239996      0.24637356617398     -0.92601233001722
  H   1.27836205679514     -1.32003704490656     -1.46852499511324
  H   2.33545948289002     -1.23746678236832     -0.04791940290433
