16
Coordinates from ORCA-job run
  C   -0.68897212017853      0.34084037265371     -0.48665704235376
  C   0.36786441712238     -0.24508337790154      0.46208956425842
  F   -0.11323855667254      0.66242591169481     -1.69271631859276
  H   -0.14734415638890     -0.65393727716059      1.33371411847585
  N   -1.66950860399286     -0.67534310556825     -0.75331803681775
  H   -2.21025700978801     -0.88049216469506      0.07881134798126
  H   -2.30233674506722     -0.34763553747928     -1.47519482426876
  C   -1.26685238672263      1.59812342852072      0.05477181447540
  N   -1.78239846144548      2.57695231876437      0.45088051707030
  N   1.20284608648571      0.87518145007836      1.00791546062369
  O   2.02629301041139      1.37769291627257      0.24826347672645
  O   0.98258005742891      1.21570575381928      2.16911391333774
  C   1.24226155405387     -1.27218057705429     -0.22567075489585
  H   1.94538020815539     -1.69937131856834      0.49164685414986
  H   1.79989744877083     -0.80620950918448     -1.03526820668846
  H   0.61378525782770     -2.06566928419199     -0.62838188348162
