16
Coordinates from ORCA-job run
  C   -0.89402440027736     -0.06758235737627     -0.43001263341700
  C   0.37722378062659     -0.50311595687031      0.32527171966536
  F   -1.03157192396826     -0.94254294251479     -1.49691873706451
  H   0.09907971119156     -1.39060819652672      0.90338801507367
  N   -2.07002910617125     -0.20769933144335      0.36063841766707
  H   -1.98411517463447      0.34110055703893      1.20611715426252
  H   -2.88144204973315      0.09863549660553     -0.16380373250062
  C   -0.68374124084612      1.27538058613699     -1.03333330102880
  N   -0.51608133878221      2.34741576529411     -1.48411317917858
  N   0.75596271681453      0.53545268104187      1.36044371399831
  O   1.94451598090316      0.66801426302792      1.62245926074223
  O   -0.15915782696232      1.14898223195003      1.90984879923644
  C   1.54536635488338     -0.77385473610269     -0.59944715893552
  H   1.83123635033135      0.13077518597139     -1.13965999428978
  H   2.40379530760187     -1.11723439287736     -0.02624650891430
  H   1.26498285902270     -1.54311885335529     -1.31663183531651
