16
Coordinates from ORCA-job run
  C   -0.89497001153759      0.02734829451632     -0.47208712245176
  C   0.31885213207189     -0.57689336390128      0.25910958238821
  F   -1.12008040133138     -0.80471421363619     -1.56812684917896
  H   -0.03649834014135     -1.49534025417661      0.73195033461514
  N   -2.04382026181808      0.03354433200970      0.34760477155714
  H   -1.83025249471914      0.09122642624516      1.33364120081931
  H   -2.73083286016256      0.72159626942084      0.07568140347703
  C   -0.55151219859209      1.35141729908995     -1.04443095719066
  N   -0.30849324505370      2.42010288233772     -1.46759054601293
  N   0.68354679255772      0.33775740336906      1.39726032954119
  O   0.00910876810719      0.23092427247905      2.42423209175746
  O   1.60139221665566      1.13372650848009      1.22789046529436
  C   1.50514941568606     -0.81748504195302     -0.64560127688283
  H   2.33600772992357     -1.22539346744049     -0.06815880670955
  H   1.83621588081743      0.10719309196507     -1.11747392812482
  H   1.22518687753638     -1.53601043880537     -1.41490069289833
