16
Coordinates from ORCA-job run
  C   -0.71640684101105      0.36224940797091     -0.43971666047353
  C   0.38939489680884     -0.26876225318476      0.42004201799297
  F   -0.20454397217595      0.77616028588546     -1.64555099327223
  H   -0.08076830504913     -0.76008653753477      1.27432706658328
  N   -1.69216633948461     -0.65141010119081     -0.73098034372989
  H   -2.17774522329849     -0.93689344768460      0.11122559905126
  H   -2.37310289783709     -0.28367809218248     -1.38657600919714
  C   -1.28790985758688      1.56437147501898      0.22083503944252
  N   -1.80777502750175      2.46692429030473      0.76499847171546
  N   1.22389672900728      0.82115172304891      1.02308112293694
  O   1.11997087476559      0.99639659633068      2.23585307203129
  O   1.93570676936266      1.46287351890030      0.25520977137648
  C   1.26112939115594     -1.21377342502518     -0.38090937873966
  H   1.78876727178059     -0.66418263814600     -1.15793579260118
  H   1.98886928446938     -1.69286015214458      0.27661212885122
  H   0.63468324659468     -1.97748065036680     -0.84051511196780
