16
Coordinates from ORCA-job run
  C   -0.98428213552912      0.06341264455649     -0.24224300750653
  C   0.30613148980511     -0.61514361579397      0.24308461078873
  F   -2.00307540946148     -0.40584241152413      0.61194104726850
  H   0.16319782855726     -1.69280392692753      0.15954339085231
  N   -0.90032330437965      1.46480037633655     -0.29669767934693
  H   -0.63394481436204      1.84846277718045      0.60130294090582
  H   -1.76062313099381      1.87694805333836     -0.63317979424305
  C   -1.30030589913762     -0.46166325405400     -1.58642441774078
  N   -1.52979593128339     -0.89290173318244     -2.65388404224389
  N   0.45458986599765     -0.37639901929920      1.71758852139376
  O   0.57015625270032     -1.36358065465406      2.43466094291667
  O   0.48786757545647      0.79406507377698      2.09813778469811
  C   1.55324757992428     -0.14275276901884     -0.47557700400058
  H   1.69674873262169      0.92600174752758     -0.32626808209453
  H   2.42360380835955     -0.68721300467162     -0.10450316178253
  H   1.45580749172477     -0.33539028359060     -1.54548204986509
