16
Coordinates from ORCA-job run
  C   -0.89563264101561     -0.06863033867651     -0.46624856424490
  C   0.35093958214118     -0.52965085394641      0.31270637655091
  F   -1.07527931135638     -1.01631856773331     -1.47328214878341
  H   0.04700499714634     -1.41453676090280      0.87663367807566
  N   -2.04176343096091     -0.04498875099777      0.35678791900664
  H   -1.83073992913726      0.12182285572230      1.33086230918116
  H   -2.76654661413879      0.57341559500680      0.02264173999902
  C   -0.62752440066150      1.20927819694686     -1.16891209412977
  N   -0.44582645225881      2.24331767518821     -1.69629210445994
  N   0.66655795378201      0.51227312073700      1.35181169325460
  O   -0.00017710662767      0.47215211329669      2.38854809699663
  O   1.53969989129496      1.33557671898428      1.09814061843713
  C   1.54730406599814     -0.79381880218568     -0.57194108493416
  H   1.30765219093543     -1.60203587913972     -1.26168704953956
  H   1.82418206430916      0.09481486945638     -1.13842195759880
  H   2.40114914054973     -1.09267119175632      0.03765257218881
