16
Coordinates from ORCA-job run
  C   -0.86857167031851      0.07868783177734     -0.43138406584583
  C   0.33536417823543     -0.54217254461637      0.29159505882386
  F   -1.23187086096862     -0.89265728249540     -1.39108712392400
  H   -0.00634661664827     -1.49546941569382      0.70043546757408
  N   -1.89804362993120      0.38163124316650      0.47421087259365
  H   -2.70719379532701      0.78690456977584      0.02319818335444
  H   -2.15856606460280     -0.41443528863178      1.04254478066408
  C   -0.50828852470877      1.28540421927310     -1.19777928534168
  N   -0.23945049939632      2.22678146431428     -1.84530584200902
  N   0.64809626369415      0.30950020191542      1.48287627721687
  O   1.22689971097301      1.37094834790589      1.27030197418266
  O   0.28667860191951     -0.11453881363729      2.57824162039772
  C   1.55495890163803     -0.70973270273276     -0.58731013193248
  H   1.29457919843920     -1.31710694693497     -1.45464385934428
  H   1.92277474105841      0.25963084131269     -0.92268324331822
  H   2.34898006594375     -1.21337572469865     -0.03321068309185
