16

C	-0.497275	0.105785	-1.431999
C	0.0	0.0	0.0
Cl	0.079608	-1.343495	-2.334388
H	1.10053	0.0	0.0
H	-0.010121	0.953756	-1.908899
C	-2.006501	0.179815	-1.53759
H	-2.354081	1.103977	-1.069618
H	-2.328339	0.174319	-2.582265
H	-2.441856	-0.679229	-1.02497
N	-0.448334	-1.196838	0.678033
H	0.389617	-1.757119	0.827638
H	-0.762551	-0.906217	1.598638
N	-0.339743	1.19716	0.722624
O	-0.314082	2.277435	0.097154
O	-0.490575	1.133834	1.961536
H	2.471334	0.0	0.0
