16

C	-0.474756	-0.032784	-1.457128
C	0.0	0.0	0.0
Cl	-0.055271	-1.63257	-2.169865
H	1.090763	0.0	0.0
H	0.111547	0.694135	-2.017318
C	-1.964644	0.20196	-1.642357
H	-2.236305	0.126076	-2.697891
H	-2.227482	1.201012	-1.287317
H	-2.552912	-0.536603	-1.090252
N	-0.414758	-1.053824	0.85694
H	-1.207499	-1.571009	0.512294
H	0.373866	-1.673937	0.988668
N	-0.420572	1.332755	0.529421
O	-0.124915	2.30243	-0.182493
O	-0.979751	1.429799	1.622324
H	2.656674	0.0	0.0
