16

C	-0.423734	0.009217	-1.449908
C	0.0	0.0	0.0
Cl	-2.240996	0.082447	-1.599249
H	1.092941	0.0	0.0
H	-0.168447	-0.993077	-1.795011
C	0.22562	1.045865	-2.338506
H	0.059911	0.791564	-3.389021
H	-0.161968	2.042631	-2.142453
H	1.297775	1.03508	-2.114752
N	-0.432207	-1.178377	0.679291
H	-1.350713	-1.041485	1.081241
H	0.223424	-1.357797	1.431501
N	-0.403538	1.257831	0.70336
O	-1.016964	1.168015	1.775065
O	-0.044985	2.328034	0.208067
H	2.672953	0.0	0.0
