16

C	-0.514771	-0.01848	-1.434565
C	0.0	0.0	0.0
Cl	0.172062	-1.438547	-2.289212
H	1.09066	0.0	0.0
H	-0.11225	0.853374	-1.947934
C	-2.027321	-0.082587	-1.529805
H	-2.34823	-0.068948	-2.574423
H	-2.382434	-1.006756	-1.069308
H	-2.478058	0.772719	-1.015968
N	-0.474887	-1.083777	0.800781
H	-1.289312	-0.797564	1.329121
H	0.261446	-1.317229	1.459183
N	-0.38242	1.328498	0.553601
O	-1.012867	1.388287	1.622879
O	0.001304	2.322532	-0.072859
H	2.634631	0.0	0.0
