16

C	-0.499075	0.072102	-1.434518
C	0.0	0.0	0.0
Cl	0.059787	-1.41074	-2.294482
H	1.100597	0.0	0.0
H	0.000232	0.899946	-1.934189
C	-2.006641	0.161582	-1.541352
H	-2.330783	0.118924	-2.584378
H	-2.451392	-0.669179	-0.992744
H	-2.340173	1.108223	-1.11036
N	-0.463576	-1.177233	0.706405
H	0.342543	-1.794523	0.75977
H	-0.653814	-0.874523	1.656778
N	-0.335029	1.210508	0.698336
O	-0.305199	2.278136	0.050925
O	-0.468542	1.172411	1.940329
H	2.473208	0.0	0.0
