19

C	-0.45919	-0.001296	-1.46066
C	0.0	0.0	0.0
F	0.214361	0.976093	-2.128125
H	1.091366	0.0	0.0
N	-0.003824	-1.329169	-2.070071
O	1.063649	-1.346434	-2.662301
O	-0.76706	-2.28431	-1.902117
C	-1.933334	0.166038	-1.741816
H	-2.528141	-0.578369	-1.21947
H	-2.243814	1.162748	-1.430391
H	-2.095059	0.063653	-2.817388
C	-0.522226	-1.138027	0.85171
H	-0.186695	-0.978696	1.878579
H	-1.609294	-1.20519	0.843067
H	-0.093188	-2.077842	0.506921
N	-0.457274	1.310569	0.571174
O	-1.605822	1.356977	1.023409
O	0.318607	2.259534	0.529017
Br	3.520019	0.0	0.0
