19

C	-0.452721	-0.002964	-1.463268
C	0.0	0.0	0.0
F	0.270791	0.926453	-2.148326
H	1.091319	0.0	0.0
N	-0.04672	-1.364405	-2.030919
O	1.080271	-1.467791	-2.491279
O	-0.892707	-2.257763	-1.955922
C	-1.914699	0.227771	-1.758783
H	-2.174044	1.24803	-1.478511
H	-2.551095	-0.468908	-1.220335
H	-2.075377	0.1029	-2.831558
C	-0.533993	-1.140312	0.84128
H	-0.214714	-0.985401	1.873297
H	-1.621316	-1.20693	0.815845
H	-0.100002	-2.079843	0.500237
N	-0.456452	1.308667	0.571563
O	0.317905	2.258551	0.524234
O	-1.60287	1.353386	1.033911
Br	3.479002	0.0	0.0
