19

C	-0.400454	-0.005339	-1.474135
C	0.0	0.0	0.0
F	0.125552	-1.142438	-2.013819
H	1.092609	0.0	0.0
N	-1.917171	-0.172916	-1.55793
O	-2.569251	0.784868	-1.147998
O	-2.374854	-1.224544	-1.988607
C	0.014638	1.170785	-2.316943
H	-0.506247	2.074937	-2.016107
H	1.089285	1.308176	-2.187943
H	-0.211842	0.934995	-3.360076
C	-0.52075	-1.206932	0.748684
H	-1.607111	-1.197331	0.847688
H	-0.20521	-2.105944	0.218973
H	-0.081003	-1.22535	1.745823
N	-0.415332	1.273419	0.669671
O	0.125944	2.307354	0.287312
O	-1.244093	1.214276	1.576532
Br	3.433655	0.0	0.0
