19

C	-0.387039	0.005379	-1.479366
C	0.0	0.0	0.0
F	0.049115	-1.180394	-1.995812
H	1.092609	0.0	0.0
N	-1.910824	-0.033718	-1.58524
O	-2.486341	0.970122	-1.171505
O	-2.448256	-1.034543	-2.043783
C	0.145651	1.125025	-2.332577
H	1.224694	1.172694	-2.173473
H	-0.06975	0.884523	-3.376938
H	-0.302359	2.076644	-2.063998
C	-0.529822	-1.209597	0.737118
H	-1.619629	-1.216205	0.796266
H	-0.127797	-1.216627	1.749769
H	-0.182468	-2.106198	0.224287
N	-0.411547	1.271657	0.676102
O	0.09128	2.314772	0.266605
O	-1.197599	1.198516	1.62066
Br	3.432876	0.0	0.0
