19

C	-0.528764	-0.019018	-1.428975
C	0.0	0.0	0.0
F	-1.866463	0.30247	-1.422985
H	1.091343	0.0	0.0
N	0.160584	1.029686	-2.305856
O	1.327731	0.785627	-2.575554
O	-0.508958	1.973938	-2.70765
C	-0.337392	-1.346602	-2.122656
H	-0.608286	-1.240883	-3.17552
H	-0.99594	-2.085993	-1.66649
H	0.703078	-1.661445	-2.042499
C	-0.532096	-1.149827	0.826965
H	-0.240483	-1.007624	1.866297
H	-1.620596	-1.218051	0.777026
H	-0.079562	-2.079506	0.479945
N	-0.401969	1.317413	0.603134
O	0.063184	2.320718	0.068244
O	-1.155271	1.320378	1.577109
Br	3.43176	0.0	0.0
