19

C	-0.390546	0.001601	-1.469329
C	0.0	0.0	0.0
F	0.202148	-1.095113	-2.035482
H	1.092604	0.0	0.0
N	-1.892442	-0.244435	-1.579527
O	-2.591691	0.67001	-1.149329
O	-2.286515	-1.332642	-1.984266
C	-0.066654	1.214138	-2.304729
H	-0.325658	0.994277	-3.344853
H	-0.618507	2.08731	-1.967518
H	1.001897	1.413436	-2.232034
C	-0.560788	-1.17985	0.756285
H	-0.285187	-2.10041	0.237565
H	-1.646819	-1.130804	0.855863
H	-0.129803	-1.209582	1.759871
N	-0.393351	1.292571	0.628954
O	0.322846	2.263183	0.363211
O	-1.294836	1.298384	1.47568
Br	2.751777	0.0	0.0
