14

C	-0.539955	0.039193	-1.433075
C	0.0	0.0	0.0
F	-0.03147	-1.044251	-2.13389
H	1.093266	0.0	0.0
H	-0.317952	0.906202	0.526502
C	-2.056228	-0.038434	-1.517915
H	-2.366321	-0.019186	-2.563889
H	-2.515631	0.801401	-0.993185
H	-2.389749	-0.97272	-1.063144
C	-0.074985	1.276548	-2.092873
N	0.224008	2.2963	-2.592284
C	-0.524846	-1.162121	0.706107
N	-1.002955	-2.084537	1.25325
Cl	3.308953	0.0	0.0
