14

C	-0.54971	0.021357	-1.426012
C	0.0	0.0	0.0
F	-0.054158	-1.106068	-2.069765
H	1.093046	0.0	0.0
H	-0.321513	-0.943549	0.454234
C	-2.067707	-0.051279	-1.486241
H	-2.391317	-0.112555	-2.526832
H	-2.39629	-0.948821	-0.957448
H	-2.516614	0.82679	-1.020014
C	-0.091757	1.210587	-2.171263
N	0.173471	2.167407	-2.796901
C	-0.531465	1.111466	0.777081
N	-0.995093	2.010272	1.374368
Cl	3.311676	0.0	0.0
