14

C	-0.447959	0.103771	-1.452788
C	0.0	0.0	0.0
F	-1.81323	0.427196	-1.495401
H	1.093502	0.0	0.0
H	-0.316171	0.924215	0.494929
C	0.335392	1.190819	-2.162681
H	0.013815	1.268364	-3.202628
H	0.15014	2.141456	-1.656906
H	1.403107	0.966644	-2.103217
C	-0.308262	-1.183657	-2.158398
N	-0.202957	-2.211223	-2.716528
C	-0.576322	-1.136376	0.703875
N	-1.06417	-2.040726	1.2717
Cl	3.317337	0.0	0.0
