14

C	-0.542774	0.042391	-1.428689
C	0.0	0.0	0.0
F	-0.035069	-1.037469	-2.135592
H	1.09327	0.0	0.0
H	-0.318522	0.903053	0.531102
C	-2.060004	-0.037552	-1.510524
H	-2.39164	-0.973516	-1.058776
H	-2.371926	-0.014375	-2.556098
H	-2.518263	0.800595	-0.981648
C	-0.086974	1.283733	-2.087249
N	0.249236	2.298228	-2.572473
C	-0.517084	-1.16795	0.704332
N	-0.981029	-2.09303	1.25866
Cl	3.307706	0.0	0.0
