14

C	-0.450416	0.051936	-1.456161
C	0.0	0.0	0.0
F	-1.850834	0.114473	-1.516159
H	1.093654	0.0	0.0
H	-0.351443	-0.921212	0.471341
C	0.122415	1.249627	-2.184483
H	-0.196116	1.239704	-3.228587
H	-0.245767	2.159203	-1.706083
H	1.212495	1.222937	-2.117948
C	-0.070849	-1.204943	-2.130196
N	0.184842	-2.217626	-2.666357
C	-0.517095	1.148088	0.734106
N	-0.948534	2.072374	1.315019
Cl	3.308809	0.0	0.0
