14

C	-0.434142	-0.018203	-1.466434
C	0.0	0.0	0.0
F	-0.21018	1.241219	-2.011614
H	1.094672	0.0	0.0
H	-0.317477	-0.931751	0.479112
C	0.38506	-1.028373	-2.247188
H	1.441598	-0.798838	-2.088973
H	0.185803	-2.040355	-1.888053
H	0.132891	-0.966671	-3.307462
C	-1.883698	-0.285853	-1.597996
N	-3.024126	-0.545359	-1.70463
C	-0.561225	1.129427	0.727418
N	-1.039221	2.026244	1.314635
Cl	3.344249	0.0	0.0
