14

C	-0.446511	0.095817	-1.453363
C	0.0	0.0	0.0
F	-1.812963	0.413439	-1.499532
H	1.093579	0.0	0.0
H	-0.316212	0.926533	0.490377
C	0.333218	1.182384	-2.167021
H	1.401822	0.963634	-2.10422
H	0.013276	1.253498	-3.208138
H	0.142067	2.134505	-1.666779
C	-0.302651	-1.194559	-2.153072
N	-0.214768	-2.225872	-2.706986
C	-0.575262	-1.133152	0.709684
N	-1.059386	-2.034467	1.285479
Cl	3.317326	0.0	0.0
