14

C	-0.478177	0.009595	-1.443762
C	0.0	0.0	0.0
F	-0.153119	-1.221411	-1.997255
H	1.101373	0.0	0.0
H	0.040057	0.783701	-2.007495
C	-1.936155	0.188021	-1.555232
N	-3.094304	0.330406	-1.679238
N	-0.60361	-1.099742	0.718892
H	-0.210154	-1.099431	1.652531
H	-0.274012	-1.944489	0.264013
N	-0.402019	1.281096	0.649597
O	-0.527666	1.276143	1.86907
O	-0.515286	2.271618	-0.075124
Br	3.416917	0.0	0.0
