14

C	-0.633764	-0.0082	-1.385826
C	0.0	0.0	0.0
F	-0.38513	1.162556	-2.070436
H	1.090038	0.0	0.0
H	-1.720531	-0.093352	-1.262881
C	-0.168643	-1.15528	-2.176424
N	0.142211	-2.056355	-2.860793
N	-0.468832	-1.148951	0.703081
H	0.209037	-1.41802	1.402717
H	-1.368084	-0.968664	1.129516
N	-0.476905	1.305018	0.623647
O	-1.604622	1.283252	1.131556
O	0.242137	2.289703	0.541905
Br	3.44698	0.0	0.0
