14

C	-0.498363	-0.017322	-1.443823
C	0.0	0.0	0.0
F	-0.098877	-1.184628	-2.049841
H	1.091794	0.0	0.0
H	-0.074404	0.822828	-1.992672
C	-1.973363	0.047769	-1.478069
N	-3.145813	0.105846	-1.477
N	-0.49498	-1.090694	0.74798
H	-1.4139	-0.90779	1.128265
H	0.146124	-1.309599	1.497405
N	-0.396779	1.365971	0.566526
O	-0.957666	1.399611	1.658596
O	-0.121192	2.349502	-0.116635
Br	3.411571	0.0	0.0
