17

C	-0.57685	0.004532	-1.422837
C	0.0	0.0	0.0
Br	0.472499	1.067955	-2.685853
H	1.087113	0.0	0.0
N	-0.395205	-1.468268	-1.921134
O	0.735446	-1.906793	-2.037724
O	-1.437011	-2.099816	-2.119202
N	-1.916439	0.416095	-1.478817
H	-2.375028	0.126696	-2.33048
H	-2.439088	0.130591	-0.661327
N	-0.391028	-1.130072	0.783617
H	0.383509	-1.779068	0.792479
H	-1.25598	-1.585104	0.529593
N	-0.526162	1.256885	0.637551
O	0.085487	2.299079	0.421154
O	-1.558786	1.177273	1.311734
F	2.527741	0.0	0.0
