17

C	-0.644522	0.009891	-1.394825
C	0.0	0.0	0.0
Br	0.328312	1.162843	-2.627683
H	1.089115	0.0	0.0
N	-0.44535	-1.431358	-1.904059
O	-1.455358	-2.117399	-2.023832
O	0.699737	-1.799503	-2.104639
N	-2.042685	0.304157	-1.513071
H	-2.192759	1.230967	-1.13309
H	-2.563532	-0.38413	-0.983754
N	-0.357044	-1.208608	0.696492
H	-1.092921	-1.053808	1.372597
H	0.472276	-1.51326	1.190773
N	-0.40783	1.203333	0.766648
O	-0.39501	1.120375	1.997365
O	-0.698662	2.240717	0.15881
F	2.486171	0.0	0.0
