17

C	-0.56709	-0.023213	-1.418628
C	0.0	0.0	0.0
Br	0.472149	1.153993	-2.675587
H	1.089278	0.0	0.0
N	-0.269445	-1.41192	-2.004367
O	-1.143655	-1.904883	-2.719006
O	0.817507	-1.910675	-1.76761
N	-1.961085	0.161872	-1.471985
H	-2.315788	-0.04284	-2.396931
H	-2.154949	1.119386	-1.205409
N	-0.483094	-1.102977	0.762595
H	-1.381467	-1.444798	0.449755
H	0.216412	-1.827005	0.799843
N	-0.397034	1.274466	0.691947
O	-0.867178	2.21357	0.029199
O	-0.16349	1.344249	1.890884
F	2.512522	0.0	0.0
