17

C	0.0	0.0	0.0
C	-0.40002	0.018804	-1.501592
F	1.358292	0.0	0.0
H	0.400821	-0.564243	-1.975407
N	-0.321809	1.321959	0.768835
O	-0.065154	1.271266	1.970791
O	-0.771889	2.291357	0.174984
N	-0.53285	-1.103951	0.662626
H	-0.319018	-1.018557	1.651212
H	-1.55292	-1.082159	0.536236
N	-0.077055	1.428235	-2.13761
O	1.075637	1.840578	-2.03399
O	-0.959871	1.9627	-2.795537
N	-1.666983	-0.467148	-1.77022
H	-2.434653	-0.168605	-1.076746
H	-1.937305	-0.324206	-2.73316
H	-3.329685	0.0	0.0
