17

C	0.0	0.0	0.0
C	-0.513882	-0.013906	-1.444899
F	1.353488	0.0	0.0
H	-1.604048	0.136313	-1.379608
N	-0.535915	1.276667	0.573591
O	-0.168532	2.360887	0.04324
O	-1.718032	1.063692	1.09142
N	-0.460148	-1.140134	0.703257
H	-0.257832	-0.984373	1.687317
H	-1.483755	-1.112584	0.614256
N	-0.334751	-1.397839	-1.995376
O	0.779078	-1.673364	-2.438352
O	-1.293318	-2.165676	-1.96113
N	0.112652	0.916049	-2.339213
H	1.103654	0.938073	-2.125771
H	-0.244264	1.831494	-2.078203
H	-2.863674	0.0	0.0
