14

C	-0.451383	-0.057765	-1.475748
C	0.0	0.0	0.0
Cl	0.0005	1.474769	-2.283046
H	1.097134	0.0	0.0
H	-1.542935	-0.110481	-1.528761
C	0.208377	-1.226708	-2.18496
H	-0.049481	-1.217678	-3.245285
H	1.29258	-1.155058	-2.068951
H	-0.135601	-2.169236	-1.749035
C	-0.463763	-1.207305	0.686015
N	-0.84201	-2.19484	1.197807
C	-0.515043	1.176797	0.696729
N	-0.955205	2.110217	1.257228
Cl	3.227111	0.0	0.0
