14

C	-0.340184	-0.00211	-1.495988
C	0.0	0.0	0.0
Cl	-2.119103	-0.051244	-1.763497
H	1.098404	0.0	0.0
H	0.049903	-0.935569	-1.90584
C	0.278554	1.189936	-2.19505
H	0.110455	1.126581	-3.271754
H	-0.157645	2.120981	-1.827081
H	1.352564	1.188065	-1.988461
C	-0.484521	-1.198518	0.678573
N	-0.85951	-2.173433	1.2151
C	-0.485688	1.205466	0.666535
N	-0.861335	2.186789	1.190998
Cl	3.198791	0.0	0.0
