14

C	-0.460979	-0.056499	-1.472712
C	0.0	0.0	0.0
Cl	-0.005453	1.475043	-2.276682
H	1.097144	0.0	0.0
H	-1.552366	-0.103516	-1.517893
C	0.187147	-1.22843	-2.185607
H	-0.15848	-2.168482	-1.747025
H	1.271978	-1.161946	-2.076524
H	-0.07816	-1.219899	-3.244402
C	-0.463981	-1.2072	0.686215
N	-0.845977	-2.194164	1.196361
C	-0.510951	1.177043	0.700019
N	-0.94665	2.11161	1.262095
Cl	3.213067	0.0	0.0
