14

C	-0.472682	0.042169	-1.467124
C	0.0	0.0	0.0
Cl	0.10931	-1.426971	-2.297815
H	1.096078	0.0	0.0
H	0.0496	0.879094	-1.935965
C	-1.97591	0.159246	-1.627833
H	-2.241645	0.189679	-2.686156
H	-2.473468	-0.699439	-1.172129
H	-2.335467	1.073797	-1.149399
C	-0.520607	-1.171291	0.702064
N	-0.971966	-2.105705	1.252082
C	-0.444499	1.219545	0.677578
N	-0.79003	2.217552	1.19175
Cl	3.188969	0.0	0.0
