14

C	-0.470492	0.058496	-1.467479
C	0.0	0.0	0.0
Cl	0.105755	-1.40492	-2.312016
H	1.096121	0.0	0.0
H	0.056155	0.89769	-1.927103
C	-1.973094	0.18412	-1.62858
H	-2.23692	0.22377	-2.687076
H	-2.475922	-0.67528	-1.179732
H	-2.328633	1.097117	-1.144514
C	-0.521822	-1.1785	0.689102
N	-0.972647	-2.118837	1.22936
C	-0.443909	1.212916	0.690042
N	-0.793521	2.209342	1.20494
Cl	3.18887	0.0	0.0
