14

C	-0.451737	-0.073374	-1.475874
C	0.0	0.0	0.0
Cl	-0.065691	1.476562	-2.280358
H	1.097152	0.0	0.0
H	-1.539105	-0.1727	-1.526433
C	0.256886	-1.212549	-2.184454
H	-0.009238	-1.223512	-3.242833
H	1.336329	-1.088132	-2.075606
H	-0.035934	-2.167646	-1.739995
C	-0.45755	-1.209108	0.688203
N	-0.829371	-2.199761	1.198671
C	-0.522191	1.175265	0.693519
N	-0.969749	2.106536	1.251471
Cl	3.213473	0.0	0.0
