14

C	-0.336442	-0.010405	-1.497553
C	0.0	0.0	0.0
Cl	-2.115584	-0.055486	-1.775621
H	1.099179	0.0	0.0
H	0.052376	-0.947621	-1.899568
C	0.288753	1.174983	-2.201133
H	0.137149	1.098155	-3.279879
H	1.360422	1.177445	-1.978527
H	-0.155829	2.109029	-1.85028
C	-0.48268	-1.198225	0.680566
N	-0.868194	-2.173766	1.207094
C	-0.49257	1.205196	0.659426
N	-0.895465	2.182938	1.170696
Cl	3.194215	0.0	0.0
