14

C	-0.485982	-0.000937	-1.463036
C	0.0	0.0	0.0
Cl	0.128368	-1.468987	-2.267937
H	1.101414	0.0	0.0
H	0.007541	0.840844	-1.953716
C	-1.992598	0.073061	-1.60939
H	-2.371958	0.986055	-1.143886
H	-2.461802	-0.7912	-1.132947
H	-2.27093	0.077609	-2.664688
C	-0.500208	-1.160717	0.734544
N	-0.913306	-2.096543	1.310945
C	-0.457155	1.229585	0.650617
N	-0.862134	2.226423	1.123627
Cl	3.199744	0.0	0.0
