15

C	0.0	0.0	0.0
C	-0.632374	0.104596	-1.37387
Cl	1.77866	0.0	0.0
H	-1.749087	0.105927	-1.090571
H	-0.286298	0.919416	0.513758
N	-0.510394	-1.212543	0.58502
H	-1.535569	-1.042989	0.553667
H	-0.217824	-1.238377	1.555766
N	-0.298491	-1.05236	-2.240959
O	0.831636	-1.094638	-2.726396
O	-1.172606	-1.901451	-2.398554
N	-0.301832	1.35034	-2.0991
O	-0.03004	2.340965	-1.422789
O	-0.422174	1.344092	-3.322521
F	-2.813605	0.0	0.0
