15

C	0.0	0.0	0.0
C	-0.256834	0.224318	-1.498204
Cl	1.824226	0.0	0.0
H	0.351754	-0.477968	-2.061548
H	-0.307852	0.877939	0.565133
N	-0.510853	-1.262948	0.400267
H	-1.552426	-1.015403	0.342491
H	-0.269237	-1.388831	1.378739
N	0.202737	1.587746	-1.917143
O	0.691094	1.667259	-3.043857
O	0.043599	2.523832	-1.142524
N	-1.640213	0.068791	-2.099613
O	-2.23617	1.082531	-2.429516
O	-1.940173	-1.082115	-2.373586
F	-2.619027	0.0	0.0
