15

C	0.0	0.0	0.0
C	-0.621693	0.044926	-1.384523
Cl	1.783361	0.0	0.0
H	-1.734311	0.097711	-1.116295
H	-0.283356	0.943326	0.470454
N	-0.520951	-1.184296	0.627697
H	-1.546074	-1.004298	0.57819
H	-0.237107	-1.177564	1.6009
N	-0.338549	-1.178676	-2.17819
O	-1.286501	-1.927874	-2.399678
O	0.817981	-1.365776	-2.551488
N	-0.225165	1.228042	-2.17843
O	-0.028198	2.270241	-1.556866
O	-0.210155	1.123292	-3.403253
F	-2.808791	0.0	0.0
