15

C	0.0	0.0	0.0
C	-0.630973	-0.038681	-1.378903
Cl	1.773417	0.0	0.0
H	-1.74651	0.005173	-1.101443
H	-0.288246	0.967911	0.414272
N	-0.515528	-1.14441	0.70463
H	-1.540606	-0.97556	0.653837
H	-0.223467	-1.075185	1.673248
N	-0.314126	-1.288912	-2.113583
O	-1.214646	-2.119511	-2.212458
O	0.826146	-1.417137	-2.558601
N	-0.279663	1.114399	-2.23648
O	-0.367258	0.967652	-3.454826
O	-0.023173	2.175967	-1.670491
F	-2.814323	0.0	0.0
