15

C	0.0	0.0	0.0
C	-0.237126	0.010788	-1.532633
Cl	1.78986	0.0	0.0
H	0.340138	-0.791201	-1.988016
H	-0.352221	0.940141	0.413053
N	-0.5611	-1.085519	0.703688
H	-0.389133	-1.946928	0.194638
H	-1.601928	-0.816953	0.605742
N	0.271483	1.269648	-2.165435
O	0.134976	2.324183	-1.554233
O	0.784458	1.145063	-3.278988
N	-1.627949	-0.18811	-2.085539
O	-1.947246	-1.363528	-2.20626
O	-2.216765	0.784577	-2.527613
F	-2.679341	0.0	0.0
