15

C	0.0	0.0	0.0
C	-0.314366	-0.137905	-1.516159
Cl	1.839969	0.0	0.0
H	0.442559	0.391988	-2.090054
H	-0.296807	1.020439	0.238766
N	-0.534009	-0.880902	0.948285
H	-0.378456	-1.837019	0.654449
H	-1.573785	-0.65115	0.803161
N	-1.590353	0.513322	-1.99407
O	-1.614934	1.721304	-1.811949
O	-2.342283	-0.138648	-2.699546
N	-0.262199	-1.528153	-2.04132
O	0.404992	-1.690341	-3.067662
O	-0.877128	-2.411758	-1.45188
F	-2.652816	0.0	0.0
