12

C	-0.417435	0.009902	-1.449557
C	0.0	0.0	0.0
F	-1.802562	-0.002348	-1.56904
H	1.094385	0.0	0.0
H	-0.033917	0.917502	-1.918958
H	-0.015071	-0.872644	-1.94353
N	-0.426278	-1.289375	0.649595
O	-0.912658	-1.239133	1.775946
O	-0.213347	-2.311319	0.005078
C	-0.529044	1.135332	0.740885
N	-0.917804	2.097975	1.288704
Br	3.342812	0.0	0.0
