12

C	-0.395813	-0.018453	-1.455044
C	0.0	0.0	0.0
F	-1.777621	-0.014577	-1.600341
H	1.094411	0.0	0.0
H	0.010858	0.871109	-1.938554
H	0.001848	-0.917947	-1.920304
N	-0.428745	-1.270826	0.677772
O	-0.250774	-2.307878	0.046042
O	-0.881135	-1.19741	1.817163
C	-0.532603	1.15226	0.709515
N	-0.929915	2.122472	1.237103
Br	3.331203	0.0	0.0
