14

C	-0.520291	0.020396	-1.415655
C	0.0	0.0	0.0
Cl	-0.073978	-1.524441	-2.174094
H	1.089702	0.0	0.0
H	-0.356497	-0.886299	0.52017
N	-2.065625	0.055146	-1.431276
O	-2.621883	-0.495048	-0.491223
O	-2.602757	0.570619	-2.400724
C	-0.03248	1.117083	-2.24148
N	0.366261	1.986156	-2.924076
N	-0.495879	1.168529	0.763899
O	-1.045117	2.078131	0.137911
O	-0.319782	1.143159	1.974132
Cl	3.197033	0.0	0.0
