14

C	-0.497044	0.005294	-1.43031
C	0.0	0.0	0.0
Cl	0.231649	-1.246	-2.41794
H	1.088508	0.0	0.0
H	-0.352589	0.886809	0.524261
N	-2.055321	-0.103247	-1.459154
O	-2.586344	-0.811712	-2.291476
O	-2.608923	0.611494	-0.634735
C	-0.218519	1.311868	-2.023835
N	-0.027255	2.363786	-2.509352
N	-0.508519	-1.162591	0.773083
O	-0.205893	-1.181629	1.959478
O	-1.191175	-2.00727	0.195887
Cl	3.207199	0.0	0.0
