14

C	-0.510683	-0.008492	-1.420304
C	0.0	0.0	0.0
Cl	-0.122807	-1.595434	-2.122462
H	1.086083	0.0	0.0
H	-0.36714	-0.866499	0.544469
N	-2.052609	0.089349	-1.447391
O	-2.563682	0.589401	-2.438446
O	-2.634736	-0.400329	-0.489933
C	0.025638	1.036143	-2.282181
N	0.452059	1.835929	-3.029572
N	-0.482591	1.198219	0.725078
O	-0.377398	1.179803	1.944827
O	-0.942749	2.128194	0.058065
Cl	3.197072	0.0	0.0
