14

C	-0.613246	0.003092	-1.382942
C	0.0	0.0	0.0
Cl	-2.372509	-0.232488	-1.316063
H	1.08727	0.0	0.0
H	-0.313582	-0.910709	0.512822
N	-0.294757	1.310103	-2.16752
O	0.846866	1.701151	-2.018312
O	-1.160575	1.764298	-2.891359
C	-0.038016	-1.07717	-2.179477
N	0.352974	-1.977223	-2.827308
N	-0.497048	1.123211	0.827629
O	-0.938573	2.120455	0.255744
O	-0.406622	0.979855	2.042739
Cl	3.219674	0.0	0.0
