16

C	-0.446958	0.057264	-1.459904
C	0.0	0.0	0.0
Br	0.462586	-1.205006	-2.589192
H	1.093975	0.0	0.0
H	-0.274016	1.054964	-1.853827
N	-1.942164	-0.158963	-1.525423
O	-2.620556	0.845211	-1.297238
O	-2.391253	-1.285853	-1.700691
C	-0.478248	-1.258674	0.716057
H	-0.005714	-1.293594	1.700331
H	-1.566179	-1.259177	0.852635
H	-0.197324	-2.164994	0.175776
N	-0.40504	1.253493	0.632595
H	0.227136	1.435038	1.404365
H	-1.352382	1.191817	0.992056
Cl	3.458414	0.0	0.0
