16

C	-0.555096	0.025064	-1.421961
C	0.0	0.0	0.0
Br	0.285332	1.348817	-2.541046
H	1.093614	0.0	0.0
H	-1.620977	0.243886	-1.415355
N	-0.438097	-1.324416	-2.071131
O	0.673539	-1.741575	-2.362731
O	-1.499026	-1.945718	-2.194967
C	-0.470789	-1.252348	0.736248
H	-0.103774	-1.199352	1.763181
H	-0.061972	-2.161201	0.291201
H	-1.564659	-1.328624	0.751424
N	-0.457352	1.239061	0.633321
H	0.318157	1.645729	1.141225
H	-1.204666	1.044099	1.289425
Cl	3.480375	0.0	0.0
