16

C	-0.587553	0.016996	-1.410251
C	0.0	0.0	0.0
Br	0.272132	1.294241	-2.568032
H	1.093636	0.0	0.0
H	-1.641647	0.282495	-1.369117
N	-0.552611	-1.34744	-2.039521
O	-1.622107	-1.963181	-2.001251
O	0.505713	-1.783672	-2.469229
C	-0.470155	-1.228541	0.771379
H	-0.100931	-2.152603	0.323826
H	-0.057637	-1.169869	1.781118
H	-1.563636	-1.279659	0.830204
N	-0.454459	1.251091	0.625508
H	-1.038476	1.046229	1.426947
H	0.362125	1.751903	0.953926
Cl	3.422862	0.0	0.0
