16

C	-0.547682	0.0423	-1.430152
C	0.0	0.0	0.0
Br	0.241571	1.440244	-2.506963
H	1.094123	0.0	0.0
H	-1.624563	0.214035	-1.429625
N	-0.389423	-1.280501	-2.12752
O	-1.419046	-1.960462	-2.187509
O	0.718638	-1.619225	-2.515665
C	-0.500966	-1.249559	0.713814
H	-0.14212	-1.196288	1.74172
H	-1.595966	-1.30438	0.723552
H	-0.106834	-2.160972	0.260327
N	-0.408062	1.191875	0.736472
H	-1.359323	1.462702	0.511755
H	0.210821	1.956712	0.497741
Cl	3.444805	0.0	0.0
