16

C	-0.370141	-0.027779	-1.461536
C	0.0	0.0	0.0
Br	-2.292076	0.062887	-1.81414
H	1.103967	0.0	0.0
H	-0.012605	-0.940859	-1.931624
N	0.259167	1.077129	-2.270027
O	0.203626	2.222421	-1.832122
O	0.770188	0.742912	-3.335528
C	-0.442704	-1.296348	0.663677
H	-0.041707	-2.165636	0.136816
H	-1.532441	-1.357568	0.714193
H	-0.042088	-1.323242	1.680402
N	-0.582968	1.131134	0.722415
H	-0.255543	1.984726	0.285646
H	-0.168172	1.114827	1.649031
Cl	3.403823	0.0	0.0
