16

C	-0.347984	-0.037949	-1.486528
C	0.0	0.0	0.0
Br	-2.275636	0.010071	-1.840918
H	1.0987	0.0	0.0
H	0.028255	-0.94027	-1.962872
N	0.257688	1.091745	-2.270644
O	0.0324	2.23965	-1.899697
O	0.937814	0.771631	-3.241333
C	-0.46365	-1.28978	0.662388
H	-1.553827	-1.322693	0.754509
H	-0.125828	-2.170768	0.10958
H	-0.028096	-1.321614	1.661354
N	-0.466086	1.144631	0.756727
H	0.094658	1.951058	0.515258
H	-1.427034	1.357324	0.514359
Cl	3.375717	0.0	0.0
