16

C	-0.446085	0.054926	-1.460243
C	0.0	0.0	0.0
Br	0.4624	-1.211395	-2.585781
H	1.093964	0.0	0.0
H	-0.270779	1.051409	-1.856318
N	-1.941779	-0.158385	-1.526715
O	-2.618461	0.847717	-1.302086
O	-2.393006	-1.284773	-1.699638
C	-0.478519	-1.25727	0.718325
H	-0.006566	-1.290132	1.702979
H	-0.197127	-2.164702	0.180141
H	-1.566542	-1.257598	0.854282
N	-0.405219	1.254784	0.629951
H	-1.353961	1.194863	0.986076
H	0.224212	1.435931	1.404011
Cl	3.458896	0.0	0.0
