16

C	-0.404154	0.013174	-1.490647
C	0.0	0.0	0.0
Br	0.481522	-1.326355	-2.550265
H	1.09478	0.0	0.0
H	-0.174514	0.980814	-1.933726
N	-1.899509	-0.136149	-1.602629
O	-2.402768	-1.247852	-1.722762
O	-2.533577	0.915028	-1.454103
C	-0.50767	-1.233799	0.7264
H	-0.044959	-1.24735	1.713226
H	-1.59542	-1.209258	0.854653
H	-0.238605	-2.150752	0.200016
N	-0.425411	1.204861	0.697269
H	0.175446	1.978299	0.431257
H	-1.38547	1.445711	0.47029
Cl	3.427143	0.0	0.0
