13

C	0.0	0.0	0.0
C	-0.457225	0.374433	-1.449279
Cl	1.787526	0.0	0.0
H	0.461515	0.496837	-2.029942
H	-0.344371	-0.993386	0.281037
C	-0.411782	0.966869	1.0172
N	-0.54075	1.72959	1.90101
N	-1.142009	1.647013	-1.497274
H	-1.270754	1.905322	-2.469063
H	-2.05863	1.49895	-1.066478
C	-1.12298	-0.787543	-2.083212
N	-1.480525	-1.697613	-2.73582
Cl	-3.23741	0.0	0.0
