13

C	0.0	0.0	0.0
C	-0.449904	0.019546	-1.513047
Cl	1.778937	0.0	0.0
H	0.29199	0.6539	-2.01124
H	-0.362647	-0.886711	0.520606
C	-0.45475	1.216568	0.666088
N	-0.704208	2.253506	1.158658
N	-1.751461	0.509905	-1.840108
H	-1.803138	1.502837	-1.644943
H	-2.518828	0.080857	-1.304902
C	-0.254703	-1.343789	-2.035325
N	-0.070323	-2.427175	-2.447289
Cl	-4.226061	0.0	0.0
