13

C	0.0	0.0	0.0
C	-0.456926	0.09308	-1.496364
Cl	1.776927	0.0	0.0
H	0.462247	0.121496	-2.088562
H	-0.354971	-0.917926	0.46496
C	-0.417172	1.146563	0.80603
N	-0.586535	2.06828	1.513214
N	-1.165223	1.322165	-1.778624
H	-1.321579	1.378535	-2.779037
H	-2.075541	1.242947	-1.315166
C	-1.101699	-1.17811	-1.902827
N	-1.44435	-2.202428	-2.366598
Cl	-3.268139	0.0	0.0
