13

C	0.0	0.0	0.0
C	-0.437606	-0.337795	-1.491304
Cl	1.780997	0.0	0.0
H	0.409164	-0.009102	-2.101915
H	-0.3674	-0.730242	0.719729
C	-0.443363	1.342746	0.363281
N	-0.711293	2.44692	0.65904
N	-1.624096	0.253196	-2.029386
H	-1.498594	1.257558	-2.081351
H	-2.446019	0.077501	-1.431648
C	-0.480847	-1.803164	-1.597703
N	-0.472636	-2.973289	-1.674031
Cl	-3.953331	0.0	0.0
