13

C	0.0	0.0	0.0
C	-0.454836	-0.107745	-1.505635
Cl	1.779475	0.0	0.0
H	0.296168	0.464206	-2.061847
H	-0.363259	-0.836572	0.597994
C	-0.454745	1.266443	0.563348
N	-0.753051	2.311059	1.008843
N	-1.749252	0.373023	-1.877254
H	-1.780182	1.380336	-1.776248
H	-2.519385	0.007914	-1.298213
C	-0.279023	-1.515142	-1.90839
N	-0.100849	-2.631935	-2.223127
Cl	-4.20472	0.0	0.0
