13

C	0.0	0.0	0.0
C	-0.452101	-0.391012	-1.455731
Cl	1.780778	0.0	0.0
H	0.266657	0.114086	-2.111397
H	-0.361412	-0.711542	0.743258
C	-0.454208	1.350129	0.314118
N	-0.745987	2.46604	0.535745
N	-1.770095	-0.045966	-1.889702
H	-2.523083	-0.320348	-1.244776
H	-1.849147	0.95914	-1.985599
C	-0.211389	-1.836498	-1.608769
N	0.006123	-2.986598	-1.700463
Cl	-4.256369	0.0	0.0
