13

C	0.0	0.0	0.0
C	-0.421746	0.238113	-1.526685
Cl	1.775576	0.0	0.0
H	0.524278	0.428325	-2.042554
H	-0.377466	-0.941066	0.394166
C	-0.423401	1.120726	0.833544
N	-0.603154	2.08464	1.480579
N	-1.299276	1.327158	-1.864798
H	-2.182823	1.171004	-1.370205
H	-0.890526	2.194766	-1.535839
C	-0.901425	-1.03863	-2.073056
N	-1.140812	-2.083621	-2.551274
Cl	-3.29734	0.0	0.0
