15
Coordinates from ORCA-job run
  C   0.50763676904628     -0.66405200606351     -0.25304729635310
  C   -0.49580209418381      0.47234595002601     -0.02920814226021
  F   0.24409421489852     -1.18372039278662     -1.52140080034719
  H   -0.29580789210789      1.23223249104266     -0.79433285310548
  H   0.31017727331456     -1.46855386051195      0.46406810378366
  C   1.95319555494354     -0.23012601041079     -0.20233803138252
  H   2.13258100102638      0.56496254514958     -0.92956177042894
  H   2.59795175247119     -1.07522398154137     -0.44837380027096
  H   2.21743240833203      0.13266687583277      0.79241533459287
  C   -0.25595357686492      1.07585049307089      1.28226178003355
  N   -0.06768067358311      1.53229130136178      2.34736183367149
  C   -1.94482301149207     -0.00658542930915     -0.15333063974523
  H   -2.63989904413433      0.82301317664932     -0.01388677090805
  H   -2.16125825358691     -0.76773735093470      0.59988337510727
  H   -2.10184442807946     -0.43636380157491     -1.14251032238715
