15
Coordinates from ORCA-job run
  C   0.96359169802903      0.22116888654466     -0.11151254382130
  C   -0.51990586419102      0.50480123431758     -0.37620879602140
  F   1.25942083593824      0.64802176778705      1.18136057950566
  H   -0.73595951319412      0.18382633256687     -1.40281549274392
  H   1.56846934403081      0.83445329016274     -0.78727913312893
  C   1.34281891844754     -1.23744680542570     -0.23506525659490
  H   1.08491931042103     -1.62504473371073     -1.22367839312882
  H   2.41879465801414     -1.34705356792391     -0.09133745867259
  H   0.83858122484885     -1.83466712208929      0.52531704621426
  C   -0.74964048717188      1.95195265887160     -0.31787924936508
  N   -0.93881069579286      3.10922519556294     -0.26550466926474
  C   -1.45712713361469     -0.21916539161571      0.59608398278946
  H   -2.49053447469297      0.08518520499114      0.42486434963585
  H   -1.39523903663661     -1.29948354002918      0.46056948435767
  H   -1.18937878443548      0.02522658998993      1.62408555023877
