15
Coordinates from ORCA-job run
  C   0.50010846166464     -0.71320045430214     -0.06972018714075
  C   -0.50668706074895      0.43987978440795     -0.13465859675444
  F   0.14261679073680     -1.61185947059681     -1.07577002690171
  H   -0.38809092192740      0.91674299903376     -1.11545561969837
  H   0.38320950340842     -1.24296804008027      0.88228767770393
  C   1.93421459859599     -0.29317035374143     -0.28766148607214
  H   2.27207382939333      0.37116408257557      0.50952281790394
  H   2.57656012267345     -1.17496057232056     -0.30281078113497
  H   2.03265430602473      0.22267680727545     -1.24551974012360
  C   -0.17286799817338      1.43095990704823      0.88921596618735
  N   0.09033412869486      2.20358490984007      1.73323362044226
  C   -1.95003319901981     -0.04535654265262      0.02528867567609
  H   -2.64936486842616      0.78859951922373     -0.05046203854308
  H   -2.17863397256411     -0.76981106042558     -0.75578672149162
  H   -2.08709372033241     -0.52228151528536      0.99829643994711
