15
Coordinates from ORCA-job run
  C   0.58446668942351     -0.28421837707226     -0.83877300694221
  C   -0.62159230932721      0.54143561715173     -0.38408399487748
  F   1.30048495009108      0.49172338389932     -1.74795602471372
  H   -1.12698475681375      0.87877300300018     -1.29602921630074
  H   0.20809830675984     -1.15098959021546     -1.39390739038693
  C   1.52004687648986     -0.71430299856198      0.26579032542382
  H   2.37260376729948     -1.23765608523638     -0.16980927649731
  H   1.02460813914350     -1.39081973680605      0.96465220319192
  H   1.89044307165897      0.15541806085819      0.81160971351638
  C   -0.17670539727864      1.73611410999593      0.33811376590777
  N   0.17679550685903      2.67302820447611      0.95056496459864
  C   -1.60079683577031     -0.27239148503707      0.46794001556616
  H   -1.15476445537955     -0.55364906768951      1.42256400821281
  H   -2.49961279007209      0.31010464597877      0.67450266553356
  H   -1.89609076308369     -1.18056968474152     -0.06317875223266
