14

C	0.0	0.0	0.0
C	-0.433798	-0.216171	-1.438836
Cl	1.767405	0.0	0.0
H	-1.482068	-0.511136	-1.337183
H	-0.399402	0.899578	0.447449
H	0.192878	-0.99479	-1.881555
N	-0.431265	-1.118744	0.899328
O	-0.468069	-2.246676	0.419714
O	-0.59734	-0.841905	2.081395
C	-0.340794	1.087223	-2.21877
H	0.666884	1.517199	-2.215731
H	-0.632472	0.930536	-3.26186
H	-1.042211	1.799631	-1.778923
F	-2.522835	0.0	0.0
