14

C	0.0	0.0	0.0
C	-0.419022	-0.174477	-1.447961
Cl	1.767281	0.0	0.0
H	0.216369	-0.934034	-1.915481
H	-0.388912	0.89361	0.465857
H	-1.464039	-0.482422	-1.387497
N	-0.478585	-1.125383	0.872728
O	-0.521414	-2.257472	0.393811
O	-0.665742	-0.83523	2.046041
C	-0.328277	1.153117	-2.189327
H	-0.615702	1.02007	-3.234561
H	-1.042635	1.844922	-1.734388
H	0.671973	1.597914	-2.165525
F	-2.499025	0.0	0.0
