14

C	0.0	0.0	0.0
C	-0.533813	0.163133	-1.407696
Cl	1.758935	0.0	0.0
H	-1.626923	0.216272	-1.200492
H	-0.362883	0.804823	0.62812
H	-0.159794	1.142758	-1.731312
N	-0.445306	-1.239892	0.730044
O	-0.551902	-1.132358	1.946698
O	-0.573461	-2.280977	0.099688
C	-0.176596	-0.899421	-2.435084
H	-0.480494	-0.542589	-3.424845
H	0.893546	-1.122844	-2.471076
H	-0.716949	-1.819589	-2.225322
F	-2.688059	0.0	0.0
