14

C	-0.622847	-0.106444	-1.391089
C	0.0	0.0	0.0
Cl	-0.1977	1.282598	-2.425545
H	1.09005	0.0	0.0
H	-1.710407	-0.088257	-1.277318
C	-0.244177	-1.357307	-2.038992
N	-0.016275	-2.358607	-2.607886
N	-0.465315	-1.100535	0.782293
H	0.201532	-1.309877	1.512644
H	-1.385163	-0.925985	1.16426
N	-0.497478	1.322076	0.565166
O	0.304407	2.209327	0.817335
O	-1.719979	1.393569	0.744241
Cl	3.294296	0.0	0.0
