14

C	-0.524347	0.00423	-1.438584
C	0.0	0.0	0.0
Cl	0.019329	-1.449433	-2.303628
H	1.091495	0.0	0.0
H	-0.111955	0.862692	-1.963708
C	-1.985117	0.067846	-1.45451
N	-3.157819	0.125624	-1.428489
N	-0.488509	-1.078968	0.770639
H	-1.382546	-0.870906	1.192667
H	0.178035	-1.308167	1.492098
N	-0.385241	1.370377	0.57123
O	-0.159794	2.351423	-0.134039
O	-0.877605	1.407644	1.69778
Cl	3.243843	0.0	0.0
