14

C	-0.497994	0.022311	-1.441534
C	0.0	0.0	0.0
Cl	-0.015019	-1.49468	-2.256334
H	1.101396	0.0	0.0
H	-0.00567	0.832046	-1.976446
C	-1.949096	0.176229	-1.526401
N	-3.110838	0.321311	-1.611423
N	-0.60864	-1.072293	0.757297
H	-0.379184	-0.910971	1.732098
H	-0.132006	-1.926669	0.484473
N	-0.388942	1.303251	0.63558
O	-0.467146	2.290554	-0.094733
O	-0.539322	1.313266	1.853813
Cl	3.267774	0.0	0.0
