12
Coordinates from ORCA-job run
  C   1.10699120534524     -0.32448492071540     -0.20174632251649
  C   -0.22982569516034     -0.60359654009802      0.49878499311953
  H   1.91528621805288     -0.89830096251677      0.26069349329164
  H   -0.14165366961049     -0.32829442908788      1.55386893614058
  H   1.05494926747069     -0.62963842528742     -1.25171183159983
  H   -0.40555914144301     -1.68333547850196      0.46498392766394
  C   1.46071610146915      1.09488159060388     -0.15293875764428
  N   1.71592341615588      2.23885837299966     -0.09614646940158
  C   -1.39416084558208      0.14075654661093     -0.14449647198825
  H   -1.49878301233027     -0.13239842868723     -1.19809452474016
  H   -1.24999824709331      1.22202369997176     -0.08877013126303
  H   -2.33388559727434     -0.09847102529155      0.35757315893790
