16

C	-0.533458	-0.026872	-1.417463
C	0.0	0.0	0.0
F	-0.169396	1.110944	-2.131808
H	1.096508	0.0	0.0
H	-1.633833	-0.039022	-1.410129
C	-0.088434	-1.204833	-2.189146
N	0.24994	-2.126193	-2.832041
C	-0.461917	-1.250182	0.738414
H	-1.556959	-1.331486	0.783664
H	-0.079466	-1.220054	1.761704
H	-0.061127	-2.154942	0.274614
C	-0.472045	1.2707	0.693029
H	-1.566246	1.313714	0.785676
H	-0.129142	2.154069	0.151474
H	-0.038816	1.313519	1.695671
H	2.947793	0.0	0.0
