16

C	-0.404305	0.018782	-1.459595
C	0.0	0.0	0.0
F	-0.123096	-1.1911	-2.087589
H	1.097024	0.0	0.0
H	0.167846	0.793156	-1.982984
C	-1.85011	0.272781	-1.647356
N	-2.997675	0.486833	-1.776631
C	-0.529051	-1.226124	0.722737
H	-0.193323	-2.13865	0.227205
H	-1.625183	-1.236827	0.778934
H	-0.131261	-1.239829	1.741243
C	-0.429571	1.300345	0.66985
H	0.019823	1.347946	1.664945
H	-1.517657	1.387677	0.770945
H	-0.058566	2.168573	0.114717
H	2.934681	0.0	0.0
