16

C	-0.40428	0.001596	-1.459672
C	0.0	0.0	0.0
F	-0.122984	-1.215428	-2.07317
H	1.097016	0.0	0.0
H	0.167455	0.769679	-1.992324
C	-1.850205	0.252154	-1.650663
N	-2.997865	0.463075	-1.783215
C	-0.529421	-1.217778	0.736963
H	-1.625746	-1.228801	0.791535
H	-0.133222	-1.218486	1.756276
H	-0.191794	-2.135943	0.253139
C	-0.430574	1.307782	0.654301
H	-1.518762	1.395821	0.754292
H	0.018735	1.367516	1.648864
H	-0.060127	2.169791	0.088998
H	2.934789	0.0	0.0
