14

C	-0.314295	0.078087	-1.473984
C	0.0	0.0	0.0
F	-1.685252	0.340751	-1.711896
H	1.096516	0.0	0.0
H	-0.152512	-0.899535	-1.950887
H	-0.368664	-0.943185	0.414871
N	0.456707	1.136575	-2.065535
H	1.395119	1.090078	-1.664431
H	0.536556	0.99392	-3.064767
C	-0.524144	1.194272	0.785456
H	-0.170712	1.145389	1.819331
H	-0.156089	2.123608	0.348661
H	-1.617298	1.229803	0.789589
H	3.063209	0.0	0.0
