12

C	-0.520145	-0.028445	-1.432586
C	0.0	0.0	0.0
Br	-0.045378	1.654421	-2.314857
H	1.09191	0.0	0.0
H	0.04039	-0.779207	-2.000843
H	-0.364157	0.896423	0.507736
N	-1.962519	-0.16859	-1.474141
H	-2.221493	-1.016452	-0.97676
H	-2.269755	-0.25974	-2.43521
C	-0.487081	-1.184716	0.702796
N	-0.920043	-2.153069	1.207713
Br	3.538124	0.0	0.0
