12

C	-0.486335	0.010521	-1.437702
C	0.0	0.0	0.0
Br	-2.522018	-0.590199	-1.382773
H	1.094288	0.0	0.0
H	-0.632583	1.007906	-1.845314
H	-0.312923	-0.929867	0.483627
N	0.296878	-0.776823	-2.25635
H	0.655437	-1.618394	-1.831992
H	-0.040104	-0.906582	-3.196616
C	-0.534255	1.120576	0.756357
N	-0.968325	2.025178	1.364822
Br	3.510715	0.0	0.0
