12

C	-0.51605	-0.039493	-1.434913
C	0.0	0.0	0.0
Br	-0.069262	1.651067	-2.320808
H	1.091928	0.0	0.0
H	0.054307	-0.785597	-1.99773
H	-0.365188	0.899804	0.500822
N	-1.954363	-0.193053	-1.483078
H	-2.256091	-0.29211	-2.445806
H	-2.207755	-1.037975	-0.981664
C	-0.484471	-1.179276	0.714441
N	-0.916658	-2.143544	1.227489
Br	3.525848	0.0	0.0
