12

C	-0.405902	0.16868	-1.476615
C	0.0	0.0	0.0
Br	-0.387824	-1.621356	-2.316617
H	1.093899	0.0	0.0
H	-1.441803	0.496866	-1.579836
H	-0.379678	-0.914606	0.457188
N	0.447872	1.050924	-2.213969
H	0.217307	2.010395	-1.982598
H	1.418193	0.880922	-1.951689
C	-0.478962	1.165441	0.737316
N	-0.897161	2.123076	1.273935
Br	3.50933	0.0	0.0
