12

C	-0.471524	0.035524	-1.438627
C	0.0	0.0	0.0
Br	-2.561932	-0.20869	-1.406183
H	1.094264	0.0	0.0
H	-0.404109	1.026335	-1.880029
H	-0.326288	-0.931993	0.472289
N	0.17135	-0.911388	-2.218054
H	0.231755	-1.828127	-1.802196
H	-0.128352	-0.941537	-3.180288
C	-0.508706	1.122428	0.776109
N	-0.913763	2.029197	1.401441
Br	3.545483	0.0	0.0
