14

C	0.0	0.0	0.0
C	-0.554886	0.178644	-1.419902
Cl	1.782481	0.0	0.0
H	-1.631624	-0.042226	-1.310406
H	-0.363855	0.8166	0.623045
C	-0.404366	-1.277277	0.595305
N	-0.589051	-2.318262	1.105984
C	0.053503	-0.765574	-2.351364
N	0.545648	-1.488418	-3.135788
C	-0.407125	1.620946	-1.89902
H	-0.777701	1.716458	-2.92122
H	-1.019215	2.259238	-1.258703
H	0.633146	1.952954	-1.8715
Cl	-3.410399	0.0	0.0
