14

C	0.0	0.0	0.0
C	-0.539196	0.104983	-1.436532
Cl	1.783	0.0	0.0
H	-0.080815	-0.707875	-2.013008
H	-0.331872	0.85799	0.58857
C	-0.446226	-1.237204	0.637885
N	-0.743948	-2.254961	1.14222
C	-0.079193	1.368661	-2.021389
N	0.269846	2.384634	-2.496867
C	-2.06668	-0.005148	-1.474154
H	-2.422231	0.11495	-2.498464
H	-2.406738	-0.973601	-1.10654
H	-2.5668	0.740343	-0.855847
Cl	-5.047849	0.0	0.0
