14

C	0.0	0.0	0.0
C	-0.400329	0.003564	-1.517926
Cl	1.785561	0.0	0.0
H	0.532269	0.183903	-2.066112
H	-0.353813	0.897079	0.504299
C	-0.424047	-1.187987	0.737314
N	-0.5439	-2.188834	1.339511
C	-1.205809	1.173495	-1.880506
N	-1.595344	2.195276	-2.311372
C	-0.937487	-1.33215	-2.026414
H	-0.163529	-2.097144	-1.899931
H	-1.173018	-1.247635	-3.090435
H	-1.83422	-1.607486	-1.476607
Cl	-3.083352	0.0	0.0
