14

C	0.0	0.0	0.0
C	-0.488609	0.160754	-1.449739
Cl	1.782461	0.0	0.0
H	-1.577989	0.007785	-1.385347
H	-0.374851	0.829021	0.599255
C	-0.411855	-1.272856	0.596032
N	-0.592186	-2.312242	1.112041
C	0.106285	-0.855484	-2.31567
N	0.584504	-1.633212	-3.055214
C	-0.202192	1.563384	-1.985082
H	-0.740594	2.292205	-1.375473
H	-0.557672	1.649934	-3.01335
H	0.866398	1.789092	-1.968304
Cl	-3.323912	0.0	0.0
