15

C	-0.533946	0.001688	-1.408652
C	0.0	0.0	0.0
Br	0.294798	-1.324637	-2.529095
H	1.089732	0.0	0.0
H	-0.323171	0.970375	-1.855637
N	-2.026026	-0.19035	-1.561731
O	-2.589068	0.558868	-2.353049
O	-2.552652	-1.040032	-0.853962
N	-0.440096	-1.171197	0.835954
O	0.051922	-2.243482	0.514327
O	-1.135849	-0.939514	1.826095
N	-0.485249	1.217368	0.715709
O	0.191817	1.586304	1.66736
O	-1.416918	1.857535	0.182923
F	2.484897	0.0	0.0
