15

C	-0.55125	-0.039003	-1.395951
C	0.0	0.0	0.0
Br	-2.426738	0.446108	-1.550521
H	1.089785	0.0	0.0
H	-0.467021	-1.053117	-1.769745
N	0.287418	0.793527	-2.348972
O	1.259976	0.189926	-2.787262
O	-0.044296	1.940322	-2.612455
N	-0.389911	-1.210881	0.759221
O	-0.028918	-1.249866	1.930945
O	-0.965475	-2.127696	0.165164
N	-0.443903	1.219416	0.715263
O	-1.218987	1.139245	1.664318
O	0.003796	2.260969	0.240617
F	2.418874	0.0	0.0
