15

C	-0.556581	-0.044362	-1.394287
C	0.0	0.0	0.0
Br	-2.43254	0.439772	-1.541842
H	1.089836	0.0	0.0
H	-0.473333	-1.059893	-1.765218
N	0.279387	0.785677	-2.354016
O	1.267588	0.190196	-2.766935
O	-0.0687	1.920814	-2.644827
N	-0.390473	-1.205398	0.766426
O	-0.017287	-1.245208	1.934448
O	-0.982329	-2.118049	0.181671
N	-0.437332	1.225238	0.708726
O	-0.013546	2.262604	0.20394
O	-1.180815	1.154148	1.682928
F	2.418082	0.0	0.0
