15

C	-0.404945	-0.007968	-1.447588
C	0.0	0.0	0.0
Br	0.280885	-1.497247	-2.464063
H	1.089749	0.0	0.0
H	0.001369	0.884904	-1.913479
N	-1.891184	0.047141	-1.697259
O	-2.259694	0.684929	-2.676917
O	-2.612605	-0.566697	-0.919496
N	-0.522266	-1.11695	0.821504
O	-1.282852	-0.8743	1.754468
O	-0.12368	-2.232524	0.500983
N	-0.41111	1.283037	0.616751
O	-1.092427	2.064548	-0.060691
O	0.008058	1.51111	1.744907
F	2.438015	0.0	0.0
