15

C	0.0	0.0	0.0
C	-0.446517	0.002914	-1.475873
F	1.372263	0.0	0.0
H	-1.526996	-0.16709	-1.515493
H	0.025214	-0.831037	-1.992129
C	-0.472024	1.161323	0.867349
H	-0.16497	2.103667	0.413382
H	-1.559253	1.150271	0.954149
H	-0.060841	1.053175	1.868321
N	-0.521265	-1.298732	0.594135
O	-0.396692	-2.321849	-0.15607
O	-0.427478	-1.389321	1.859154
C	-0.139181	1.271461	-2.114881
N	0.091128	2.309333	-2.613562
H	-1.615965	0.0	0.0
