15

C	0.0	0.0	0.0
C	-0.593867	0.040567	-1.385354
F	1.372313	0.0	0.0
H	-1.711443	0.01909	-1.173391
H	-0.301822	-0.842309	-1.95509
C	-0.499766	1.104753	0.879702
H	-0.201348	2.055926	0.432449
H	-0.068323	1.0153	1.875531
H	-1.596263	1.017343	0.902915
N	-0.339692	-1.365293	0.615341
O	-0.361471	-2.331554	-0.142427
O	-0.446795	-1.423336	1.835097
C	-0.185216	1.243953	-2.087451
N	0.14609	2.213266	-2.664072
H	-3.095618	0.0	0.0
