15

C	0.0	0.0	0.0
C	-0.519526	-0.007606	-1.397304
F	1.364405	0.0	0.0
H	0.185006	0.608974	-1.991659
H	-0.469576	-1.025224	-1.790596
C	-0.388752	1.206482	0.818861
H	-0.049033	2.089294	0.267573
H	-1.473293	1.232003	0.925922
H	0.092724	1.148531	1.794055
N	-0.347245	-1.292124	0.74054
O	-0.388683	-2.332636	0.078763
O	-0.418275	-1.24403	1.967012
C	-1.908348	0.557589	-1.539175
N	-2.443725	1.246315	-2.367409
H	-2.590236	0.0	0.0
