17
Coordinates from ORCA-job run
  C   0.98115195162471     -0.13453630929272     -0.37691347912498
  C   -0.48962871583947      0.03741893088586      0.04136605257148
  Cl  1.17495499676201      0.08846443910990     -2.15146550723688
  H   -0.47539399937172     -0.09237406068049      1.13419099630012
  C   1.42680176126808     -1.51142522026571     -0.08419867619163
  N   1.80341436044755     -2.58016248132576      0.22992359447881
  N   1.80568512903585      0.86256941888373      0.26874825768885
  H   2.77687082797287      0.74066906671460      0.00324452366785
  H   1.73223036645325      0.75346864048831      1.27551643211359
  C   -1.39270008726291     -1.03989218675560     -0.55002436180667
  H   -1.42582595399646     -0.96223241311496     -1.63876280213188
  H   -1.06310933600794     -2.04672562936755     -0.28499189259903
  H   -2.40961295229175     -0.90962179036685     -0.17301042627536
  C   -1.00609009258999      1.43847550112663     -0.27233423986284
  H   -1.11659736533471      1.57592134463000     -1.34969669181547
  H   -0.33346111924633      2.20798604960475      0.10453449832277
  H   -1.98868977162303      1.57199669972585      0.18687372190128
