17
Coordinates from ORCA-job run
  C   0.98194085167069     -0.16435511683345     -0.58421216549012
  C   -0.54916247506203     -0.00940907831016     -0.63478007488458
  Cl  1.68330169607476      0.70390479033083     -2.07053233900759
  H   -0.84571795753273     -0.28667200923887     -1.65134262706801
  C   1.36881079169782     -1.56742833260599     -0.76836617880592
  N   1.66246966994358     -2.69638345352733     -0.90565289638118
  N   1.52559283164115      0.31138741102451      0.63532609255853
  H   2.52158948356374      0.14044758375535      0.69605891681551
  H   1.34923699751384      1.30119485670746      0.74985200293762
  C   -0.97829112605536      1.43228984908287     -0.37277314805019
  H   -2.04440503837866      1.53556794036755     -0.58592138768435
  H   -0.83549455893395      1.70084376413280      0.67757203308373
  H   -0.44327260622608      2.14440213506721     -1.00312937805536
  C   -1.21631262418589     -0.96077890959569      0.35795597048212
  H   -0.87543363287430     -0.75524335413422      1.37428089404100
  H   -1.00399138041387     -2.00648356910885      0.12749697742219
  H   -2.29986092244271     -0.82328450711402      0.32116730808659
