15

C	0.0	0.0	0.0
C	-0.19613	0.274375	-1.504781
F	1.340187	0.0	0.0
H	0.444288	1.133499	-1.688839
H	0.206864	-0.609744	-1.991595
N	-0.400263	1.144143	0.918552
O	-0.581633	0.938079	2.105025
O	-0.327841	2.236747	0.366272
N	-0.385318	-1.396269	0.452543
O	-0.266383	-1.64773	1.64301
O	-0.595129	-2.199188	-0.446383
N	-1.450132	0.594299	-2.249431
O	-1.912018	-0.306594	-2.94197
O	-1.789541	1.770739	-2.274158
Cl	-2.962782	0.0	0.0
