15

C	0.0	0.0	0.0
C	-0.217057	-0.085844	-1.523159
F	1.340324	0.0	0.0
H	0.492501	-0.848912	-1.836433
H	0.084276	0.888244	-1.898052
N	-0.375243	1.32835	0.630401
O	-0.602038	2.242481	-0.149341
O	-0.219247	1.423927	1.84036
N	-0.389627	-1.247631	0.779702
O	-0.217752	-2.267896	0.119765
O	-0.665154	-1.180552	1.962652
N	-1.459619	-0.435517	-2.276966
O	-1.749705	-1.622562	-2.348206
O	-1.958538	0.470475	-2.936216
Cl	-2.977069	0.0	0.0
