15

C	0.0	0.0	0.0
C	-0.248801	-0.19372	-1.507254
F	1.330272	0.0	0.0
H	-0.05661	0.777225	-1.954911
H	0.521371	-0.906662	-1.799924
N	-0.3764	1.365453	0.543591
O	-0.1617	1.540851	1.736261
O	-0.679467	2.220234	-0.276077
N	-0.382819	-1.18216	0.880988
O	-0.78096	-1.020874	2.018444
O	-0.097759	-2.246609	0.339881
N	-1.469752	-0.720603	-2.195278
O	-1.712028	-1.913329	-2.076543
O	-1.990781	0.045257	-2.999836
Cl	-3.016594	0.0	0.0
