15

C	0.0	0.0	0.0
C	-0.692815	-0.03955	-1.326668
F	1.324869	0.0	0.0
H	-1.778789	-0.197193	-1.134333
H	-0.547904	0.902359	-1.851687
N	-0.421833	1.28275	0.725484
O	-0.102779	2.302191	0.122097
O	-0.962129	1.200815	1.814203
N	-0.372086	-1.184568	0.903145
O	-1.261181	-1.932382	0.53161
O	0.315521	-1.279642	1.913737
N	-0.164	-1.11165	-2.20496
O	-0.445071	-1.010824	-3.395992
O	0.495439	-2.019994	-1.702703
Cl	-3.687671	0.0	0.0
