15

C	0.0	0.0	0.0
C	-0.683671	0.245017	-1.309268
F	1.323546	0.0	0.0
H	-1.769724	0.043686	-1.166281
H	-0.545789	1.280594	-1.612416
N	-0.423534	1.102053	0.978726
O	-0.073252	2.22158	0.617197
O	-0.992178	0.796152	2.012168
N	-0.373797	-1.349424	0.625666
O	-1.22707	-2.022042	0.07131
O	0.279625	-1.639499	1.621489
N	-0.138051	-0.600809	-2.400166
O	0.537033	-1.586492	-2.109221
O	-0.420613	-0.243196	-3.539828
Cl	-3.672695	0.0	0.0
