15

C	0.0	0.0	0.0
C	-0.704969	0.167609	-1.309781
F	1.322898	0.0	0.0
H	-0.527198	-0.7042	-1.938537
H	-1.796345	0.257784	-1.098045
N	-0.379036	1.078466	1.018203
O	-1.20208	1.915546	0.683941
O	0.240164	1.015317	2.07443
N	-0.424494	-1.353519	0.581306
O	-1.082545	-1.382744	1.606374
O	0.001583	-2.30388	-0.069015
N	-0.234978	1.350943	-2.073523
O	-0.676907	1.449319	-3.214471
O	0.545942	2.136865	-1.538641
Cl	-3.709227	0.0	0.0
