15

C	0.0	0.0	0.0
C	-0.215791	-0.004855	-1.526527
F	1.339992	0.0	0.0
H	0.501596	0.733568	-1.880161
H	0.075584	-1.003236	-1.840954
N	-0.37981	1.295241	0.708066
O	-0.699386	1.298987	1.8816
O	-0.159063	2.273546	-0.000351
N	-0.374259	-1.288373	0.712263
O	-0.239521	-1.300468	1.927515
O	-0.590268	-2.253929	-0.006997
N	-1.452212	0.317568	-2.300941
O	-1.738309	1.501806	-2.417083
O	-1.948806	-0.612247	-2.927437
Cl	-2.96854	0.0	0.0
