17

C	0.0	0.0	0.0
C	-0.213295	-0.053921	-1.582611
Cl	1.798132	0.0	0.0
H	0.257757	-1.020292	-1.808383
N	-0.417285	1.372921	0.541886
O	-0.446057	1.498081	1.757009
O	-0.639893	2.255033	-0.279382
N	-0.642577	-0.965056	0.756595
H	-0.448156	-1.87704	0.355919
H	-1.701523	-0.682468	0.579603
C	0.590941	0.935412	-2.315686
N	1.17863	1.675218	-3.014719
C	-1.602324	-0.068295	-2.221498
H	-1.463279	-0.312676	-3.281675
H	-2.257482	-0.768828	-1.718159
H	-2.078147	0.902675	-2.120307
F	-2.836212	0.0	0.0
