17

C	0.0	0.0	0.0
C	-0.215168	0.128935	-1.580389
Cl	1.795807	0.0	0.0
H	0.203596	-0.832805	-1.909154
N	-0.417307	1.306462	0.68902
O	-0.55934	2.290689	-0.028097
O	-0.520262	1.283447	1.905512
N	-0.644775	-1.04218	0.643591
H	-1.699691	-0.749401	0.506102
H	-0.449193	-1.906549	0.150902
C	0.637319	1.146799	-2.213069
N	1.258022	1.92307	-2.840372
C	-1.602794	0.261997	-2.211976
H	-1.995742	1.26352	-2.053507
H	-1.482993	0.07572	-3.286176
H	-2.311008	-0.410761	-1.740651
F	-2.854306	0.0	0.0
