17

C	0.0	0.0	0.0
C	-0.247399	0.021912	-1.5619
Cl	1.771874	0.0	0.0
H	0.24527	-0.916086	-1.843197
N	-0.371769	1.377194	0.640161
O	-0.619764	2.326516	-0.091074
O	-0.380045	1.395636	1.866474
N	-0.656928	-1.050635	0.600363
H	-1.722043	-0.746532	0.421798
H	-0.460269	-1.032424	1.595987
C	0.528036	1.077406	-2.233138
N	1.112598	1.870444	-2.873545
C	-1.635893	0.003478	-2.203088
H	-1.474931	-0.083091	-3.284868
H	-2.228196	-0.82164	-1.82769
H	-2.187117	0.907286	-1.969257
F	-2.850262	0.0	0.0
