16

C	-0.442833	-0.016997	-1.489889
C	0.0	0.0	0.0
Br	0.198816	1.586171	-2.356304
H	1.090618	0.0	0.0
C	0.050757	-1.173949	-2.218198
N	0.428963	-2.098282	-2.839485
N	-1.983528	-0.024968	-1.56914
O	-2.55684	0.999693	-1.224407
O	-2.513977	-1.073068	-1.91376
N	-0.539226	-1.29698	0.570404
O	0.189372	-2.283065	0.547466
O	-1.698355	-1.263867	0.987679
N	-0.43165	1.083718	0.795798
H	-1.315168	1.489705	0.52883
H	0.304636	1.770739	0.860183
Cl	3.208586	0.0	0.0
