16

C	-0.517721	-0.002596	-1.45234
C	0.0	0.0	0.0
Br	0.43426	1.345696	-2.438978
H	1.090208	0.0	0.0
C	-0.447493	-1.247422	-2.207151
N	-0.458356	-2.181686	-2.92129
N	-2.028927	0.342839	-1.382234
O	-2.477505	1.290926	-1.998646
O	-2.654583	-0.432284	-0.664151
N	-0.390221	-1.292821	0.702631
O	-1.003425	-1.207058	1.762322
O	-0.018397	-2.333372	0.176669
N	-0.477947	1.160276	0.667782
H	0.260002	1.522632	1.257479
H	-1.280685	0.932488	1.241841
Cl	3.186087	0.0	0.0
