16

C	-0.409404	-0.034762	-1.510691
C	0.0	0.0	0.0
Br	0.024584	1.662139	-2.328624
H	1.091865	0.0	0.0
C	0.228808	-1.087969	-2.283256
N	0.687952	-1.898969	-3.000681
N	-1.931808	-0.24646	-1.589069
O	-2.640961	0.70369	-1.281255
O	-2.313664	-1.377095	-1.868799
N	-0.507957	-1.323868	0.537449
O	0.150852	-2.324349	0.272123
O	-1.573304	-1.304473	1.153126
N	-0.484574	1.059361	0.790134
H	-1.433392	1.337901	0.583561
H	0.159684	1.836852	0.763921
Cl	3.188486	0.0	0.0
