16

C	-0.575984	0.026137	-1.424089
C	0.0	0.0	0.0
Br	-2.522387	-0.152841	-1.353862
H	1.092675	0.0	0.0
C	-0.274024	1.30323	-2.053188
N	-0.028835	2.317738	-2.59373
N	0.027549	-1.068369	-2.352696
O	-0.678727	-1.988351	-2.723602
O	1.197886	-0.859448	-2.627644
N	-0.390438	-1.322688	0.641266
O	-0.982059	-1.290357	1.718493
O	-0.060043	-2.337578	0.035865
N	-0.44672	1.136022	0.717029
H	0.245816	1.384602	1.409917
H	-1.338083	0.971866	1.164003
Cl	3.177782	0.0	0.0
