12

C	-0.480837	0.062791	-1.4234
C	0.0	0.0	0.0
F	0.013007	-0.956957	-2.211578
H	1.089112	0.0	0.0
H	-0.093627	1.001553	-1.837697
H	-0.290445	0.904464	0.537099
C	-1.952224	0.081875	-1.555937
N	-3.117169	0.183488	-1.661673
N	-0.521353	-1.130867	0.752066
O	-0.943242	-2.115244	0.130884
O	-0.432458	-1.067104	1.982378
H	2.621096	0.0	0.0
