12

C	-0.476922	0.103998	-1.424626
C	0.0	0.0	0.0
F	0.032931	-0.881767	-2.24368
H	1.088956	0.0	0.0
H	-0.102282	1.062334	-1.804527
H	-0.29749	0.884087	0.566074
C	-1.948512	0.106448	-1.550979
N	-3.115991	0.181176	-1.647168
N	-0.511677	-1.160925	0.711114
O	-0.891231	-2.141564	0.056779
O	-0.451103	-1.12337	1.945809
H	2.61635	0.0	0.0
