12

C	-0.536441	-0.016429	-1.410383
C	0.0	0.0	0.0
F	0.184157	0.79982	-2.260937
H	1.088258	0.0	0.0
H	-1.572938	0.334185	-1.447368
H	-0.286967	-0.887755	0.563244
C	-0.494487	-1.391134	-1.947352
N	-0.500284	-2.480388	-2.384107
N	-0.473377	1.153603	0.736352
O	-0.829266	2.160264	0.100622
O	-0.394282	1.103125	1.970885
H	2.565555	0.0	0.0
