12

C	-0.526476	-0.114137	-1.416102
C	0.0	0.0	0.0
F	-0.507996	1.157492	-1.98774
H	1.088269	0.0	0.0
H	-1.564112	-0.459628	-1.427896
H	-0.334211	0.930069	0.456311
C	0.242031	-1.014986	-2.296956
N	0.743061	-1.721365	-3.089954
N	-0.450716	-1.104506	0.800191
O	-0.679273	-2.181098	0.211915
O	-0.470036	-0.967414	2.031689
H	2.539313	0.0	0.0
