12

C	-0.432547	-0.009517	-1.431426
C	0.0	0.0	0.0
F	-1.812282	-0.207678	-1.570447
H	1.092136	0.0	0.0
H	0.06425	-0.871156	-1.89172
H	-0.326673	-0.912174	0.497629
C	-0.071729	1.171619	-2.233198
N	0.182409	2.025696	-2.996641
N	-0.498285	1.118558	0.78008
O	-0.666779	0.927473	1.990762
O	-0.631002	2.215679	0.223934
H	2.602947	0.0	0.0
