17

C	0.0	0.0	0.0
C	-0.587568	-0.037654	-1.417216
Br	1.966392	0.0	0.0
H	-1.675646	-0.141045	-1.258456
C	-0.358733	1.294974	0.58783
N	-0.553843	2.312316	1.142712
C	-0.472346	-1.126106	0.915666
H	-0.1025	-0.942312	1.925481
H	-0.103006	-2.087617	0.564549
H	-1.566166	-1.116861	0.908086
N	-0.129369	-1.323315	-2.113909
O	-0.610846	-2.383838	-1.726652
O	0.687747	-1.212359	-3.028972
N	-0.276308	1.124699	-2.160039
H	-0.944131	1.25578	-2.906844
H	0.659358	1.073692	-2.54188
Cl	-3.651953	0.0	0.0
