17

C	0.0	0.0	0.0
C	-0.583885	0.110938	-1.417645
Br	1.956081	0.0	0.0
H	-1.673611	0.007882	-1.273276
C	-0.369386	1.22676	0.713519
N	-0.580815	2.185008	1.359854
C	-0.480668	-1.215958	0.78639
H	-1.574321	-1.201588	0.762712
H	-0.126857	-1.137845	1.81576
H	-0.104836	-2.135834	0.34236
N	-0.135754	-1.10624	-2.228211
O	0.726258	-0.93117	-3.091767
O	-0.657688	-2.185658	-1.965634
N	-0.250801	1.33736	-2.040771
H	0.688411	1.311244	-2.418233
H	-0.911359	1.550649	-2.77551
Cl	-3.654443	0.0	0.0
