17

C	0.0	0.0	0.0
C	-0.610846	0.191177	-1.415531
Br	1.962738	0.0	0.0
H	-1.651476	-0.143229	-1.310037
C	-0.358212	1.173434	0.800554
N	-0.558949	2.124313	1.462181
C	-0.469505	-1.279873	0.686103
H	-1.561844	-1.244535	0.727277
H	-0.053587	-1.333184	1.693505
H	-0.147321	-2.146229	0.110168
N	0.071257	-0.766499	-2.359991
O	-0.2641	-1.949441	-2.284084
O	0.926622	-0.320618	-3.118794
N	-0.594837	1.499739	-1.968097
H	0.267992	1.993686	-1.778481
H	-1.38739	2.008679	-1.596994
Cl	-3.616614	0.0	0.0
