14

C	0.0	0.0	0.0
C	-0.52746	-0.605375	-1.272855
F	1.393762	0.0	0.0
H	-0.22495	-1.643849	-1.400811
H	-0.314829	1.043135	0.044646
H	-1.622564	-0.508591	-1.252854
C	-0.48932	-0.764558	1.206255
H	-0.162196	-1.806602	1.151312
H	-0.072158	-0.319593	2.112393
H	-1.579482	-0.717833	1.239622
N	-0.030809	0.11624	-2.478446
O	0.01105	1.343578	-2.441408
O	0.278208	-0.566553	-3.456622
Cl	-3.730116	0.0	0.0
