16

C	-0.596861	0.008279	-1.401199
C	0.0	0.0	0.0
Cl	0.465259	1.052737	-2.458337
H	1.09469	0.0	0.0
N	-0.523237	-1.355525	-2.073962
O	-1.279658	-1.529052	-3.02877
O	0.293898	-2.161593	-1.648593
N	-1.943704	0.409196	-1.397492
H	-2.294542	0.523785	-2.338784
H	-1.976822	1.280207	-0.878235
C	-0.552248	-1.088669	0.786982
N	-0.993302	-1.94076	1.467497
N	-0.332556	1.312474	0.608776
H	0.564696	1.710965	0.863421
H	-0.868733	1.185657	1.457059
F	2.526413	0.0	0.0
