16

C	-0.144766	-0.023074	-1.526949
C	0.0	0.0	0.0
Cl	-0.371999	-1.789493	-2.136975
H	1.10316	0.0	0.0
N	-1.461551	0.599306	-1.996974
O	-2.43922	0.442173	-1.274332
O	-1.453098	1.190676	-3.070107
N	0.937172	0.624757	-2.066465
H	1.023145	0.56398	-3.06837
H	1.795598	0.439157	-1.507006
C	-0.59383	-1.111928	0.721185
N	-1.098364	-1.912959	1.41836
N	-0.397088	1.310579	0.498713
H	-1.306078	1.28222	0.9381
H	0.299782	1.623344	1.160111
F	2.621994	0.0	0.0
