16

C	-0.298156	0.070848	-1.484051
C	0.0	0.0	0.0
Cl	-2.080097	0.783307	-1.775522
H	1.0947	0.0	0.0
N	0.524965	1.152575	-2.18511
O	0.795039	2.162719	-1.5564
O	0.809149	0.944337	-3.361001
N	-0.103417	-1.114455	-2.152084
H	-0.593032	-1.894567	-1.740383
H	-0.202953	-1.041081	-3.152492
C	-0.526244	-1.259154	0.503421
N	-0.938811	-2.296891	0.874869
N	-0.397629	1.102242	0.849468
H	0.356511	1.774567	0.810174
H	-1.243571	1.540942	0.507083
F	2.489938	0.0	0.0
