16

C	-0.131233	-0.213808	-1.512746
C	0.0	0.0	0.0
Cl	-0.294314	-2.049945	-1.896075
H	1.10745	0.0	0.0
N	-1.456731	0.296018	-2.074117
O	-2.43473	0.219899	-1.339107
O	-1.462831	0.699198	-3.232332
N	0.93846	0.395627	-2.121087
H	1.028438	0.21764	-3.108169
H	1.79965	0.282844	-1.54638
C	-0.574794	-1.032216	0.846138
N	-1.026304	-1.777972	1.637193
N	-0.426478	1.349483	0.334574
H	0.246166	1.738272	0.981867
H	-1.34757	1.350729	0.75314
F	2.626305	0.0	0.0
