16

C	-0.586205	0.040396	-1.404797
C	0.0	0.0	0.0
Cl	0.465997	1.138914	-2.418728
H	1.094998	0.0	0.0
N	-0.476113	-1.299776	-2.117936
O	-1.204344	-1.449038	-3.097138
O	0.336481	-2.111047	-1.695651
N	-1.940576	0.414387	-1.402998
H	-2.27943	0.564923	-2.343728
H	-1.996987	1.26359	-0.848947
C	-0.552909	-1.109028	0.756931
N	-0.984286	-1.977188	1.423728
N	-0.342434	1.296921	0.63726
H	0.555822	1.703514	0.87915
H	-0.853397	1.144414	1.497886
F	2.525668	0.0	0.0
