17

C	-0.324879	0.003939	-1.483819
C	0.0	0.0	0.0
Br	-2.266012	-0.199784	-1.843303
H	1.106249	0.0	0.0
H	0.115408	-0.888412	-1.935027
C	0.178799	1.253054	-2.177932
H	0.027062	1.199085	-3.257976
H	-0.34381	2.131347	-1.794805
H	1.250721	1.341461	-1.967925
C	-0.494516	-1.235948	0.72568
H	-0.026389	-1.294045	1.712602
H	-1.581375	-1.206083	0.84385
H	-0.225783	-2.142404	0.178234
N	-0.51297	1.217504	0.650099
H	-0.606621	1.025875	1.641857
H	0.209177	1.928601	0.579025
Cl	3.504873	0.0	0.0
