17

C	-0.484798	0.053031	-1.442215
C	0.0	0.0	0.0
Br	-0.136197	1.831182	-2.242403
H	1.096157	0.0	0.0
H	-1.576389	-0.020965	-1.468918
C	0.19459	-0.981618	-2.323556
H	1.277881	-0.892351	-2.216531
H	-0.080016	-0.849646	-3.371763
H	-0.106101	-1.987385	-2.018648
C	-0.458044	-1.312412	0.633798
H	0.024716	-2.175049	0.173878
H	-1.546869	-1.415768	0.574077
H	-0.172017	-1.316512	1.689382
N	-0.585538	1.09765	0.784055
H	-0.203919	1.966323	0.422731
H	-0.206614	1.011035	1.722551
Cl	3.566747	0.0	0.0
