17

C	-0.513704	0.045286	-1.440445
C	0.0	0.0	0.0
Br	0.020129	-1.556087	-2.452909
H	1.095067	0.0	0.0
H	0.007113	0.862462	-1.940445
C	-2.016439	0.218421	-1.567489
H	-2.308617	1.11864	-1.022725
H	-2.552109	-0.642607	-1.16187
H	-2.305702	0.331172	-2.614225
C	-0.492654	-1.185774	0.818123
H	-1.582626	-1.168053	0.941827
H	-0.03409	-1.140237	1.809006
H	-0.210193	-2.135629	0.362292
N	-0.392246	1.294855	0.597711
H	-1.154055	1.158514	1.254875
H	0.404023	1.652432	1.11482
Cl	3.526736	0.0	0.0
