17

C	-0.464972	0.01094	-1.464711
C	0.0	0.0	0.0
Br	0.248406	-1.534343	-2.45524
H	1.095393	0.0	0.0
H	0.005438	0.867077	-1.955241
C	-1.971732	0.031395	-1.679634
H	-2.424334	0.889771	-1.172275
H	-2.207209	0.111431	-2.742749
H	-2.432888	-0.881706	-1.298782
C	-0.536086	-1.167944	0.810098
H	-0.318731	-2.124474	0.331923
H	-0.054997	-1.149733	1.788475
H	-1.61834	-1.084872	0.963965
N	-0.361597	1.256508	0.671633
H	-1.307402	1.546091	0.452973
H	0.280866	1.984508	0.382161
Cl	3.540169	0.0	0.0
