17

C	-0.416455	-0.020699	-1.464899
C	0.0	0.0	0.0
Br	-2.635056	-0.071909	-1.430427
H	1.097013	0.0	0.0
N	0.017385	1.083741	-2.131554
H	-0.04304	1.91075	-1.550438
H	-0.253877	1.183286	-3.096889
C	-0.171529	-1.26691	-2.17519
N	0.032954	-2.27157	-2.751425
C	-0.466265	-1.195821	0.810995
H	0.043739	-1.170258	1.776468
H	-1.546946	-1.180269	0.969484
H	-0.195425	-2.135369	0.322349
N	-0.372437	1.309286	0.533812
H	-1.284532	1.268369	0.969733
H	0.317934	1.579757	1.220217
Br	3.492778	0.0	0.0
