17

C	-0.517068	0.012271	-1.444734
C	0.0	0.0	0.0
Br	0.368432	-1.481305	-2.487362
H	1.093737	0.0	0.0
N	-1.94437	-0.09257	-1.489107
H	-2.222916	-1.010194	-1.164406
H	-2.277963	0.022487	-2.43941
C	-0.117281	1.234243	-2.146778
N	0.178611	2.168645	-2.793055
C	-0.475571	-1.222567	0.779972
H	-0.202207	-2.158367	0.287953
H	-1.55953	-1.198869	0.946704
H	0.012569	-1.209095	1.757023
N	-0.422514	1.272682	0.573015
H	-1.364492	1.209938	0.942288
H	0.221116	1.534908	1.310906
Br	3.583216	0.0	0.0
