17

C	-0.53619	0.030066	-1.438657
C	0.0	0.0	0.0
Br	0.25331	1.534997	-2.412978
H	1.093994	0.0	0.0
N	-0.212895	-1.171513	-2.177076
H	-0.694091	-1.960036	-1.758608
H	-0.520679	-1.079502	-3.1381
C	-1.991916	0.294475	-1.400345
N	-3.166404	0.365765	-1.387876
C	-0.454535	-1.267854	0.718893
H	-0.072639	-1.23063	1.741303
H	-0.032754	-2.163314	0.258478
H	-1.548215	-1.34861	0.756895
N	-0.462608	1.214103	0.672383
H	-1.118277	0.996112	1.411923
H	0.336542	1.687405	1.074576
Br	3.595673	0.0	0.0
