17

C	-0.540867	0.029047	-1.439576
C	0.0	0.0	0.0
Br	0.107406	-1.511602	-2.476128
H	1.098848	0.0	0.0
N	-1.985159	-0.004557	-1.411477
H	-2.359423	0.231144	-2.323553
H	-2.250071	0.715232	-0.74097
C	-0.030969	1.218864	-2.145008
N	0.252242	2.214452	-2.703867
C	-0.500946	-1.200532	0.783041
H	-0.003975	-1.205773	1.757171
H	-0.24328	-2.130993	0.278654
H	-1.583531	-1.161493	0.923857
N	-0.513704	1.243985	0.618637
H	-0.524451	1.108962	1.623796
H	0.169392	1.976628	0.444656
Br	3.581981	0.0	0.0
