17

C	-0.413024	-0.01652	-1.46472
C	0.0	0.0	0.0
Br	-2.645001	-0.048854	-1.426015
H	1.097025	0.0	0.0
N	0.025573	1.085218	-2.128544
H	-0.242357	1.189042	-3.093751
H	-0.022236	1.912316	-1.545669
C	-0.187079	-1.263064	-2.177619
N	0.005046	-2.26902	-2.754731
C	-0.468829	-1.195808	0.809334
H	-0.197246	-2.135241	0.321028
H	0.038108	-1.171425	1.777023
H	-1.550191	-1.179139	0.964374
N	-0.36968	1.31036	0.533219
H	0.320707	1.577838	1.225346
H	-1.286103	1.269774	0.966075
Br	3.488559	0.0	0.0
