19

C	0.0	0.0	0.0
C	-0.233849	-0.053769	-1.559903
F	1.441903	0.0	0.0
H	0.699633	-0.504525	-1.919283
N	-0.509817	1.189292	0.591183
H	-0.363859	1.076462	1.591513
H	-1.530975	1.059188	0.435958
N	-0.428277	-1.162111	0.730882
H	-0.141149	-1.994636	0.225287
H	-1.455005	-1.077357	0.660336
C	-0.316604	1.349891	-2.157081
H	-0.246588	1.297954	-3.249945
H	0.488626	1.983448	-1.781085
H	-1.268596	1.813143	-1.890166
C	-1.375292	-0.930408	-2.07405
H	-2.31382	-0.603053	-1.620931
H	-1.217531	-1.980531	-1.804094
H	-1.407491	-0.877979	-3.170375
F	-2.886593	0.0	0.0
