19

C	0.0	0.0	0.0
C	-0.197779	0.070237	-1.560386
F	1.441904	0.0	0.0
H	0.648313	0.701354	-1.86606
N	-0.449999	1.148226	0.733889
H	-1.475787	1.033219	0.66539
H	-0.194166	1.988118	0.223469
N	-0.516984	-1.201099	0.558444
H	-1.53689	-1.06617	0.392902
H	-0.386126	-1.114476	1.563308
C	-1.453712	0.727228	-2.128122
H	-1.536679	1.766793	-1.794525
H	-2.352883	0.224537	-1.776289
H	-1.376934	0.734714	-3.224021
C	0.018383	-1.308666	-2.182084
H	0.114804	-1.222411	-3.271506
H	0.919809	-1.778284	-1.783347
H	-0.827884	-1.962387	-1.958712
F	-2.897459	0.0	0.0
