19

C	0.0	0.0	0.0
C	-0.420116	-0.09032	-1.475665
F	1.412961	0.0	0.0
H	-1.513607	-0.100294	-1.429593
N	-0.462486	1.255352	0.544307
H	-1.488288	1.113847	0.462686
H	-0.24067	1.251454	1.537732
N	-0.463059	-1.181086	0.691035
H	-0.239044	-1.059687	1.676673
H	-1.488896	-1.047989	0.5952
C	0.096184	-1.37652	-2.113146
H	-0.243952	-2.249254	-1.556909
H	-0.25838	-1.45368	-3.147395
H	1.19096	-1.387684	-2.126795
C	0.063689	1.125905	-2.258691
H	-0.328654	2.046972	-1.829517
H	1.156659	1.18405	-2.243547
H	-0.259895	1.054963	-3.303859
F	-2.847464	0.0	0.0
