19

C	0.0	0.0	0.0
C	-0.414776	-0.103226	-1.481927
F	1.396899	0.0	0.0
H	-1.506887	-0.037937	-1.434764
N	-0.491958	1.242958	0.525044
H	-0.318766	1.196938	1.526327
H	-1.514963	1.106715	0.406052
N	-0.454499	-1.088715	0.832954
H	-1.479982	-0.99139	0.7319
H	-0.172362	-1.972215	0.421906
C	-0.004925	-1.439693	-2.096118
H	1.065711	-1.624503	-1.954169
H	-0.20547	-1.438626	-3.172874
H	-0.565141	-2.274097	-1.666666
C	0.166532	1.049635	-2.296084
H	1.255581	0.9623	-2.372653
H	-0.063785	2.002429	-1.81996
H	-0.248159	1.049623	-3.311181
F	-2.858405	0.0	0.0
