19

C	0.0	0.0	0.0
C	-0.415138	-0.000598	-1.485417
F	1.396893	0.0	0.0
H	-1.508803	-0.028885	-1.431152
N	-0.454848	1.146234	0.752276
H	-0.172882	1.998449	0.279413
H	-1.480517	1.041269	0.658171
N	-0.493158	-1.200667	0.613399
H	-0.325766	-1.079794	1.60921
H	-1.516051	-1.075435	0.48016
C	0.123118	-1.233083	-2.207685
H	-0.258052	-1.272509	-3.235316
H	-0.176025	-2.140774	-1.684169
H	1.217483	-1.211269	-2.249379
C	0.039365	1.267465	-2.203808
H	-0.197924	1.202604	-3.271062
H	1.12177	1.406551	-2.10687
H	-0.462944	2.158798	-1.818475
F	-2.859077	0.0	0.0
