13
Coordinates from ORCA-job run
  C   -0.49993983287064     -0.39166473264805     -0.58012924190679
  C   0.95407991302508     -0.51711851122469     -0.15510203243070
  Br  -1.11310996209547     -2.19306835766683     -1.02005542131678
  H   1.06567870297558     -1.11995975200443      0.74449042990644
  H   -0.55571920525749      0.17138000236906     -1.51169160835773
  H   1.57252681551779     -0.90594221688846     -0.96423121885670
  C   -1.38059897726657      0.22341289523415      0.48937273499896
  H   -2.42082784050833      0.24731557995071      0.16359818743179
  H   -1.32040827108248     -0.34590963346162      1.41916531167771
  H   -1.06362769691949      1.25145342385293      0.68622986657072
  N   1.46955098610310      0.84830184970303      0.16548787773549
  O   1.46903619227446      1.65959659836788     -0.75850131176240
  O   1.82335917610447      1.07220285441632      1.32036642630999
