13
Coordinates from ORCA-job run
  C   -0.43463727638848     -0.46145369711761     -0.10365440489588
  C   0.71231445960132      0.50642264495295      0.08943123158164
  Br  -0.35898455627435     -1.82548010442290      1.29307853193034
  H   0.67573463288938      1.27981989501297     -0.68349540486880
  H   -0.29347504344693     -1.00215319371910     -1.03926229717247
  H   0.71485455357702      0.95759577700642      1.08023366907161
  C   -1.77361051971664      0.25152244703025     -0.06618682437789
  H   -1.82483789499430      0.98466148771882     -0.87714565715006
  H   -1.91539454519683      0.76866551809558      0.88481008942624
  H   -2.59089851909971     -0.45858481145821     -0.19359944943182
  N   2.03366921341434     -0.17041275807278     -0.07928087724552
  O   2.17696694884205     -0.84508472111752     -1.09535612014777
  O   2.87929854679313      0.01448151609111      0.79042751328037
