13
Coordinates from ORCA-job run
  C   -0.43401547472216     -0.60673872915711     -0.42806500955636
  C   0.91219866990740     -0.54229734827076      0.27502609956722
  Br  -1.13833784342764     -2.40345662785029     -0.12747381320655
  H   0.81654572079180     -0.67072862347035      1.35183585637505
  H   -0.28227673589600     -0.52885607661199     -1.50456703182591
  H   1.61372824006599     -1.26437122896228     -0.14302353428521
  C   -1.41369922154135      0.43849019907677      0.06750652285599
  H   -1.03622309062056      1.43935171397120     -0.16018606792732
  H   -2.38022691017872      0.32232101725331     -0.42353317759313
  H   -1.55961814174501      0.35590508616490      1.14645751263703
  N   1.49747818764325      0.81323880423289      0.04561722293496
  O   1.72731859739001      1.11432293478269     -1.12419393326563
  O   1.67612800233300      1.53481887884101      1.02359935328985
