13
Coordinates from ORCA-job run
  C   -0.50490408959223     -0.37521205338592     -0.58621238801873
  C   0.97457633905076     -0.43902945351847     -0.24335903053641
  Br  -1.02892246103997     -2.17101216578422     -1.14770148741280
  H   1.17069450490587     -1.10316042045093      0.59667891838178
  H   -0.64442268332417      0.25738775092314     -1.46275473199514
  H   1.57186050781783     -0.72095119254083     -1.11058739945585
  C   -1.36385138658917      0.09119384414274      0.57244071568820
  H   -1.21964360300981     -0.54708270239583      1.44654238061935
  H   -1.10094681840308      1.11833739759765      0.84065686026935
  H   -2.41932383600868      0.07305010420405      0.29959666809618
  N   1.42156687779165      0.92716249694518      0.16509648710594
  O   1.82174710993510      1.08008347601913      1.31645964293785
  O   1.32256953846590      1.80823291824431     -0.68685663567973
