13
Coordinates from ORCA-job run
  C   -0.51586653574891     -0.58201325728223     -0.39899829808226
  C   0.93339621399046     -0.15027730653094     -0.57163297857355
  Br  -0.60622049034982     -2.14017232398302      0.77841950031681
  H   0.97667969675243      0.69882466316217     -1.25783314522424
  H   -0.83794923918432     -0.95609901763974     -1.37391472113594
  H   1.55139898054240     -0.97091069846607     -0.93018339502466
  C   -1.46873394367395      0.49547737840244      0.08551942612340
  H   -1.23426685737321      0.81075086592867      1.10059588891529
  H   -1.39913577243937      1.37009879160795     -0.56776554862140
  H   -2.49257880523340      0.12055693102391      0.06195665085734
  N   1.54744569808500      0.31603035148677      0.70462026579122
  O   2.37477995170028     -0.41804444306336      1.23791410037628
  O   1.17005110293241      1.40677806535345      1.13130225428170
