14
Coordinates from ORCA-job run
  C   0.82219948047839     -0.09877601182084     -0.30400253357563
  C   -0.46225340320152     -0.05811930955061      0.19936743350833
  N   1.61130323349139     -1.30381528420419     -0.38423473583250
  O   1.09370416158531     -2.36866681077858     -0.01570933032093
  O   2.75602173962454     -1.20575751675429     -0.81705085076367
  C   1.47458893442809      1.08447387748052     -0.74295042960996
  N   1.95685700429985      2.09988901047635     -1.09086012129562
  N   -1.15890655362382     -1.13129262301441      0.59468238281336
  H   -0.69503373461500     -2.02691814324755      0.63177368561314
  H   -2.04462656755415     -1.00419426011175      1.05181277443144
  C   -1.19389025209934      1.25425514452798      0.22212392995537
  H   -1.67260149522364      1.42274637906829     -0.74622875302513
  H   -0.51921221560284      2.08774634009212      0.41025907979113
  H   -1.96815033198726      1.24842920783694      0.99201746831066
