14
Coordinates from ORCA-job run
  C   0.85219778477325     -0.08286698333645     -0.21825595588472
  C   -0.47015699094049     -0.05194855340059      0.17462462987893
  N   1.75000662624325     -1.17158944334127      0.08708183392031
  O   2.91718355643500     -1.06457751662739     -0.27838501165802
  O   1.29701768109564     -2.15184435722115      0.69610814953020
  C   1.44102817051323      1.00626642561192     -0.91548414966515
  N   1.87117400804330      1.93755707807406     -1.49193863705313
  N   -1.10313814847408     -1.05535542375907      0.79772611358660
  H   -2.02760104700902     -0.90132465300032      1.16058253780381
  H   -0.56405590890440     -1.84736316358172      1.11489272271914
  C   -1.32175946528266      1.12630130626019     -0.20478142010371
  H   -1.82020188982653      0.92295976410331     -1.15635273346666
  H   -0.73259737990935      2.03390043161517     -0.31881082249125
  H   -2.08909699675714      1.29988508860332      0.55299274288364
