14
Coordinates from ORCA-job run
  C   0.82118708248738     -0.11293007259814     -0.30770880343510
  C   -0.45565397674752     -0.03902602265909      0.21003730576074
  N   1.65693684835822     -1.28634421681161     -0.20414020655599
  O   2.79380110167890     -1.21576105871481     -0.66248815229776
  O   1.18474519995097     -2.29706269360862      0.33669441964343
  C   1.43171322474030      1.00595197679755     -0.93584299149168
  N   1.88552445532799      1.96285719456618     -1.44851549311178
  N   -1.10632244226790     -1.06214158732406      0.78079706621863
  H   -0.60662600501988     -1.92123939996313      0.95575758843619
  H   -1.98310397383174     -0.88992435839613      1.24088587588055
  C   -1.24665772562197      1.22746261046441      0.04420032996783
  H   -1.89450953213063      1.38446617692488      0.90978809822999
  H   -1.87784826085845      1.14712678540076     -0.84488807711888
  H   -0.60418599606568      2.09756466592182     -0.07257696012617
