14
Coordinates from ORCA-job run
  C   0.84068629269857     -0.05198321083059     -0.26746871644648
  C   -0.44536762065580     -0.04233303155549      0.23326301598149
  N   1.89648740259285     -0.88239058057834      0.26067117154896
  O   3.01182707489062     -0.77005111003646     -0.23993354805578
  O   1.62189768429253     -1.66318389986388      1.18386111443515
  C   1.22369395882697      0.80792964425986     -1.33179904907005
  N   1.47956804703044      1.53897931880466     -2.21765468506254
  N   -0.88941028601155     -0.84919849485380      1.20554133719654
  H   -0.23153852847841     -1.44581463752490      1.68469660528384
  H   -1.80866486520762     -0.70612377324375      1.58527572601497
  C   -1.47285239255484      0.85222951277845     -0.40051689462423
  H   -2.21600294510707      1.16013732632154      0.33819987663318
  H   -1.02289922393394      1.74282502394624     -0.83474509233223
  H   -1.98642459838276      0.30897791237645     -1.19839086150281
