14
Coordinates from ORCA-job run
  C   0.83000945732654     -0.10710663888375     -0.28180557196546
  C   -0.46630631398463     -0.05007103730643      0.18838376243909
  N   1.61847564306911     -1.31543224759366     -0.30545126168412
  O   1.08903112968262     -2.36845628371370      0.07967986441898
  O   2.77465128789530     -1.23152808623578     -0.70996754300036
  C   1.49877390261393      1.06071822041130     -0.73770185685934
  N   1.99659581944658      2.06232432760837     -1.10326923309043
  N   -1.17500064594530     -1.11083869088581      0.59620442574605
  H   -2.07026671680016     -0.96874982764324      1.02981199415621
  H   -0.71387486531707     -2.00532568975912      0.67223172068189
  C   -1.19965149020614      1.26093208732450      0.15520015271206
  H   -0.52425470112912      2.10564905639735      0.27722608798694
  H   -1.95234868246245      1.29659314104932      0.94568848405528
  H   -1.70683382418918      1.37029166923064     -0.80723102559679
