14
Coordinates from ORCA-job run
  C   0.91105534422716     -0.02454931241227     -0.08486610674974
  C   -0.41290726447003     -0.04398320322929      0.29056426200740
  N   1.38316901706303      0.33649025441976     -1.40309319981933
  O   0.56764817441684      0.72936852191019     -2.23799491157921
  O   2.59287616744812      0.22528464757859     -1.59659282575157
  C   1.91221666648493     -0.39688849734192      0.85094677184840
  N   2.62098937092554     -0.72761037189186      1.73131572836018
  N   -0.73323236282701     -0.33274933790315      1.57170162010167
  H   -1.68742951448671     -0.55378401090953      1.79598735955368
  H   -0.02550545850487     -0.67664018235936      2.20399358892652
  C   -1.56660935177699      0.29601759445185     -0.60544072457791
  H   -1.50775423528185      1.33768484640881     -0.92012830885935
  H   -2.51023525992873      0.13446268994952     -0.08086451472698
  H   -1.54628129328944     -0.30410363867133     -1.51352873873376
