14
Coordinates from ORCA-job run
  C   0.86023664410309     -0.12042583442904     -0.15913094050781
  C   -0.47200938098982      0.00128476102155      0.17969597404152
  N   1.80447570149828     -0.91624177417850      0.58829770355848
  O   1.38708809645469     -1.55969574557536      1.56247614166771
  O   2.97342309900376     -0.91203843646197      0.21299402814276
  C   1.40927506299659      0.59268770299314     -1.25856588854693
  N   1.80668320061764      1.20772450068461     -2.17979120201958
  N   -1.06740221758286     -0.66492788720874      1.17780913662822
  H   -0.49826491056889     -1.21500022538231      1.80397622362776
  H   -2.01087217328155     -0.43055318872871      1.43237045592162
  C   -1.37101381113058      0.84964303905058     -0.67447021065178
  H   -1.80750834683507      0.23479713569847     -1.46624187012326
  H   -0.82977189553313      1.66876287929112     -1.14409653032098
  H   -2.18433906875213      1.26498307322516     -0.07532302141773
