14
Coordinates from ORCA-job run
  C   0.84662620097139     -0.01126782284789     -0.26536211139400
  C   -0.43203229714627     -0.01471634515866      0.25353181732705
  N   1.96519035347872     -0.67135707045678      0.36614565870706
  O   3.05534941164099     -0.60185310228912     -0.19420692660099
  O   1.76730756761943     -1.26758822516717      1.43483988590274
  C   1.14658132007625      0.63636013372248     -1.49453002406605
  N   1.33727434878001      1.19138142740747     -2.51446425597664
  N   -0.78208951067361     -0.58577661023733      1.41393877684248
  H   -1.75375988966404     -0.63511630562882      1.66535553933354
  H   -0.10196073469942     -1.13639443127228      1.91566570154358
  C   -1.54406946344747      0.65453255968356     -0.50343406652711
  H   -1.17074178536292      1.37702095253381     -1.22575117762649
  H   -2.21299302991504      1.16724940403435      0.19170407459480
  H   -2.12168249165803     -0.10047456432363     -1.04443289206000
