14
Coordinates from ORCA-job run
  C   0.87296351090865     -0.02950611913538     -0.16866031534152
  C   -0.47314614597908     -0.08052357979946      0.12920423510719
  N   1.84123626085917     -0.96313192673667      0.36081472008981
  O   1.43689875839535     -1.87263333345414      1.09934855861929
  O   3.01640584034723     -0.80114778146912      0.04460975251139
  C   1.41789327016468      0.98967922308091     -0.99659408450828
  N   1.81723436212964      1.85331198804084     -1.68875966627248
  N   -1.05287485176732     -1.03020019474702      0.87735764421283
  H   -2.01656310767012     -0.92385676738653      1.14295186419984
  H   -0.47041644152768     -1.70004311471404      1.35649808496315
  C   -1.40960140214227      0.94815371846217     -0.43834924039044
  H   -2.20346243231965      0.44905596535319     -0.99963549444054
  H   -1.87127150716936      1.51144506855229      0.37767537126395
  H   -0.90429611422923      1.64939685395295     -1.09746143001420
