14
Coordinates from ORCA-job run
  C   0.86320285921105     -0.04296773276633     -0.20436544041625
  C   -0.46484842707552     -0.06275415091464      0.17041019429827
  N   1.80194140429857     -1.08725074685194      0.13319469033318
  O   2.94539855167464     -0.98476210430870     -0.30163969769737
  O   1.40834714231597     -2.02372472766789      0.84373869466133
  C   1.39011278280438      0.99475581343140     -1.02081815583316
  N   1.76853986191568      1.88381428047980     -1.69246687413755
  N   -1.01886270217639     -0.99463360615004      0.95736775437614
  H   -2.01322068400662     -0.99045478193452      1.10317175893243
  H   -0.47072127969473     -1.79373138741272      1.23711531475759
  C   -1.37225881524962      1.06286622161011     -0.23735534891832
  H   -2.34119555417251      0.66215580502326     -0.54716931201664
  H   -1.53650659703423      1.72858968472698      0.61479770328105
  H   -0.95992854281068      1.64809743273526     -1.05598128162070
