14
Coordinates from ORCA-job run
  C   0.90437967361131     -0.09652820485527     -0.10557240959988
  C   -0.39708328982724      0.09394383012718      0.30006972884867
  N   1.31095373967919     -0.32657135287844     -1.47414500161791
  O   2.51622604451249     -0.48179247095551     -1.66430976172264
  O   0.44819920443405     -0.35439855925154     -2.35261904923663
  C   1.94933322112108     -0.07849659803959      0.85586455221365
  N   2.69911613954385     -0.04152131799909      1.76318989259215
  N   -0.65130664293047      0.36798964367082      1.59867352992928
  H   0.08156402655236      0.28662649495385      2.28774889276099
  H   -1.59754799735777      0.31510963548666      1.93216682321968
  C   -1.59189049045359      0.07993482855675     -0.60620786070913
  H   -1.50902672979039      0.86248959150063     -1.35948862621538
  H   -1.65819721977816     -0.86336834905918     -1.14611656767339
  H   -2.50471967931671      0.23558282874273     -0.02825414278948
