14
Coordinates from ORCA-job run
  C   0.87277784754226     -0.12098642732239     -0.11722913380613
  C   -0.48961405450796     -0.03329743637726      0.08176351148397
  N   1.58373359381285     -1.37583316639941     -0.21219872163636
  O   2.79146067404111     -1.32853462828009     -0.42790144562853
  O   0.94184937364886     -2.42640843675651     -0.06863278742849
  C   1.67899879732553      1.03641520015730     -0.29437288196818
  N   2.30033998486637      2.02586427009261     -0.43350495090835
  N   -1.29922640629697     -1.08196705784576      0.28667594017837
  H   -2.29368173042465     -0.93752128672639      0.30801561049269
  H   -0.92748483125120     -2.01464776557517      0.18835884376364
  C   -1.15308045110379      1.31287562208681      0.15485392876312
  H   -0.47173686264430      2.12389446026765     -0.08922657814027
  H   -1.53892980161486      1.47369230338961      1.16505380737847
  H   -1.99640613339326      1.34445434928901     -0.54065514254395
