14
Coordinates from ORCA-job run
  C   0.84558433675494     -0.09227044630385     -0.24908300880591
  C   -0.45871533845053     -0.04776719517371      0.19987990524699
  N   1.62208959295114     -1.30743117645249     -0.32584241400889
  O   1.09087225996553     -2.36638891879217      0.03968063089428
  O   2.77105210989135     -1.22127586732750     -0.74959786283967
  C   1.51302166865228      1.07779225527139     -0.70202722415397
  N   2.01516171178257      2.07877382717016     -1.06311943622011
  N   -1.14299210956179     -1.10433553280957      0.65815017815508
  H   -0.72935801982054     -2.02209449537996      0.59003978275009
  H   -2.12202237114700     -1.00722629316309      0.86334294309677
  C   -1.20244030713982      1.25784940316641      0.19020742190841
  H   -1.85272392236313      1.32447978879365      1.06515292273053
  H   -1.82286338232027      1.31880071332802     -0.70846906027927
  H   -0.52766622919474      2.11109393767270      0.19168522152565
