14
Coordinates from ORCA-job run
  C   0.87860759151438     -0.06940340287785      0.01006465320930
  C   -0.50033440333000     -0.06403990179620     -0.00986458511090
  N   1.66633044612294     -1.27756559400909      0.13279539854730
  O   2.88735255239866     -1.16010930548788      0.09448149537816
  O   1.07357198466240     -2.35409134328870      0.28698004175305
  C   1.63896698968691      1.12306578704077     -0.12453389771145
  N   2.24180740208327      2.12929390983797     -0.22247107810870
  N   -1.27071813386085     -1.14548351738806      0.18235072750199
  H   -0.83081611720805     -2.05320556090410      0.21508026829700
  H   -2.25562179239706     -1.07995553742910     -0.01003158181033
  C   -1.23534002131400      1.24116345338789     -0.12495123997942
  H   -0.61381180103875      2.02298126363100     -0.55463471898364
  H   -1.55366396401765      1.56356938543362      0.86980772881276
  H   -2.12733073330218      1.12578036384974     -0.74507321179512
