14
Coordinates from ORCA-job run
  C   0.88468151384473      0.02034437612327     -0.09452918401677
  C   -0.47624117883394     -0.11464009836276      0.08829725725300
  N   1.86696258430072     -0.82926795126858      0.54585176989112
  O   3.04853308845069     -0.58657172472728      0.31553293187982
  O   1.47084795328042     -1.73904133677441      1.28844236066681
  C   1.42087652039218      1.05307101981563     -0.90842647444846
  N   1.81816571595552      1.92578148367190     -1.59309588507392
  N   -1.05367830856687     -1.00108927929503      0.90951002825991
  H   -2.05416897727504     -1.10734411277353      0.90591401476698
  H   -0.48537095043984     -1.66840212589215      1.40479962460545
  C   -1.42122213441656      0.83292078587061     -0.59454041090915
  H   -2.25379754663746      0.27649253103456     -1.03565475687888
  H   -0.93559856880435      1.41204473846894     -1.37876465298443
  H   -1.82898971125018      1.52570169410882      0.14766337698852
