14
Coordinates from ORCA-job run
  C   0.90525982342045     -0.09603820381702     -0.09674748818565
  C   -0.41425522266164     -0.03270009773090      0.28948023564401
  N   1.37935428364437      0.15891973132899     -1.43839254787367
  O   0.55496711280099      0.37098679220501     -2.32829625658964
  O   2.59917543632404      0.14154571580561     -1.59674379195084
  C   1.90375992896698     -0.40962333568449      0.86331597679354
  N   2.61106648871476     -0.67867266272251      1.76562122768311
  N   -0.74802595697259     -0.35667163627678      1.55845037538058
  H   -0.02794245395897     -0.50114104520146      2.25084286048235
  H   -1.66346015878371     -0.11870958474684      1.89744201513034
  C   -1.55946330056310      0.31697235951172     -0.61345874801262
  H   -2.48874115289413      0.36149562240076     -0.04241099706444
  H   -1.66120706790406     -0.42816505494864     -1.40199801968013
  H   -1.38948776013338      1.27180139987656     -1.10810484175694
