14
Coordinates from ORCA-job run
  C   0.90149925327070      0.12908596502346     -0.09421208000934
  C   -0.39994969586853     -0.08434598981597      0.29930602617705
  N   1.33458399706587      0.23098917637732     -1.46999492488432
  O   2.51524309116434      0.52711170995906     -1.64787401852746
  O   0.51732977533800      0.01753723013704     -2.36620955032280
  C   1.91462561471011      0.29225338792455      0.88750154128840
  N   2.63713944107723      0.40629503654403      1.81036387819515
  N   -0.67853143718263     -0.22751656568946      1.61430830061604
  H   -1.63495130201260     -0.17238606987365      1.91743096147561
  H   0.03027607644078     -0.03113659944499      2.30567397825303
  C   -1.56588898027072     -0.23898735032016     -0.63132182959558
  H   -1.63054207059813      0.60091937775235     -1.32085770807213
  H   -2.49386079215353     -0.31666157983644     -0.06163390111653
  H   -1.44697297098090     -1.13415772873712     -1.24148067347710
