14
Coordinates from ORCA-job run
  C   0.85058946129432     -0.10292212571308     -0.24162255722517
  C   -0.47117738423905     -0.04110957224622      0.15176172452603
  N   1.61295982120912     -1.32953414296747     -0.27934247257759
  O   1.04592619771364     -2.38351216627936      0.04412859723335
  O   2.78635761952909     -1.25779735540925     -0.63343035412266
  C   1.56952695536317      1.05958783277919     -0.63181907911216
  N   2.11770761367592      2.05203940882876     -0.94655087973117
  N   -1.20196504776862     -1.09716615405333      0.52974034512337
  H   -2.15885097674169     -0.96909440076590      0.80805508255820
  H   -0.78387561764090     -2.01479559563160      0.54334723855936
  C   -1.19374537792099      1.27623975920794      0.15970418397455
  H   -0.54182392889650      2.10747334497164     -0.09697373809163
  H   -1.61469163637448      1.45686095065186      1.15248360705730
  H   -2.01693769920303      1.24473021662681     -0.55948169817177
