14
Coordinates from ORCA-job run
  C   0.84370369502428     -0.10251298251555     -0.23727729865816
  C   -0.44516631119160      0.05395516168094      0.22604537762448
  N   1.96357553337555     -0.41737297458572      0.62583526066786
  O   1.80356051644499     -0.32851680504693      1.85094478058730
  O   3.01090908919009     -0.75591006606770      0.08493766036219
  C   1.18050907034031      0.04313010381905     -1.60919481232604
  N   1.42054649333831      0.17231055380937     -2.75354931895240
  N   -0.80774033279198     -0.07166590036793      1.51140925692613
  H   -1.74664298690171      0.16700555476807      1.78043127993041
  H   -0.08971961504783     -0.12677486852924      2.21801571222607
  C   -1.56323973943253      0.29589945570512     -0.74697467465812
  H   -2.19761738117899     -0.59192562363822     -0.80513055243075
  H   -2.17539654685674      1.13407653390067     -0.40073457192990
  H   -1.19728148431215      0.52730185706805     -1.74475809936907
