14
Coordinates from ORCA-job run
  C   0.90533594620263     -0.02308985062027     -0.13243030851280
  C   -0.39441564944205      0.04122305683486      0.31532066203093
  N   1.28941957456479     -0.09682158871507     -1.52454134351174
  O   0.41331605435649     -0.01702690815382     -2.38632586476574
  O   2.49092285915117     -0.23255699821816     -1.75051680295464
  C   1.97129541152053     -0.04616286071711      0.80562027085006
  N   2.74009013427864     -0.05779424849550      1.69768904851034
  N   -0.63195807018092      0.17314697372151      1.63937588064762
  H   -1.56168781710788      0.01295137677003      1.98509194430459
  H   0.12379218875442      0.07434778015934      2.30119071518616
  C   -1.60890142326579      0.03954144873422     -0.56461102411525
  H   -1.61669108795065      0.92369281408823     -1.20157937398875
  H   -1.60784601268095     -0.82231323663180     -1.22985046947485
  H   -2.51467210820041      0.03086224124354      0.04456666579409
