14
Coordinates from ORCA-job run
  C   0.90832657638812      0.02654037415342     -0.11142043810583
  C   -0.40108408424676     -0.04387739224506      0.30632247413481
  N   1.32345699294625      0.10697114084612     -1.49422937940754
  O   2.52863884217346      0.25276120643486     -1.69255396320979
  O   0.46752669002038      0.02479465179072     -2.37583279489896
  C   1.95282435131920      0.05022097211535      0.85067606887260
  N   2.70281882035921      0.05893643982520      1.75851059765942
  N   -0.66857977483388     -0.17722886060973      1.62441192549725
  H   -1.60715886564511     -0.02355247828819      1.94836817712741
  H   0.07114903238802     -0.07745916464214      2.30376491479161
  C   -1.59497201023212     -0.04530873869490     -0.60133086795818
  H   -1.58304786132873     -0.92709904392681     -1.24149273507458
  H   -2.51454415073964     -0.04382957258552     -0.01311935888011
  H   -1.58335455856838      0.81913046582668     -1.26307462054813
