14
Coordinates from ORCA-job run
  C   0.90772317909260      0.00680228280290     -0.11833475678020
  C   -0.39996147495237     -0.01941934453545      0.31055985652661
  N   1.31506614472359      0.01108808953518     -1.50575543373307
  O   2.52398889285530      0.09509561864878     -1.71697429506756
  O   0.44978810756556     -0.06876405295782     -2.37831872141390
  C   1.95908452922364      0.05139500788926      0.83537772426240
  N   2.71377410924446      0.08554804278823      1.73883016759110
  N   -0.66025354220740     -0.08184429690724      1.63492985522303
  H   0.08563802497545      0.03570030558367      2.30456488486953
  H   -1.59482752323466      0.09622753638668      1.95784991966960
  C   -1.60009953666413     -0.04475618596636     -0.58850958673218
  H   -1.58642575845004      0.79528453475741     -1.28106286392827
  H   -2.51570162980438     -0.01485121279807      0.00510823920333
  H   -1.59879352236760     -0.94850632522717     -1.19726498969042
