14
Coordinates from ORCA-job run
  C   0.90568334231479     -0.00693275407197     -0.13188131242992
  C   -0.39554421397228     -0.02144101865960      0.31609078085637
  N   1.29165796880467      0.02253749569942     -1.52514599880612
  O   0.41344741574656     -0.05155823461661     -2.38533039542753
  O   2.49661557259987      0.11799106229713     -1.75361110504727
  C   1.97210895542170      0.00306623443757      0.80576834530740
  N   2.74221836458914      0.00917430699563      1.69668095859341
  N   -0.63737390189137     -0.11227423858630      1.64273498675817
  H   -1.56259666663676      0.08117377826177      1.98350896873223
  H   0.12068976256845     -0.01990099127303      2.30288774156904
  C   -1.60902295738512     -0.00474663845042     -0.56502601176518
  H   -2.51451123774279      0.04295327984798      0.04288757802858
  H   -1.58353324451885      0.84249923145224     -1.24838299759483
  H   -1.64183915989798     -0.90154151333380     -1.18318153877436
