17

C	-0.445967	0.145254	-1.464899
C	0.0	0.0	0.0
Br	-2.402868	0.515151	-1.531582
H	1.092849	0.0	0.0
C	0.30522	1.206426	-2.25998
H	1.375534	1.029552	-2.10923
H	0.050345	1.122733	-3.318082
H	0.061919	2.201728	-1.897608
C	-0.279417	-1.155441	-2.113907
N	-0.142517	-2.147181	-2.730698
N	-0.492417	-1.186759	0.598171
H	-1.398655	-1.034279	1.020754
H	0.159652	-1.496257	1.307064
N	-0.399504	1.256309	0.772181
O	0.08006	2.32435	0.407481
O	-1.173448	1.122267	1.720344
Cl	3.244332	0.0	0.0
