17

C	-0.374756	0.051925	-1.504344
C	0.0	0.0	0.0
Br	-2.332872	0.342487	-1.718831
H	1.092888	0.0	0.0
C	0.392681	1.091514	-2.310887
H	0.195004	0.956993	-3.375888
H	0.106439	2.095708	-2.005813
H	1.457662	0.949818	-2.09638
C	-0.132591	-1.283607	-2.048878
N	0.060341	-2.355157	-2.493595
N	-0.467722	-1.112565	0.741486
H	-1.397212	-1.412945	0.485846
H	0.198033	-1.869061	0.681423
N	-0.474044	1.280796	0.644499
O	0.104235	2.313997	0.31308
O	-1.417241	1.219516	1.426542
Cl	3.262258	0.0	0.0
