17

C	-0.444299	0.14537	-1.466148
C	0.0	0.0	0.0
Br	-2.394198	0.55805	-1.536678
H	1.092834	0.0	0.0
C	0.3282	1.185486	-2.267381
H	1.394116	0.984765	-2.117686
H	0.069873	1.102508	-3.323973
H	0.110545	2.187987	-1.908956
C	-0.30959	-1.160709	-2.110088
N	-0.205811	-2.154988	-2.728298
N	-0.491487	-1.185276	0.598297
H	0.139147	-1.477852	1.332422
H	-1.417694	-1.047183	0.981534
N	-0.399581	1.258533	0.768954
O	-1.163781	1.125506	1.724854
O	0.069536	2.326928	0.39172
Cl	3.246971	0.0	0.0
