17

C	-0.377965	0.043132	-1.50415
C	0.0	0.0	0.0
Br	-2.331224	0.368757	-1.717228
H	1.100966	0.0	0.0
C	0.406032	1.059486	-2.323173
H	1.468417	0.89854	-2.112215
H	0.141984	2.070927	-2.023996
H	0.200413	0.920918	-3.38622
C	-0.16364	-1.301927	-2.036492
N	0.003141	-2.375167	-2.486716
N	-0.469856	-1.104664	0.75103
H	0.185963	-1.869606	0.687405
H	-1.408399	-1.393766	0.512691
N	-0.466606	1.287517	0.636956
O	-1.403947	1.234837	1.427489
O	0.111973	2.316576	0.292318
Cl	3.265242	0.0	0.0
