17

C	-0.604604	0.043973	-1.423961
C	0.0	0.0	0.0
Br	0.172104	-1.457018	-2.422597
H	1.089805	0.0	0.0
C	-2.120628	-0.135211	-1.399242
H	-2.353907	-1.077251	-0.903362
H	-2.584643	0.69222	-0.854551
H	-2.513731	-0.154887	-2.416271
C	-0.273304	1.252995	-2.174063
N	-0.137594	2.223532	-2.823765
N	-0.456459	-1.149633	0.710853
H	0.29924	-1.479848	1.29692
H	-1.255861	-0.916499	1.286007
N	-0.435978	1.29379	0.685481
O	-1.360871	1.231294	1.504046
O	0.144176	2.322677	0.358578
Cl	3.261094	0.0	0.0
