16

C	-0.524383	0.064556	-1.452494
C	0.0	0.0	0.0
Cl	-2.306021	0.074435	-1.47842
H	1.094357	0.0	0.0
C	-0.048845	1.294045	-2.07335
N	0.288323	2.309937	-2.55981
N	-0.00967	-1.113274	-2.320479
O	-0.760053	-2.054436	-2.511406
O	1.13702	-0.971398	-2.713092
N	-0.475228	-1.31345	0.577256
O	-1.379559	-1.291476	1.40828
O	0.089427	-2.319082	0.14609
N	-0.400066	1.086329	0.804605
H	-1.333346	1.435122	0.653449
H	0.307012	1.808953	0.819576
Br	3.345236	0.0	0.0
