12

C	-0.439559	-0.073818	-1.464642
C	0.0	0.0	0.0
Br	-0.083178	1.585219	-2.432112
H	1.095109	0.0	0.0
H	-1.509645	-0.256674	-1.582054
H	0.136547	-0.849806	-1.971385
C	-0.480906	-1.235964	0.622869
N	-0.885127	-2.235968	1.091906
N	-0.429237	1.155895	0.770401
H	0.337695	1.81936	0.742002
H	-1.247237	1.593509	0.364087
H	2.736318	0.0	0.0
