12

C	-0.379472	0.076469	-1.451819
C	0.0	0.0	0.0
Br	-2.32297	0.194963	-1.757155
H	1.097082	0.0	0.0
H	0.045905	0.987279	-1.869123
H	-0.036843	-0.798956	-2.00262
C	-0.464846	-1.236667	0.628493
N	-0.82198	-2.223485	1.160055
N	-0.375292	1.207773	0.725374
H	-1.26488	1.099325	1.195275
H	0.349853	1.381978	1.414345
H	2.71027	0.0	0.0
