12

C	-0.379449	0.046962	-1.453092
C	0.0	0.0	0.0
Br	-2.322597	0.154707	-1.762556
H	1.097039	0.0	0.0
H	-0.034392	-0.837932	-1.987101
H	0.043768	0.949807	-1.888418
C	-0.465834	-1.222708	0.654591
N	-0.836429	-2.186662	1.21809
N	-0.376668	1.22051	0.703061
H	-1.264524	1.116923	1.177169
H	0.348294	1.408475	1.387986
H	2.711631	0.0	0.0
