16

C	-0.429579	0.020185	-1.454955
C	0.0	0.0	0.0
Cl	-2.273571	-0.347238	-1.543861
H	1.092829	0.0	0.0
H	0.014826	-0.823406	-1.976061
N	-0.091691	1.231956	-2.081223
H	-0.241496	1.19386	-3.078797
H	-0.584903	2.02127	-1.689036
N	-0.389059	-1.324609	0.580455
O	-0.959197	-1.350117	1.671816
O	-0.089319	-2.320444	-0.075155
C	-0.505884	1.149644	0.83849
H	-1.594465	1.22522	0.82132
H	-0.053499	2.072167	0.469423
H	-0.179467	1.020488	1.868688
Br	3.482013	0.0	0.0
