16

C	0.0	0.0	0.0
C	-0.374497	-0.136469	-1.531929
Br	1.929635	0.0	0.0
H	0.552947	-0.400396	-2.039878
C	-0.507024	1.193477	0.654591
N	-0.567248	2.239323	1.204256
N	-0.318264	-1.213936	0.87106
O	-0.590317	-1.004344	2.048948
O	-0.125059	-2.312887	0.368318
N	-0.693195	1.223617	-1.969712
H	-0.792162	1.204896	-2.97984
H	-1.600011	1.449548	-1.566473
N	-1.310427	-1.197547	-1.875389
H	-1.439646	-1.153744	-2.882971
H	-2.176599	-0.946944	-1.394976
H	-2.17889	0.0	0.0
