18
Coordinates from ORCA-job run
  C   -0.79072251102718     -0.49378548793139      0.03751321679042
  C   0.43466392011380      0.43065973824548      0.20455121444415
  Cl  -0.27807392584976     -2.22550998466382      0.00276977509007
  H   0.00158456797848      1.43817522994974      0.27987589249441
  C   -1.58961323080352     -0.21804298658200     -1.23274452577787
  H   -1.87392826859281      0.83727234298337     -1.26588510784493
  H   -0.99392834997218     -0.45972487400032     -2.11226638309829
  H   -2.49329669556127     -0.82828905753870     -1.25005437979854
  C   -1.67022815391032     -0.33388976810828      1.19950926545474
  N   -2.38224955507468     -0.15341563307145      2.11667397357838
  C   1.36356126779598      0.39828876131125     -1.00643206363526
  H   2.22233432449478      1.04695798939938     -0.81875283491389
  H   1.74023740536713     -0.61146186223732     -1.18388657269028
  H   0.87853735088662      0.75482392984209     -1.91644516701398
  C   1.20425958041905      0.15191054518646      1.49330314374709
  H   0.55280955485068      0.16749442528909      2.36975691871883
  H   1.70050324293543     -0.81949572252327      1.44950195403850
  H   1.97154947594976      0.91703241444969      1.63301168041647
