18
Coordinates from ORCA-job run
  C   -0.73390199499954     -0.55657799046533     -0.34231799305545
  C   0.62664843626484      0.17074445968737     -0.34780561391761
  Cl  -0.74076216067373     -1.79157108288485     -1.66099609587455
  H   0.73896078069285      0.56047820289987     -1.36747561800696
  C   -1.91869536945681      0.37253303449309     -0.59091969654378
  H   -1.74520581425972      0.94296833807759     -1.50608292426439
  H   -2.83335244766894     -0.20953581389328     -0.70760201802827
  H   -2.04949452663925      1.05912232608055      0.24643581888440
  C   -0.91766509682343     -1.26551841793513      0.92637846564820
  N   -1.05733928350683     -1.78283959839025      1.97225223359776
  C   1.79093361248170     -0.76893354844057     -0.04450703576949
  H   1.72900263611672     -1.14424959874531      0.98067889786494
  H   1.81879940105671     -1.62160905435882     -0.72307405363717
  H   2.73400455338922     -0.22675060358633     -0.14581482622963
  C   0.62584712268371      1.34149198361641      0.63663558751422
  H   -0.08164146698771      2.12382478730417      0.35889897910836
  H   0.39250595318947      1.00232349049920      1.65052794992410
  H   1.62035566514076      1.79309908604163      0.66178794278530
