18
Coordinates from ORCA-job run
  C   -0.74875331803734     -0.72091108914971     -0.03623371144850
  C   0.69470188962940     -0.28912973218299      0.30912973295375
  Cl  -0.69782609459897     -2.34902295972321     -0.81981113090350
  H   1.12746744836331     -1.12921345279128      0.86488938697556
  C   -1.48502360267369      0.22827208944775     -0.97548347534901
  H   -0.96959523647851      0.27965597986674     -1.93435838023508
  H   -2.50029013099584     -0.13063798076931     -1.14759255041315
  H   -1.53839258309718      1.22718916556020     -0.53748316774543
  C   -1.51898172133469     -0.88574869302410      1.19962440127629
  N   -2.13127462823639     -0.97957848433278      2.19807003913473
  C   0.71128516785844      0.94210222271350      1.21643432639980
  H   1.74409897696025      1.17133224985533      1.48999440493201
  H   0.30653627818432      1.82143873544902      0.70868103363576
  H   0.14995851040028      0.78514868356423      2.13939311491684
  C   1.54173639168498     -0.04429996697209     -0.93730151602456
  H   1.49285643025554     -0.87772733302280     -1.63941990978813
  H   1.23432557217724      0.86862391480972     -1.45339172576755
  H   2.58617064993884      0.08350665070178     -0.64314087254981
