17

C	-0.462142	0.066048	-1.464355
C	0.0	0.0	0.0
Cl	-2.258043	0.357444	-1.511598
H	1.092585	0.0	0.0
C	0.250954	1.107101	-2.31736
H	-0.028398	2.110417	-2.006602
H	1.327234	0.978323	-2.170919
H	-0.010426	0.958392	-3.366528
C	-0.24762	-1.259591	-2.052458
N	-0.058521	-2.275284	-2.611537
N	-0.485248	-1.157913	0.656363
H	0.154968	-1.417554	1.394054
H	-1.404351	-1.002477	1.047039
N	-0.413023	1.28987	0.70672
O	0.046221	2.345769	0.281738
O	-1.176144	1.194323	1.667231
Cl	3.246371	0.0	0.0
