17

C	-0.466436	0.078604	-1.462881
C	0.0	0.0	0.0
Cl	-2.25082	0.435801	-1.505906
H	1.092563	0.0	0.0
C	0.282	1.093347	-2.316929
H	0.006135	0.961707	-3.364583
H	1.352745	0.919723	-2.178521
H	0.047788	2.103983	-1.996118
C	-0.306152	-1.253282	-2.052787
N	-0.169764	-2.277376	-2.611783
N	-0.491638	-1.155427	0.654672
H	-1.421324	-1.002368	1.021802
H	0.131798	-1.403244	1.412437
N	-0.400227	1.293453	0.71425
O	-1.154791	1.199859	1.681302
O	0.066349	2.345707	0.290018
Cl	3.249246	0.0	0.0
