17

C	-0.495687	-0.01893	-1.456857
C	0.0	0.0	0.0
Cl	-0.106001	1.535999	-2.265594
H	1.090917	0.0	0.0
C	0.221	-1.147167	-2.190725
H	-0.06925	-1.150834	-3.242569
H	1.296878	-0.991169	-2.090751
H	-0.050965	-2.094086	-1.724316
C	-1.949212	-0.198679	-1.526908
N	-3.105157	-0.396796	-1.597809
N	-0.489354	-1.157039	0.675414
H	-1.439441	-1.010295	0.999238
H	0.120661	-1.37612	1.452833
N	-0.479655	1.277219	0.671319
O	0.320461	2.187863	0.843052
O	-1.666145	1.298826	1.01194
Cl	3.330622	0.0	0.0
