17

C	-0.385885	0.04887	-1.501339
C	0.0	0.0	0.0
Cl	-2.181732	0.247204	-1.676419
H	1.092047	0.0	0.0
C	0.329315	1.133959	-2.294254
H	-0.009678	2.117349	-1.974273
H	1.401069	1.046147	-2.092253
H	0.127461	1.004574	-3.359203
C	-0.067601	-1.26956	-2.060771
N	0.158632	-2.326505	-2.524225
N	-0.470358	-1.112316	0.73922
H	-1.396297	-1.421743	0.477236
H	0.204477	-1.862878	0.701288
N	-0.483007	1.277935	0.643326
O	-1.46985	1.219756	1.372146
O	0.131166	2.305281	0.367685
Cl	3.262466	0.0	0.0
