17

C	-0.38655	0.047261	-1.499924
C	0.0	0.0	0.0
Cl	-2.182413	0.262219	-1.676139
H	1.092032	0.0	0.0
C	0.343227	1.117245	-2.299325
H	0.020029	2.106779	-1.983354
H	1.413758	1.014512	-2.096836
H	0.139691	0.98666	-3.363882
C	-0.087794	-1.277087	-2.052443
N	0.124837	-2.338267	-2.509865
N	-0.470604	-1.110462	0.743166
H	0.204232	-1.859672	0.707245
H	-1.393689	-1.422378	0.479159
N	-0.481373	1.282435	0.637108
O	0.126664	2.310836	0.343951
O	-1.45938	1.225677	1.37771
Cl	3.266433	0.0	0.0
