17

C	-0.526389	0.010303	-1.457526
C	0.0	0.0	0.0
Cl	0.285086	-1.338677	-2.313376
H	1.089688	0.0	0.0
C	-2.032368	-0.210457	-1.547461
H	-2.269966	-1.169135	-1.086737
H	-2.340127	-0.230922	-2.593919
H	-2.563394	0.591388	-1.030348
C	-0.178071	1.247615	-2.15914
N	-0.010817	2.244888	-2.757906
N	-0.495561	-1.124338	0.715369
H	0.185631	-1.393927	1.411343
H	-1.376127	-0.903054	1.161698
N	-0.451964	1.313672	0.632001
O	0.263748	2.297056	0.484317
O	-1.535886	1.309436	1.229541
Cl	3.298574	0.0	0.0
