14
Coordinates from ORCA-job run
  C   0.49468065608157      0.71841181727160     -0.02981038030993
  C   -0.79301336677491     -0.11577087347537      0.12999317050879
  H   0.25490817724658      1.51300890392687     -0.75768514949066
  H   -1.57864409699298      0.53696064664948      0.53593221338248
  N   1.56545427040333     -0.16959735025070     -0.43719120411624
  H   2.41456596082393      0.34962390728099     -0.62142369848790
  H   1.26818522822568     -0.63894785923601     -1.28529076410978
  C   0.82535051844479      1.37949408081548      1.23840606123587
  N   1.07437804508699      1.93239183542443      2.24335985590898
  C   -0.58011477978740     -1.20084251603534      1.09341831866195
  N   -0.47814669789235     -2.08169537396788      1.86207397263714
  N   -1.12256140873029     -0.67662074367319     -1.18360248904445
  H   -1.68870324512372     -0.01449503839345     -1.70078144169749
  H   -1.65633926101123     -1.53092143633690     -1.08539846507873
