14
Coordinates from ORCA-job run
  C   0.62865776257012      0.23248963599443     -0.24797961819250
  C   -0.67425079848454     -0.42071801795283      0.28961064647641
  H   0.76148855593255     -0.09333436706283     -1.28528287140621
  H   -0.73076135494540     -0.19589926520716      1.36182210778495
  N   1.76472597782634     -0.22798996797303      0.52600036290118
  H   1.78697483309762      0.22451459957986      1.43233277247915
  H   2.63555664894400     -0.02521348015628      0.05175300805848
  C   0.43581917768409      1.69723027322934     -0.25193040384842
  N   0.28170338895732      2.86083282394383     -0.19196941680782
  C   -0.54365723711241     -1.87635272720637      0.14402058502984
  N   -0.45934320992324     -3.03455565409638     -0.02433973135273
  N   -1.91360124853386      0.01665058817552     -0.32147948773050
  H   -1.91296047414549     -0.16376265408646     -1.31775355427234
  H   -2.06035202186710      1.00610821281836     -0.16480439911947
