14
Coordinates from ORCA-job run
  C   0.34880363324905      0.71693062061866     -0.14413497146703
  C   -0.84873687016125     -0.20604073613604      0.18179188901045
  H   -0.04195343501920      1.50653805992565     -0.79568470072065
  H   -1.63192472790737      0.44111357388042      0.60037881779936
  N   1.35389343146141     -0.00620389147486     -0.89360498419525
  H   2.11920954493084      0.61036966494296     -1.13627686178083
  H   1.72598256057022     -0.77521826193307     -0.34453980238906
  C   0.82884749159815      1.36298158176960      1.09435264750244
  N   1.23655140583649      1.88271525145657      2.06722054959998
  C   -0.46149901078999     -1.16993985802038      1.22732889055085
  N   -0.15884985538847     -1.94321364641767      2.05682766789426
  N   -1.26608931743475     -0.91732854641517     -1.01735222153628
  H   -2.26740921155209     -1.04511937122964     -1.04312827295439
  H   -0.93782563939302     -0.45658444096702     -1.85317864731385
