14
Coordinates from ORCA-job run
  C   0.66255385372475      0.31285507655952     -0.25942550252390
  C   -0.61137996211998     -0.44088931551306      0.17196853672558
  H   0.80425225458748      0.10788764324833     -1.32407777549793
  H   -0.70565320378431     -0.34012216597462      1.26571413261552
  N   1.80681073345518     -0.18444914453392      0.48113006494814
  H   2.67103276918245      0.08890017714038      0.03115632940682
  H   1.81390858139093      0.18730310289090      1.42340987340668
  C   0.41644056548538      1.76084755839159     -0.10061959069663
  N   0.22879792611882      2.90422582948509      0.09560708068639
  C   -0.42926723390474     -1.86572562060270     -0.12212866005765
  N   -0.33259236455172     -3.00803204018021     -0.37247979334529
  N   -1.75112257218494      0.07184263348200     -0.58068641594696
  H   -2.03633051967056      0.96727949594093     -0.20081361980866
  H   -2.53645082772873     -0.56292323033423     -0.50775465991213
