13
Coordinates from ORCA-job run
  C   -0.67910942431417      0.64065998557453     -0.23909421507161
  C   0.61348827352022     -0.14545303999722     -0.37390518742014
  Cl  -1.12497787247666      1.32636357200480     -1.79528223689706
  H   0.49600901064247     -0.95193477900710     -1.09904760364461
  H   -0.61717688803233      1.43115432477498      0.50443967895378
  N   -1.78132509970664     -0.28863769546386      0.21563667816758
  O   -2.70777153567529      0.24029781683246      0.81239931039108
  O   -1.66097985425444     -1.47449386513553     -0.07322214233388
  N   0.94798115629848     -0.82083384903302      0.94663165097154
  O   0.46404327559933     -0.32181564878234      1.95618177636991
  O   1.69264660319151     -1.78552588146652      0.87398424137073
  C   1.72953141007228      0.72200314640856     -0.72707229790416
  N   2.62664094513524      1.42821591329027     -1.00264965295318
