13
Coordinates from ORCA-job run
  C   -0.83665507757135      0.17562801306801     -0.63286083841976
  C   0.67896490967265      0.10458350184406     -0.46179959626445
  Cl  -1.42397373018135     -0.97234130750842     -1.81255653835189
  H   1.12388338371734     -0.08465690309263     -1.44396595562484
  H   -1.10763838717108      1.17841300227607     -0.97079764812068
  N   -1.53531249993530      0.02624090245245      0.71757031250248
  O   -2.63495466958041     -0.49312254878755      0.74580013778126
  O   -0.92006923870599      0.52873400999863      1.64998863310903
  N   1.11681099468676     -1.09108907918648      0.37872277348076
  O   2.29811343544383     -1.10154896329540      0.68928705271960
  O   0.27548815062771     -1.94616069669762      0.61242894957208
  C   1.25743282325251      1.32617715881503      0.08273727657659
  N   1.70790990574469      2.34814291011386      0.44544544103984
