13
Coordinates from ORCA-job run
  C   -0.78444710464012     -0.16851176841349     -0.44559284032443
  C   0.63348706626969      0.11978350053179      0.03640241901136
  Cl  -1.39094945264532     -1.67679384160062      0.17301433612946
  H   0.95674931290796      1.06930943133731     -0.39971422454997
  H   -0.80000555885256     -0.17586504337633     -1.53451548228284
  N   -1.63635322638147      1.02713452225083     -0.02784242842816
  O   -2.55298122474008      0.86933691286254      0.75912505310523
  O   -1.27639260954927      2.07368512305036     -0.55808285756912
  N   1.55517048379736     -0.93291367300632     -0.56083512105685
  O   1.48226461297635     -1.03120077737862     -1.77924395580023
  O   2.28124316636174     -1.56031229706595      0.19460934176644
  C   0.73709334019985      0.15513094124211      1.48613608711969
  N   0.79712119429586      0.23221696956639      2.65653967287940
