13
Coordinates from ORCA-job run
  C   -0.75720684625300      0.22704344183493     -0.71406546493822
  C   0.73721747479321      0.11648618949147     -0.40118086644848
  Cl  -1.24564073666802     -1.04514103358895     -1.80621921517902
  H   1.27856583874940      0.08822116627061     -1.34909813438645
  H   -0.95330300127543      1.19711319902852     -1.17024015832985
  N   -1.58226428900633      0.22512040073286      0.57052778802842
  O   -1.49524822598380      1.27863575873182      1.19053902362218
  O   -2.22342987359711     -0.76783163446390      0.86509239170511
  N   1.02903919545778     -1.21034493836897      0.27252874139798
  O   1.67286854876183     -2.02052288835802     -0.38125020889091
  O   0.58164671319899     -1.34378398141086      1.40483889847472
  C   1.24213826318459      1.19603210147281      0.43708946040730
  N   1.71461693863789      2.05697221862768      1.08143774453721
