13
Coordinates from ORCA-job run
  C   -0.79265422051571      0.28588074502110     -0.62278577191820
  C   0.70605483758145      0.03224597760203     -0.44916203959929
  Cl  -1.60714902933756     -0.81559898613180     -1.71720260563598
  H   1.14852864909913     -0.01545441486502     -1.44944648458996
  H   -0.92319305644882      1.29430578133563     -1.01659913437125
  N   -1.50372213002869      0.28732940357369      0.71258442580101
  O   -2.51963436935757      0.96658169392685      0.76764655931296
  O   -1.01291519400689     -0.39651462949819      1.60407091692536
  N   1.07030942578673     -1.30053096477228      0.19947623740322
  O   1.81238254202913     -1.26489085511642      1.16764002551787
  O   0.62192806349062     -2.28834605368681     -0.36121358224229
  C   1.28956703975862      1.13459826337758      0.30558287407099
  N   1.71049744194953      2.08039403923364      0.86040857932555
