13
Coordinates from ORCA-job run
  C   -0.79738078451713     -0.23415011865186     -0.39006611459995
  C   0.63122335974663      0.13908761863029     -0.00736067668966
  Cl  -1.32951575402331     -1.68492929035286      0.40850780064697
  H   0.90695063601734      1.04490931785230     -0.55482939344585
  H   -0.86155863283636     -0.35570421437323     -1.47038099496791
  N   -1.66553902087363      0.97638540249288     -0.05633576177647
  O   -2.54343406604666      0.87630078991907      0.78246537285351
  O   -1.35931976762107      1.97227008304552     -0.70473084420548
  N   1.55809856700559     -0.94693053263294     -0.53183978496953
  O   2.34152461620297     -1.46389238806109      0.24959179463014
  O   1.43225085536123     -1.18157750075302     -1.72711494466934
  C   0.79352707850791      0.32984789240659      1.42493726823739
  N   0.89317291307649      0.52838294047835      2.57815627895619
