13
Coordinates from ORCA-job run
  C   -0.78289422454360      0.17804350519618     -0.69864072703128
  C   0.72078015334130      0.17179226191883     -0.41132408746775
  Cl  -1.19827608777867     -1.11384026682194     -1.79758094140298
  H   1.24643369697181      0.18898785361460     -1.36833470810185
  H   -1.05624988791212      1.13639694398852     -1.13952481867006
  N   -1.58243187340726      0.10238407534819      0.59981970475718
  O   -1.56158158494628      1.15271636743088      1.23089900802379
  O   -2.14317897323184     -0.93819433497845      0.89419387894214
  N   1.11691174055699     -1.13571318650879      0.24656917662925
  O   1.79875513607497     -1.89744080054614     -0.42653598795438
  O   0.70601150411537     -1.30445066522739      1.38808236414736
  C   1.16174883454769      1.27908666675342      0.42680722942760
  N   1.57597156621165      2.18123157983209      1.05456990870099
