13
Coordinates from ORCA-job run
  C   -0.75882310614047      0.20185268925645     -0.71840835537314
  C   0.73657660335224      0.13418240373352     -0.39726403226861
  Cl  -1.20724408949262     -1.08698799796059     -1.80777231256371
  H   1.28343504770856      0.11384086374730     -1.34223184662423
  H   -0.98039658972910      1.16463528363003     -1.17835186985346
  N   -1.58881400830297      0.18063870595490      0.56338725283993
  O   -1.53732722901250      1.23903405333355      1.17877689744989
  O   -2.19909654656581     -0.83083455390530      0.86060650772289
  N   1.06022798150989     -1.18017155182356      0.28660911905477
  O   0.61805533635847     -1.31486653177090      1.42085437311196
  O   1.72218849785774     -1.98027590751364     -0.36149838697313
  C   1.20677552928773      1.23349814980355      0.43513745176931
  N   1.64644257316886      2.12545439351469      1.06015520170751
