13
Coordinates from ORCA-job run
  C   -0.74163864148706      0.61401528064822     -0.01811656783479
  C   0.60879557137463      0.03282863513062     -0.39997166404334
  Cl  -1.29925047620924      1.70504902305792     -1.27913363075316
  H   0.52936803639344     -0.52777100583787     -1.33248931115816
  H   -0.72315583606469      1.13571912274549      0.93528352070790
  N   -1.74234914971568     -0.50900654905577      0.12758639207542
  O   -2.66892480854208     -0.29820330317176      0.89643652929338
  O   -1.55021370543054     -1.51245543985517     -0.55109639571016
  N   1.05786403624709     -0.97351495789500      0.64847075245842
  O   1.93284121466510     -1.74748565736893      0.29347170030159
  O   0.52397311747207     -0.89935634310517      1.74920934924037
  C   1.62901269665956      1.06775818036382     -0.49627736499670
  N   2.44467794463740      1.90942301434360     -0.57337330958078
