13
Coordinates from ORCA-job run
  C   -0.75845421962352     -0.13244512050470     -0.50056421231210
  C   0.63021484735462      0.12039096251012      0.07824646934175
  Cl  -1.37737900319894     -1.69546859305876     -0.05398503152958
  H   0.96435295488553      1.10751356457297     -0.25362988884211
  H   -0.71940249810766     -0.04024958367333     -1.58498355945319
  N   -1.64361829538559      1.01357215000509     -0.01817063849620
  O   -1.26827050307143      2.10741476316623     -0.42896140496634
  O   -2.59831411591722      0.77709800030392      0.70089637088108
  N   1.59369422842199     -0.86769186139882     -0.56043202417484
  O   1.58167250283185     -0.86225393728581     -1.78498160496716
  O   2.29381563735714     -1.54762606562992      0.17393423834456
  C   0.65548773038393      0.02507798590104      1.52885736428379
  N   0.64420073406929     -0.00633226490801      2.70277392189035
