13
Coordinates from ORCA-job run
  C   -0.75408209724726     -0.10582767109389     -0.51321117936370
  C   0.63244505096929      0.10274969704073      0.08772577814842
  Cl  -1.42064075736663     -1.65691677913390     -0.09415364380532
  H   0.99879096471098      1.08348536275989     -0.22885025905056
  H   -0.69749974112860     -0.00217267419629     -1.59579130968456
  N   -1.61495360297092      1.05759211898901     -0.02887877054990
  O   -2.58503603471967      0.83834904823386      0.67497834908677
  O   -1.20476383329465      2.14575882100262     -0.42124722408933
  N   1.57759063270817     -0.90556108797372     -0.54704276124933
  O   2.24982589649549     -1.60966598131678      0.19057233267235
  O   1.58100136071885     -0.89048006901812     -1.77148602329371
  C   0.63384078817281     -0.00710608450527      1.53757902704639
  N   0.60448137295214     -0.04920470078814      2.71080568413249
