13
Coordinates from ORCA-job run
  C   -0.83426279755500      0.13254413893581     -0.64575497548244
  C   0.68086567839204      0.11689479879379     -0.45603603301954
  Cl  -1.36822998422216     -1.06172301141296     -1.80531666819266
  H   1.14301062636959     -0.07886179797843     -1.42893836825481
  H   -1.13413853474066      1.11718344232776     -1.01155368076045
  N   -1.54391439752314     -0.00901297584536      0.69925307315823
  O   -0.95311591855090      0.52662239971411      1.62897474311235
  O   -2.63007541131432     -0.55627823954817      0.72418630092334
  N   1.14882065395917     -1.04345011110224      0.41640393845271
  O   2.32489419971065     -1.00485198318092      0.74394534061702
  O   0.33517208346279     -1.92330101576088      0.65606201842820
  C   1.21014173524446      1.37002689564579      0.06636830587903
  N   1.62183206676748      2.41420745941170      0.41140600513902
