13
Coordinates from ORCA-job run
  C   -0.77497121199105      0.19676372533413     -0.70213315525383
  C   0.72549042036622      0.17988026746656     -0.39896858732454
  Cl  -1.18175257003573     -1.06760589045612     -1.83594209714398
  H   1.26182144387211      0.21931384381620     -1.34936574534319
  H   -1.04129295913644      1.16606352019709     -1.12299834295476
  N   -1.58897413831753      0.09231123682860      0.58538717513782
  O   -1.57401682395617      1.12773815285430      1.24072618931403
  O   -2.15428793512384     -0.95401358513802      0.84908338774862
  N   1.11204103974439     -1.14441129516486      0.23049743736468
  O   0.68844311063588     -1.34085034427637      1.36284594855508
  O   1.80006837740636     -1.89029377341063     -0.45399574441678
  C   1.15906568133870      1.26534751949335      0.47078621022321
  N   1.56836556519710      2.15075662245577      1.12507732409364
