13
Coordinates from ORCA-job run
  C   -0.63503225077861      0.46537151463252     -0.55734670987324
  C   0.56698468148472     -0.40259159250248     -0.22643152757424
  Cl  -1.13271829459948      0.18538410065615     -2.21996725744849
  H   0.31877031353063     -1.45779146869983     -0.35003762189985
  H   -0.44563011627415      1.52486454592912     -0.40520036639654
  N   -1.77888304941625      0.09889685980909      0.35988451672971
  O   -2.58762338181027      0.98825417921760      0.58156428805154
  O   -1.80707791583531     -1.05518494591214      0.77435639366198
  N   0.94117785794490     -0.23410526974919      1.23780840549526
  O   0.54604544034483      0.78442312198522      1.79346984957620
  O   1.62559028888672     -1.12638846626019      1.71316970837807
  C   1.72667905596889     -0.03782598692245     -1.02906911734526
  N   2.66071737055338      0.26569340781659     -1.67320056135513
