13
Coordinates from ORCA-job run
  C   -0.77960224982513      0.52911153453394     -0.20670993878236
  C   0.59041890489322     -0.09085227400452     -0.42184673117724
  Cl  -1.45242137682534      1.03879174737623     -1.74880462668367
  H   0.51636287103768     -0.95805415318143     -1.07970494186198
  H   -0.75855936684380      1.37139801023559      0.48016209502528
  N   -1.69914436313682     -0.50118750086369      0.40759259671107
  O   -1.46498886280094     -1.67667669246955      0.14707309031554
  O   -2.61096773198488     -0.05895388344514      1.09110249837776
  N   1.13410998140381     -0.61761930400805      0.89714154497421
  O   0.65001211075962     -0.14603403075505      1.91964877092392
  O   2.02469957259767     -1.44780646073798      0.80673733063682
  C   1.54181186221504      0.88286236564006     -0.94055092177995
  N   2.30726864850988      1.67302064167959     -1.35184076667939
