13
Coordinates from ORCA-job run
  C   -0.76475404174037      0.19215448340685     -0.71504032538934
  C   0.73312672812969      0.12343331616808     -0.40679821552215
  Cl  -1.22881812176794     -1.11416122439364     -1.77683814398865
  H   1.27166622264985      0.08252920165196     -1.35586341520887
  H   -0.98674665396366      1.14743417190595     -1.19013343154427
  N   -1.58287061908286      0.19771067812140      0.57445275820713
  O   -2.19541955358077     -0.80512529701063      0.89531925949377
  O   -1.52046905506625      1.26667969871754      1.17044232006530
  N   1.05747628077606     -1.17918447910338      0.29900504471619
  O   1.70947182374475     -1.99454518257217     -0.34011072298734
  O   0.62599192424160     -1.29014986656955      1.43993303764839
  C   1.21617052985545      1.23582787543138      0.40066789346219
  N   1.66517453580447      2.13739662424622      1.00496394104765
