13
Coordinates from ORCA-job run
  C   -0.80785710336082      0.52532766415936      0.03364134264225
  C   0.62501328334348      0.18043052420524     -0.33435711184358
  Cl  -1.41249352390019      1.78115503848429     -1.03782944510740
  H   0.67766124222121     -0.17691293393056     -1.36385132165975
  H   -0.91321996514885      0.84431480749243      1.06740040808715
  N   -1.67110766701426     -0.70492773183767     -0.12492414598676
  O   -2.66618473908115     -0.75020499132614      0.58348258615555
  O   -1.31329026008767     -1.52723507404373     -0.96165798987943
  N   1.11970221159884     -0.97027354998308      0.52829330225587
  O   2.08806707798415     -1.57497033800779      0.09558839932737
  O   0.52159520937055     -1.16674677463536      1.57995485244063
  C   1.51738444587003      1.31255457199320     -0.12394825310639
  N   2.23272978820466      2.22648878742982      0.05620737667450
