13
Coordinates from ORCA-job run
  C   -0.79410996234805     -0.10780584485636     -0.44757834023059
  C   0.64082745632024      0.08130630776965      0.03404889663012
  Cl  -1.48232206144001     -1.60071727747684      0.12094634547693
  H   1.01652444125484      1.02444299174398     -0.37297284667298
  H   -0.81659639613058     -0.07470661642152     -1.53591403224420
  N   -1.57369618759338      1.11837355125807      0.02057926882203
  O   -2.49807525473011      0.98290975927658      0.80256556124339
  O   -1.15437676383235      2.16212816556076     -0.46995846731541
  N   1.49780025358240     -1.00210601007152     -0.60114752068247
  O   1.41182847449755     -1.06081578966286     -1.82132268217080
  O   2.19619809745961     -1.68783093763900      0.12952693625776
  C   0.74938684742801      0.06389053887810      1.48390974316187
  N   0.80761105553182      0.10093116164097      2.65631713772434
