13
Coordinates from ORCA-job run
  C   -0.80011776482824     -0.13979433996597     -0.42658703344300
  C   0.64107571671018      0.08835999888057      0.01766912164694
  Cl  -1.46756498040350     -1.59901521222845      0.24476502999903
  H   1.00366424338891      1.00594952237768     -0.45404861314670
  H   -0.84129586559268     -0.17478119503310     -1.51434389376089
  N   -1.58189107947914      1.10765822949398     -0.02185810693225
  O   -1.17047664186955      2.12414968239810     -0.57277837193275
  O   -2.50022587234041      1.01238326162601      0.77287744182803
  N   1.49412290288047     -1.02873732865364     -0.56297033568501
  O   1.39499131189022     -1.15743664963589     -1.77684775199960
  O   2.19934449704737     -1.67196167552427      0.19915375959728
  C   0.77485388776386      0.16262705712108      1.46366304177147
  N   0.85351964483251      0.27159864914390      2.63030571205742
