13
Coordinates from ORCA-job run
  C   -0.76646466433313      0.19931273377836     -0.71183510337232
  C   0.73152387552643      0.12718775465444     -0.40571764884487
  Cl  -1.23159093840203     -1.09758126239227     -1.78480029634328
  H   1.26887271930644      0.09803905207961     -1.35596908298378
  H   -0.98768529322004      1.15860274692410     -1.17909038692328
  N   -1.58360604675208      0.19436638648140      0.57788123509234
  O   -1.52175652769451      1.25875597433710      1.18181098920979
  O   -2.19565325954397     -0.81127248931796      0.89112880000237
  N   1.05803257659592     -1.18282933055864      0.28501160550262
  O   1.71713706474695     -1.98681279894248     -0.36093796710074
  O   0.62290827819357     -1.30897178660843      1.42290566902051
  C   1.21664875807236      1.23025740612948      0.41335130018290
  N   1.67163345750409      2.12294561343529      1.02626088655775
