12

C	0.0	0.0	0.0
C	-0.540123	0.378104	-1.360946
Cl	1.782365	0.0	0.0
H	-1.64156	0.352237	-1.278043
H	-0.34852	0.715542	0.742306
H	-0.169579	-0.267781	-2.154042
C	-0.421029	-1.354039	0.369175
N	-0.652645	-2.447048	0.730049
N	-0.146047	1.764165	-1.716751
O	-0.0753	2.592667	-0.811776
O	0.035036	2.002408	-2.910162
Cl	-3.413031	0.0	0.0
