12

C	0.0	0.0	0.0
C	-0.536471	0.215595	-1.397682
Cl	1.78223	0.0	0.0
H	-1.637771	0.196846	-1.316419
H	-0.348391	0.799708	0.6512
H	-0.160485	-0.516873	-2.108628
C	-0.422647	-1.302419	0.517387
N	-0.606315	-2.383842	0.936065
N	-0.145434	1.552132	-1.911532
O	-0.078815	2.480589	-1.109293
O	0.038622	1.649776	-3.123928
Cl	-3.403565	0.0	0.0
