18

C	-0.617338	-0.027538	-1.405619
C	0.0	0.0	0.0
Cl	0.121849	-1.253413	-2.46102
H	1.087985	0.0	0.0
C	-2.119576	-0.191088	-1.425912
H	-2.500253	-0.087727	-2.442022
H	-2.373692	-1.183361	-1.050944
H	-2.582884	0.570387	-0.798504
N	-0.248346	1.330008	-2.018673
O	-1.17422	2.092441	-2.289602
O	0.936659	1.558583	-2.187644
N	-0.483465	-1.233455	0.712455
O	-0.000289	-2.313666	0.384774
O	-1.363816	-1.107106	1.578172
N	-0.424951	1.198682	0.660716
H	0.359213	1.517347	1.214616
H	-1.220542	1.028668	1.261711
F	2.524598	0.0	0.0
