18

C	-0.342976	0.172748	-1.483765
C	0.0	0.0	0.0
Cl	-2.072519	0.605788	-1.729331
H	1.09134	0.0	0.0
C	0.566106	1.24527	-2.048939
H	1.573833	1.012529	-1.691257
H	0.516138	1.264166	-3.138634
H	0.251848	2.21427	-1.661133
N	-0.083291	-1.125703	-2.256302
O	-1.019728	-1.879826	-2.493509
O	1.086621	-1.312028	-2.568361
N	-0.596963	-1.265536	0.533579
O	-1.526359	-1.197465	1.336903
O	-0.101363	-2.316697	0.121999
N	-0.358761	1.1092	0.812379
H	-1.177215	1.621265	0.519559
H	0.451929	1.698127	0.928661
F	2.567284	0.0	0.0
