18

C	-0.386124	-0.024955	-1.48104
C	0.0	0.0	0.0
Cl	-2.106916	0.422285	-1.732639
H	1.095185	0.0	0.0
C	0.532703	0.939633	-2.199588
H	1.548278	0.713327	-1.861806
H	0.268394	1.946954	-1.881763
H	0.428775	0.846485	-3.282301
N	-0.195873	-1.424672	-2.072103
O	-1.147978	-2.196225	-2.078453
O	0.930366	-1.67607	-2.484209
N	-0.520308	-1.204223	0.733748
O	-1.362879	-1.034444	1.621701
O	-0.042338	-2.295244	0.430882
N	-0.41595	1.232719	0.582352
H	-1.348281	1.156687	0.969106
H	0.238592	1.46049	1.319732
F	2.562801	0.0	0.0
