18

C	-0.356061	0.033974	-1.480396
C	0.0	0.0	0.0
Cl	0.302869	1.557582	-2.11348
H	1.094673	0.0	0.0
C	0.206896	-1.093278	-2.3224
H	-0.284489	-2.035741	-2.08767
H	0.077925	-0.85119	-3.379275
H	1.264716	-1.158802	-2.05862
N	-1.87499	0.073073	-1.691149
O	-2.540762	-0.509079	-0.836066
O	-2.330415	0.588687	-2.70445
N	-0.372539	-1.306689	0.659653
O	0.028217	-2.357239	0.159582
O	-0.9908	-1.25566	1.723239
N	-0.530152	1.117428	0.69919
H	-1.407503	0.884066	1.139259
H	0.131362	1.380561	1.413127
F	2.542194	0.0	0.0
