18

C	-0.485996	0.078874	-1.438646
C	0.0	0.0	0.0
Cl	-2.266165	0.293487	-1.50146
H	1.091591	0.0	0.0
C	0.221482	1.245277	-2.101274
H	-0.153148	2.166192	-1.662048
H	1.283781	1.135768	-1.867836
H	0.044196	1.241043	-3.179638
N	-0.123017	-1.176504	-2.24485
O	-1.007991	-1.914608	-2.657529
O	1.076972	-1.310791	-2.443952
N	-0.480763	-1.249292	0.67433
O	-0.301949	-2.314821	0.08799
O	-0.983944	-1.152893	1.796458
N	-0.374895	1.185942	0.704165
H	-1.240561	1.057332	1.211416
H	0.366809	1.384537	1.363562
F	2.531825	0.0	0.0
