18

C	-0.302656	0.03594	-1.497754
C	0.0	0.0	0.0
Cl	-2.033503	0.33657	-1.899528
H	1.092194	0.0	0.0
C	0.581737	1.099493	-2.096174
H	1.598319	0.881546	-1.746346
H	0.268659	2.055469	-1.685254
H	0.509832	1.100855	-3.181767
N	0.001533	-1.304941	-2.162443
O	0.625965	-1.293954	-3.218164
O	-0.447909	-2.307697	-1.618477
N	-0.569609	-1.196257	0.721811
O	0.184527	-2.108223	1.037572
O	-1.772894	-1.152985	1.003871
N	-0.462334	1.21523	0.599974
H	-1.42802	1.120733	0.890511
H	0.128749	1.420207	1.395465
F	2.59526	0.0	0.0
