18

C	-0.274636	0.097673	-1.52077
C	0.0	0.0	0.0
Cl	-0.247687	1.836942	-1.981344
H	1.09195	0.0	0.0
C	0.780595	-0.607541	-2.341926
H	0.651082	-1.683471	-2.252621
H	1.735345	-0.32722	-1.879285
H	0.723273	-0.314555	-3.389471
N	-1.68927	-0.341784	-1.872806
O	-2.570855	-0.021212	-1.077298
O	-1.869298	-0.952976	-2.918217
N	-0.432049	-1.361981	0.47969
O	-0.510037	-1.55026	1.686319
O	-0.626821	-2.239007	-0.370895
N	-0.496216	0.997332	0.871451
H	-1.368362	1.398936	0.562813
H	0.209933	1.701785	1.017403
F	2.587141	0.0	0.0
