18

C	-0.299677	-0.077645	-1.501339
C	0.0	0.0	0.0
Br	0.124766	1.657417	-2.345136
H	1.091577	0.0	0.0
C	0.687634	-1.093922	-2.094318
H	0.393498	-2.104152	-1.795742
H	1.670266	-0.850892	-1.663079
H	0.68856	-1.040145	-3.184403
C	-1.681675	-0.398412	-1.850402
N	-2.766151	-0.758496	-2.129235
C	-0.488998	-1.223169	0.764592
H	0.04738	-2.106618	0.419192
H	-1.568192	-1.380751	0.665665
H	-0.236607	-1.084629	1.818008
N	-0.610612	1.181104	0.653031
O	-1.687269	1.598955	0.21977
O	-0.03935	1.633418	1.642687
F	2.60923	0.0	0.0
