18

C	-0.457712	0.099836	-1.462713
C	0.0	0.0	0.0
Br	0.007813	-1.614782	-2.359393
H	1.090342	0.0	0.0
C	-1.958966	0.304788	-1.659721
H	-2.211908	0.288083	-2.721
H	-2.510352	-0.490593	-1.154586
H	-2.241352	1.273259	-1.243806
C	0.288083	1.099688	-2.23314
N	0.796696	1.860724	-2.970512
C	-0.46554	-1.211066	0.779636
H	-0.073012	-1.125142	1.791351
H	-1.555243	-1.314246	0.836558
H	-0.037754	-2.107793	0.333833
N	-0.390841	1.239042	0.701781
O	-0.551506	1.197378	1.923234
O	-0.465498	2.287162	0.04959
F	2.497102	0.0	0.0
