18

C	-0.239889	0.143139	-1.511168
C	0.0	0.0	0.0
Br	-2.106157	0.748924	-1.927604
H	1.093426	0.0	0.0
C	0.780964	1.055455	-2.189167
H	0.755429	0.922065	-3.273126
H	1.746674	0.761502	-1.751833
H	0.582798	2.092796	-1.932568
C	-0.154314	-1.183575	-2.125996
N	-0.073323	-2.229066	-2.65851
C	-0.579222	-1.239542	0.635874
H	-0.089244	-2.11235	0.204132
H	-0.365227	-1.230689	1.704626
H	-1.662299	-1.318297	0.500454
N	-0.445629	1.225338	0.705038
O	-0.049959	2.312005	0.28288
O	-1.170029	1.104479	1.698758
F	2.577115	0.0	0.0
