18

C	-0.449946	0.0093	-1.469402
C	0.0	0.0	0.0
Br	0.074672	-1.732734	-2.271202
H	1.092455	0.0	0.0
C	-1.953132	0.157635	-1.696121
H	-2.188043	0.087836	-2.759917
H	-2.273302	1.131999	-1.324323
H	-2.486208	-0.633973	-1.166976
C	0.279398	0.994828	-2.273724
N	0.787357	1.741758	-3.025592
C	-0.465101	-1.167687	0.845327
H	-0.039241	-2.088581	0.450394
H	-1.556073	-1.264259	0.907931
H	-0.071959	-1.025592	1.850975
N	-0.399291	1.27261	0.632314
O	-0.583043	2.262874	-0.089986
O	-0.460679	1.318765	1.863646
F	2.494974	0.0	0.0
