16

C	0.0	0.0	0.0
C	-0.423421	-0.147697	-1.482219
F	1.362111	0.0	0.0
H	0.401101	0.273424	-2.059349
N	-0.29554	1.478299	0.410883
O	-0.474138	1.691527	1.603285
O	-0.209316	2.331261	-0.468708
N	-0.528026	-0.950715	0.837497
H	-1.57952	-0.77134	0.69087
H	-0.243991	-0.749434	1.788804
C	-1.664314	0.436836	-1.985156
N	-2.39609	0.915156	-2.772987
N	-0.37579	-1.626563	-1.797315
O	-1.425588	-2.246442	-1.875557
O	0.752635	-2.091913	-1.944504
F	-2.623499	0.0	0.0
