16

C	0.0	0.0	0.0
C	-0.340641	-0.141804	-1.512175
F	1.377443	0.0	0.0
H	-0.050716	0.774498	-2.020584
N	-0.412712	1.404797	0.458083
O	-0.584861	1.577899	1.652537
O	-0.416689	2.283642	-0.40097
N	-0.45345	-0.949753	0.911475
H	-0.190746	-1.86383	0.557891
H	-1.490148	-0.816592	0.839838
C	-1.682637	-0.541939	-1.935594
N	-2.449638	-0.94012	-2.739913
N	0.606137	-1.188686	-2.060531
O	0.504175	-2.330683	-1.615809
O	1.415998	-0.821085	-2.907569
F	-2.550139	0.0	0.0
