16

C	0.0	0.0	0.0
C	-0.3718	0.044674	-1.492623
F	1.39109	0.0	0.0
H	-0.029948	1.005556	-1.873718
N	-0.305224	1.406125	0.626927
O	-0.351736	2.387786	-0.105711
O	-0.384222	1.424786	1.849674
N	-0.502722	-1.057606	0.714579
H	-0.23742	-0.946806	1.686949
H	-1.546692	-0.904494	0.586247
C	-1.736638	-0.194442	-1.973878
N	-2.519581	-0.339107	-2.845242
N	0.521281	-0.967913	-2.18694
O	1.473383	-0.513121	-2.818448
O	0.233383	-2.152927	-2.075729
F	-2.61193	0.0	0.0
