16

C	0.0	0.0	0.0
C	-0.420828	-0.203175	-1.47638
F	1.362021	0.0	0.0
H	0.394618	0.213833	-2.068606
N	-0.297773	1.491825	0.35381
O	-0.221787	2.309589	-0.559303
O	-0.468862	1.750989	1.538038
N	-0.528831	-0.918998	0.871394
H	-0.248608	-0.680076	1.815372
H	-1.579854	-0.748521	0.716405
C	-1.674431	0.337592	-1.997961
N	-2.402861	0.785965	-2.806932
N	-0.344825	-1.691093	-1.740257
O	-1.381928	-2.336873	-1.771763
O	0.790403	-2.137522	-1.89396
F	-2.626116	0.0	0.0
