16

C	0.0	0.0	0.0
C	-0.64867	-0.010253	-1.381015
F	1.345933	0.0	0.0
H	-1.757759	0.188268	-1.080914
N	-0.229755	1.469056	0.634485
O	0.793911	2.039289	0.995461
O	-1.35881	1.900379	0.753576
N	-0.598899	-0.892685	0.901473
H	-0.403582	-1.844902	0.608579
H	-1.629857	-0.693242	0.766047
C	-0.5074	-1.333203	-1.965765
N	-0.406371	-2.429058	-2.37806
N	-0.058816	1.013659	-2.297067
O	-0.253212	2.187998	-1.992358
O	0.58064	0.630611	-3.277288
F	-2.887364	0.0	0.0
