19

C	-0.511926	0.000969	-1.413958
C	0.0	0.0	0.0
F	-0.136658	1.128777	-2.087591
H	1.094636	0.0	0.0
N	0.185399	-1.144821	-2.210415
O	1.164958	-0.888291	-2.890581
O	-0.335654	-2.25934	-2.094729
N	-1.926505	-0.110863	-1.551676
H	-2.173623	-0.141711	-2.534802
H	-2.229845	-0.972635	-1.119406
C	-0.42905	-1.2271	0.796355
H	-1.513614	-1.283715	0.971941
H	0.063621	-1.172051	1.770393
H	-0.099101	-2.1533	0.323959
C	-0.439303	1.282842	0.698873
H	-0.137014	2.157143	0.120762
H	-1.520504	1.330352	0.872624
H	0.081456	1.334697	1.658137
F	2.63481	0.0	0.0
