19

C	-0.512141	-0.016328	-1.406064
C	0.0	0.0	0.0
F	-1.891989	0.360086	-1.445433
H	1.092262	0.0	0.0
N	0.087951	1.085349	-2.296543
O	-0.198992	1.006081	-3.492687
O	0.750348	1.978577	-1.791122
N	-0.308483	-1.210187	-2.112326
H	-0.659652	-1.997236	-1.590158
H	-0.73815	-1.149439	-3.024863
C	-0.354709	-1.309708	0.707639
H	-1.421001	-1.571154	0.65224
H	-0.088084	-1.209022	1.762775
H	0.255704	-2.126708	0.315917
C	-0.5248	1.183346	0.804667
H	-1.57952	1.067311	1.081285
H	0.073795	1.254334	1.717054
H	-0.406488	2.125295	0.270802
F	2.631606	0.0	0.0
