19

C	-0.5091	-0.012975	-1.410839
C	0.0	0.0	0.0
F	0.002941	1.082508	-2.107128
H	1.092743	0.0	0.0
N	0.003548	-1.188207	-2.258544
O	0.724129	-2.03848	-1.758007
O	-0.382427	-1.179456	-3.431366
N	-1.920599	-0.078024	-1.546349
H	-2.33932	0.623154	-0.950075
H	-2.174867	0.086634	-2.512701
C	-0.51646	-1.162874	0.837283
H	-0.226128	-2.121815	0.408669
H	-0.052379	-1.097088	1.826332
H	-1.607154	-1.149273	0.962244
C	-0.364364	1.331754	0.66191
H	-1.429957	1.43122	0.921638
H	-0.066315	2.17288	0.033659
H	0.213328	1.402425	1.586535
F	2.640643	0.0	0.0
