19

C	-0.036468	0.01149	-1.524215
C	0.0	0.0	0.0
F	0.061308	-1.30613	-1.977784
H	1.098939	0.0	0.0
N	-1.349805	0.480078	-2.203687
O	-1.720391	-0.103078	-3.221683
O	-1.921368	1.449392	-1.713157
N	1.003324	0.820354	-2.006785
H	1.842633	0.616973	-1.409324
H	1.183438	0.614498	-2.982448
C	-0.631122	-1.226643	0.625648
H	-0.457272	-1.205835	1.706042
H	-0.194587	-2.144375	0.232382
H	-1.717116	-1.258913	0.464106
C	-0.425175	1.292873	0.682047
H	-0.002133	1.292518	1.692245
H	-1.51103	1.401639	0.755399
H	-0.028402	2.158852	0.152376
F	2.735072	0.0	0.0
