19

C	-0.068702	-0.028256	-1.5176
C	0.0	0.0	0.0
F	-0.113731	-1.370634	-1.98068
H	1.100014	0.0	0.0
N	-1.389059	0.466375	-2.144211
O	-1.347881	0.924023	-3.284931
O	-2.420847	0.30861	-1.493018
N	0.997835	0.693304	-2.030988
H	1.115291	0.570471	-3.025742
H	1.848616	0.492021	-1.453507
C	-0.592222	-1.200414	0.708565
H	-1.683525	-1.229684	0.624839
H	-0.182404	-2.128881	0.310165
H	-0.327512	-1.149096	1.769801
C	-0.460236	1.330781	0.580335
H	-1.551039	1.403178	0.64426
H	-0.082173	2.161335	-0.020381
H	-0.042811	1.439401	1.586201
F	2.744705	0.0	0.0
