12
Coordinates from ORCA-job run
  C   -0.35594088710153      0.09321756027019     -0.01682533845803
  C   0.88712659432396      0.11981932348977     -0.55042362878203
  H   1.07789623906248      0.70419320537922     -1.44256564047497
  N   -1.41145246802963      0.87292039174792     -0.64994898516789
  O   -2.51366839682693      0.85004016517945     -0.09293822277058
  O   -1.15821276174386      1.50954533418047     -1.67255946747106
  N   -0.64502793117866     -0.65802013099739      1.13856457772446
  H   -1.12806832718418     -0.08458131544884      1.81996337010366
  H   -1.25762680374947     -1.43620095698281      0.92103136832485
  N   1.91003237148768     -0.62863145327331     -0.05647253940664
  H   2.84758421762803     -0.33052993562984     -0.26053422318409
  H   1.74635815331211     -1.01277218791481      0.86270872956232
