12
Coordinates from ORCA-job run
  C   -0.34380146543118      0.10919364031643     -0.07327335397600
  C   0.98484206543827      0.36312887667266     -0.05000893369943
  H   1.35069898075718      1.35044971176958     -0.30515170644325
  N   -1.26082927158011      1.18530302167451     -0.42709919284652
  O   -0.80577797741789      2.28751928089660     -0.73200268931360
  O   -2.46436719217080      0.91113839116409     -0.38247808638694
  N   -0.85645100451069     -1.16241727961898      0.24792511331202
  H   -1.25549322670088     -1.60890424877928     -0.57034452602750
  H   -1.60023104402225     -1.07946351462747      0.93080922872074
  N   1.90883501865870     -0.60209010213873      0.20817038805353
  H   2.80970996014272     -0.30579253555451      0.54028641440354
  H   1.53286515683692     -1.44706524177489      0.61316734420341
