12
Coordinates from ORCA-job run
  C   -0.42293739457084     -0.19173601040983      0.13494938107442
  C   0.91891334410435     -0.33987183158381      0.31645331907218
  H   1.21530152017150     -1.17566335162162      0.94564247774480
  N   -0.95989689720178      0.92170152136683     -0.59160336924370
  O   -0.17459205862223      1.73519590861593     -1.10454326441451
  O   -2.19001998266682      0.98855826694792     -0.71195972760173
  N   -1.38100397360270     -1.03003904114261      0.73672536741316
  H   -1.17752311612253     -2.00516810195765      0.57536841236423
  H   -2.30355399738168     -0.79917540431492      0.39683006401032
  N   1.95001647818628      0.34731429218056     -0.26407351185742
  H   2.82766046207397      0.30643993704055      0.22561137371053
  H   1.69863561563248      1.24144381487865     -0.65740052227229
