12
Coordinates from ORCA-job run
  C   -0.36510243480127     -0.25091035567543      0.17767719321327
  C   0.99666866032677     -0.31240945634492      0.16961856608457
  H   1.40650934440559     -1.18846125332901      0.66199498860291
  N   -1.06737483028757      0.84393423532421     -0.45647900584506
  O   -0.40646902657450      1.74570214339955     -0.99608812994811
  O   -2.30051390207301      0.81946231288770     -0.42987628155630
  N   -1.11976709490635     -1.26958041368698      0.79060778466425
  H   -1.75878607357764     -1.68839167920271      0.12527112165441
  H   -1.68604575578825     -0.89260555365558      1.54155108042762
  N   1.89539258325429      0.57592959351561     -0.30539471513954
  H   1.55405572070416      1.33153803280046     -0.87684806267980
  H   2.85043280931780      0.28379239396710     -0.40303453947822
