12
Coordinates from ORCA-job run
  C   -0.39213805870745     -0.20749776992902      0.17772614491693
  C   0.93105715979409     -0.50116348894517      0.02851151524097
  H   1.20834590948305     -1.49422291815237      0.36730773834566
  N   -0.92464609569221      1.07100006999186     -0.23965233731110
  O   -0.15167918111833      1.91010218821415     -0.72982796190416
  O   -2.13463567532996      1.25977011226325     -0.08898694196355
  N   -1.27253161315689     -1.15413161493952      0.73636625996819
  H   -2.02230073197930     -1.36764287251254      0.08929420384577
  H   -1.70634341361923     -0.78693152383007      1.57518775599219
  N   1.93487082840101      0.26925051512167     -0.43686411145330
  H   2.82514263195932     -0.15269962241235     -0.62443526177440
  H   1.70485823996590      1.15616692513009     -0.85362700390321
