12
Coordinates from ORCA-job run
  C   -0.35136497450769      0.10205946035639     -0.03792418979752
  C   0.96564394971292      0.34741830245763     -0.22706485416275
  H   1.27722846011181      1.21947804412332     -0.78936211408955
  N   -1.32833421338868      1.01833463053463     -0.61272059277983
  O   -0.93464034017311      2.00645808346509     -1.23202805117651
  O   -2.51580708212938      0.72347796437190     -0.44375516513508
  N   -0.79474720224225     -1.01760484139974      0.69166819053742
  H   -1.49564239535734     -1.52589915390920      0.16550550770727
  H   -1.22873629426041     -0.73378637932436      1.56299949945909
  N   1.93962967048700     -0.42140002102254      0.33135787728040
  H   1.62159513581782     -1.31032255643973      0.68914492142534
  H   2.84717528592930     -0.40921353321339     -0.09982102926828
