12
Coordinates from ORCA-job run
  C   -0.46403748151943     -0.14986008332462      0.09989126079320
  C   0.81622560854090     -0.55030923800085     -0.13046025450085
  H   1.04956982638702     -1.58081653958222      0.12767394126997
  N   -0.86789769140549      1.21828695035392     -0.08460563798960
  O   -1.97032010500958      1.54165790635778      0.36635126538251
  O   -0.08310819375168      2.00634987507941     -0.63463496162250
  N   -1.52431756299713     -0.99160199446763      0.47099748640304
  H   -2.04066772574893     -0.62737931863652      1.26039613219348
  H   -1.20900918567032     -1.93526785484150      0.64296302815200
  N   1.83416372270874      0.12362644754602     -0.75362852015424
  H   1.69526426111949      1.11706229345544     -0.85556631660946
  H   2.76413452734640     -0.17174844393924     -0.50937742331756
