12
Coordinates from ORCA-job run
  C   -0.39100169005716     -0.25247181093199      0.10609107642504
  C   0.95176235406971     -0.32299121743921      0.33039155761178
  H   1.25687636104290     -1.15400892410400      0.95824437734170
  N   -0.95971816996266      0.81056882969673     -0.69405020213980
  O   -2.18517255541610      0.82158544346274     -0.83622617598810
  O   -0.19946845437534      1.65534985395757     -1.19370048681520
  N   -1.25743906514140     -1.21002108728466      0.66730464382474
  H   -1.95728661401271     -0.76151279158017      1.24636902208088
  H   -1.75552808471902     -1.71119161313292     -0.05888008348695
  N   1.94723088701378      0.44887317815909     -0.15538371111013
  H   1.69458013548715      1.29877587071789     -0.63272145435827
  H   2.85616489607083      0.37604426847892      0.26356143661432
