12
Coordinates from ORCA-job run
  C   -0.38813379499069     -0.18652315090289      0.20470373751046
  C   0.89487136514318     -0.56242974851309     -0.06125076770847
  H   1.12651136658172     -1.58506288429812      0.21885995827848
  N   -0.86310483340248      1.13899577673652     -0.12929145533408
  O   -2.04319196856643      1.39895750122083      0.11992596708283
  O   -0.07426331392807      1.94422768738205     -0.64917922827757
  N   -1.28751781421259     -1.09411847929068      0.79656767956928
  H   -2.10330365869909     -1.22140691903862      0.20936099259843
  H   -1.62091471924498     -0.73725290070191      1.68448856254686
  N   1.91852902132441      0.16282652751719     -0.56126795934353
  H   2.73568875686946     -0.32454025841564     -0.88089894905252
  H   1.70782959312556      1.06632684830435     -0.95301853787019
