12
Coordinates from ORCA-job run
  C   -0.41512837052251     -0.12345540794604      0.22313429403654
  C   0.90595173010718     -0.44329910072163      0.14511142425774
  H   1.21873024918293     -1.30355633852852      0.73203738219954
  N   -0.95264073001391      1.00658999654816     -0.47873901027550
  O   -0.17915252443422      1.73896994171142     -1.11569910692948
  O   -2.17433641816911      1.19131871528560     -0.41346608488700
  N   -1.33525344759737     -0.77765931382026      1.06713404269078
  H   -2.27831095295087     -0.56241318073887      0.77222105279958
  H   -1.19098528639093     -1.77734611699587      1.06292232627446
  N   1.88304345648399      0.10212364336236     -0.64216027729777
  H   2.82823817914343     -0.07328669657285     -0.34806791692215
  H   1.68884411516139      1.02201385841650     -1.00442812594675
