12
Coordinates from ORCA-job run
  C   -0.38308087507058     -0.25030784567124      0.13803235761774
  C   0.93933840879842     -0.16427426504187      0.45752019185302
  H   1.24161685057649     -0.80247381814987      1.28174815012975
  N   -0.94664933428822      0.55056856183522     -0.92663702192557
  O   -2.15715842500641      0.44351812336428     -1.13929282530408
  O   -0.20283568679317      1.32579676197301     -1.54895273707711
  N   -1.23197390261698     -1.12412155665259      0.84321655219068
  H   -1.63957192858050     -1.80819601453143      0.21685429031778
  H   -2.00135543143326     -0.61634704672331      1.26301949088725
  N   1.92089930558476      0.55475460436416     -0.12587338374273
  H   2.79921884482313      0.64497000317955      0.35065460314993
  H   1.66155217400634      1.24511249205407     -0.81128966809666
