12
Coordinates from ORCA-job run
  C   -0.39452888175175     -0.26618480943778      0.03559423796450
  C   0.93332692537403     -0.38049747257720      0.32204026469016
  H   1.20604643700065     -1.31101801091406      0.80954781297945
  N   -0.92283073145939      0.92455227707695     -0.59434246093970
  O   -2.13852964296806      0.96700949525299     -0.80014526917043
  O   -0.14027387270141      1.84141098317743     -0.89146263130052
  N   -1.28631764821663     -1.30402679972522      0.36807027775124
  H   -2.02059128179912     -0.96106939398549      0.97606081579375
  H   -1.74004415229116     -1.66524622011797     -0.46283216710999
  N   1.95026460932516      0.46123947618870      0.03978669231695
  H   1.72049252954182      1.38293953376423     -0.29440836655712
  H   2.83398570994586      0.31189094129739      0.49109079358170
