12
Coordinates from ORCA-job run
  C   -0.35800367636105      0.07430495710994     -0.04155164781126
  C   0.93649775651897      0.37025405594577     -0.29992041713854
  H   1.18497596716789      1.26814775634748     -0.85290578448919
  N   -1.39542374307974      0.98796887189584     -0.50391576815241
  O   -2.55545372933642      0.69226206534603     -0.19988807697381
  O   -1.07405451759660      1.98803176954670     -1.14535422342016
  N   -0.72078860729873     -1.08470391960543      0.67062025594877
  H   -1.20329804287231     -1.74376622008443      0.06988611690641
  H   -1.35719240541126     -0.85117971662658      1.42350186930592
  N   1.95848431312773     -0.46140654715887      0.04066541196507
  H   2.87336866107979     -0.05734882796853      0.13829549012923
  H   1.71088802406172     -1.18256424474792      0.70256677372997
