12
Coordinates from ORCA-job run
  C   -0.40026172670176      0.22274385414338      0.02876535390069
  C   0.85975829903082      0.15153356659904     -0.44936940561522
  H   1.15011973047557      0.80058576433853     -1.26522595935795
  N   -1.37638759086778      1.02806750204042     -0.69817175254608
  O   -0.98978250827266      1.76732973968477     -1.60173856056597
  O   -2.55418936868847      0.86480796504083     -0.37344066426568
  N   -0.88192262073072     -0.32975237782409      1.20820985618136
  H   -1.67695564855281     -0.94285596435730      1.11947814707926
  H   -0.16208380560467     -0.67223951009215      1.82342474103045
  N   1.85144889011914     -0.62605961746437      0.13894205894759
  H   1.52068660240636     -1.50394378422699      0.51494813024676
  H   2.65956974738697     -0.76121713788204     -0.44682194503520
