12
Coordinates from ORCA-job run
  C   -0.35319293610397      0.10353039721961     -0.00123434127642
  C   0.95609864855229      0.41097899800805      0.14455811011074
  H   1.25526367025434      1.44153771477068      0.29359441172234
  N   -1.33708031994444      1.17837718967190      0.03153469955466
  O   -2.51234621081865      0.84569244009617     -0.15191930237114
  O   -0.95922150406549      2.33418624066573      0.22180271297449
  N   -0.78141689262231     -1.22425995876162     -0.19111686559428
  H   -1.40753085379583     -1.28222257349906     -0.98551389116934
  H   -1.29721569450996     -1.55781059392911      0.61565035876869
  N   1.92901836346974     -0.53934902249615      0.19097485090168
  H   2.86580087677722     -0.25784026908905     -0.03906478387406
  H   1.64082285280709     -1.45282056265714     -0.12826595974736
