12
Coordinates from ORCA-job run
  C   -0.35678784354215      0.03038461997927     -0.08457051887473
  C   0.93987206843024      0.28853991878792     -0.37106801629004
  H   1.19012096853200      0.92566833304389     -1.21084307858149
  N   -1.39471446334974      0.63463020785804     -0.91038267488538
  O   -1.06942429211914      1.33642996025062     -1.86765229262140
  O   -2.56045238802083      0.40385772479998     -0.57372542632823
  N   -0.72209030303286     -0.79562207706458      0.99559163991802
  H   -1.42030055392605     -0.33716405910663      1.56897847314149
  H   -1.13339634005541     -1.66210290379319      0.66667644785621
  N   1.96764786085072     -0.28680021146081      0.31053264660994
  H   2.85700806584473      0.18058462619614      0.29172510554909
  H   1.70351722038850     -0.71940613949066      1.18373769450651
