12
Coordinates from ORCA-job run
  C   -0.39802067555612     -0.21944256841341      0.16039927340502
  C   0.88556073766462     -0.55781479028809     -0.14055392640471
  H   1.16031588276291     -1.56148151940737      0.16840486240472
  N   -0.90767072645048      1.10749432079903     -0.14072926465848
  O   -0.18528634302916      1.88885778259770     -0.77648915072570
  O   -2.05172352543578      1.37486159936464      0.23402660886426
  N   -1.24830588843326     -1.12317276059914      0.81967949352567
  H   -2.15244344016250     -1.15997064299634      0.36788767939266
  H   -1.39816149040317     -0.86225968313884      1.78599564753610
  N   1.83463647657462      0.14111021087482     -0.80984911173798
  H   2.78932534642915     -0.14987800190574     -0.69011366540838
  H   1.67077364603918      1.12069605311273     -0.97765844619319
