12
Coordinates from ORCA-job run
  C   -0.35163908350810      0.09497011574132      0.05430915025008
  C   0.96013957384889      0.42532010004238      0.03471434443295
  H   1.26033727836698      1.45415777214404      0.19328472350129
  N   -1.33920259997048      1.14435044171871      0.27262438179410
  O   -0.95799155586430      2.29830227917812      0.46745919819095
  O   -2.52300511533887      0.79409620099332      0.23200668950987
  N   -0.77981910967278     -1.23157424624317     -0.14421717579399
  H   -1.17577664605815     -1.61618863940607      0.70638260285110
  H   -1.50741077893021     -1.26506227787665     -0.84850271036314
  N   1.94581370706129     -0.50332031230785     -0.10038245559242
  H   1.63112788175649     -1.40638425703711     -0.42433960564131
  H   2.83642644830926     -0.18866717694705     -0.44333914313948
