12
Coordinates from ORCA-job run
  C   -0.35491505085710      0.09593959758331     -0.01065051305995
  C   0.89227486835019      0.16485247895668     -0.53017796666103
  H   1.09304812839583      0.82323070578876     -1.36683519960575
  N   -1.40503773669143      0.92698590538084     -0.58594916499884
  O   -2.51312546576510      0.85532360067902     -0.04498020302177
  O   -1.14144919603004      1.65039594740163     -1.54619960545835
  N   -0.65576037994914     -0.75251158665370      1.07203026556766
  H   -1.15287886447575     -0.24153117020731      1.79189964784274
  H   -1.25967923977151     -1.51293402236239      0.77999014811819
  N   1.91051399656408     -0.62636098102963     -0.09378604605456
  H   2.84872503913588     -0.30435640787524     -0.25544195273014
  H   1.73728390109408     -1.08103406766196      0.79110059006178
