12
Coordinates from ORCA-job run
  C   -0.38807012379697     -0.21827613776042      0.17204667861643
  C   0.93500370504441     -0.49603586181299     -0.00241048637806
  H   1.24309503238360     -1.46259099590660      0.38321758643742
  N   -0.95163771107112      1.04010493400803     -0.26727753265041
  O   -2.15198635517667      1.23007244365300     -0.05471954912505
  O   -0.21084983523511      1.86456536036459     -0.82643483610433
  N   -1.23378648818617     -1.15033134810471      0.80408408911865
  H   -1.67709673932775     -0.73486305463005      1.61485685338522
  H   -1.97828351391260     -1.43752669255774      0.17952465683534
  N   1.89052455687261      0.22530774549256     -0.62646994532187
  H   2.84996971466638     -0.03761307228775     -0.49499422661245
  H   1.67311775773940      1.17518667954207     -0.88042328820087
