12
Coordinates from ORCA-job run
  C   -0.38732776127068     -0.25688061605292      0.10980516591600
  C   0.96706162544396     -0.37729970335280      0.20510588359932
  H   1.30100939852023     -1.28007037047762      0.70648428676248
  N   -0.99209528953904      0.90254840545397     -0.51021295736545
  O   -0.25371532438515      1.78364719439940     -0.97880382063204
  O   -2.22441957541258      0.95558142761724     -0.53552015274998
  N   -1.22980087381007     -1.25483779047082      0.63631048372317
  H   -1.80436868022841     -1.65931953869270     -0.09375375516924
  H   -1.86310149333033     -0.86025125826273      1.32161431711997
  N   1.93881839189385      0.42594347372871     -0.27791870161822
  H   1.67054048508036      1.32948867668739     -0.63243674390475
  H   2.87739909703786      0.29045009942288      0.05032599431875
