12
Coordinates from ORCA-job run
  C   -0.41820236984381     -0.26462375214296      0.05457451600316
  C   0.91444749780051     -0.20478395030832      0.32395629806273
  H   1.28039814454285     -0.89715059648564      1.07873112077015
  N   -1.04911076275375      0.67795030523849     -0.83127106384867
  O   -2.28269689022585      0.70614251028146     -0.83033201400402
  O   -0.33587545298919      1.43898187088686     -1.50297094167719
  N   -1.30132610512926     -1.24378723850185      0.53507365694242
  H   -2.13057548265256     -0.84138490744040      0.95067537339944
  H   -0.84355693846699     -1.88050107121396      1.17085999760100
  N   1.89229222270948      0.52082671942603     -0.30560463315803
  H   2.71093954423158      0.71472584610472      0.24583351690565
  H   1.56226659277699      1.27360426415557     -0.88952582699664
