12
Coordinates from ORCA-job run
  C   -0.38497725720994     -0.26749612241554      0.08909689004957
  C   0.95653507612618     -0.31256848194651      0.32722976591758
  H   1.27617639862082     -1.16253880716618      0.92158687664179
  N   -0.97291602832463      0.81541120737040     -0.66964631257664
  O   -0.23014654480737      1.70170971889091     -1.12133385134485
  O   -2.19686404596759      0.80185075006757     -0.82423346709066
  N   -1.23197302610207     -1.27126708708860      0.59686259777074
  H   -1.95006972193198     -0.86674757995828      1.18604624109304
  H   -1.70934948321133     -1.75135169583977     -0.15707068952063
  N   1.93631119808318      0.50644679938130     -0.11068627751433
  H   2.84204619501816      0.43914053755658      0.31598219905920
  H   1.66622723970656      1.36941076114813     -0.55383397248481
