12
Coordinates from ORCA-job run
  C   -0.41805425854034      0.17402892545964     -0.07734526149286
  C   0.92345424441918      0.28153607849162     -0.17786575431589
  H   1.35739267324712      1.24174601296534     -0.42464253401312
  N   -1.21838117782331      1.39358040943395     -0.10810341070163
  O   -0.68186047498492      2.45504077965991     -0.42132275778215
  O   -2.39487539496807      1.27168460112458      0.23882472340785
  N   -1.16391037868695     -0.99609847372368     -0.02164620892716
  H   -0.63947997376922     -1.82628538954121     -0.24454870737721
  H   -1.77773275898820     -1.09483221225439      0.77163459149735
  N   1.78023367328246     -0.81168045268627     -0.10934908189618
  H   2.74517843900475     -0.56038691830172      0.03263989488708
  H   1.48803538780751     -1.52733336062777      0.54172450671392
