12
Coordinates from ORCA-job run
  C   -0.41741721769751      0.10785434850715     -0.01257776691491
  C   0.87019743928898      0.20912334474267     -0.40254413439724
  H   1.09968373696489      0.87170139354489     -1.22650974701402
  N   -1.40996617483382      0.88635021942540     -0.73792338059001
  O   -1.04020443484682      1.77156997236174     -1.50763954876014
  O   -2.58852241840634      0.58206489744409     -0.53071624878547
  N   -0.95670839793656     -0.62370872941686      1.05112679017552
  H   -0.31205793444989     -1.31664618577612      1.40167577261645
  H   -1.83641446247451     -1.05312294784096      0.79923564883535
  N   1.92817663480181     -0.52029351477213      0.12285776592567
  H   1.83331004247018     -0.81016830721688      1.08360071486610
  H   2.82992318711959     -0.10372449100299     -0.04158586595730
