14

C	-0.468634	-0.067999	-1.416554
C	0.0	0.0	0.0
Br	-2.414617	-0.213728	-1.618649
H	1.107504	0.0	0.0
H	-0.16951	0.821465	-1.958294
N	0.131922	-1.234676	-2.145479
O	0.594493	-0.986786	-3.256529
O	0.089828	-2.33281	-1.60633
C	-0.455001	-1.05279	0.878332
N	-0.766241	-1.919313	1.60952
N	-0.341667	1.325776	0.571706
O	-0.384872	2.283141	-0.202924
O	-0.477033	1.405338	1.789931
F	2.406665	0.0	0.0
