14

C	-0.265985	-0.127426	-1.469351
C	0.0	0.0	0.0
Br	-2.138832	-0.377114	-1.96995
H	1.089372	0.0	0.0
H	0.084933	0.76102	-1.981799
N	0.509281	-1.279245	-2.047501
O	1.101657	-1.050137	-3.098319
O	0.465658	-2.349886	-1.456555
C	-0.56277	-1.018571	0.850341
N	-1.006493	-1.848706	1.554745
N	-0.38342	1.34893	0.476657
O	-0.350167	2.272928	-0.337296
O	-0.632037	1.479185	1.673097
F	2.410608	0.0	0.0
