14

C	-0.26956	0.104747	-1.469704
C	0.0	0.0	0.0
Br	-2.152302	0.00773	-1.989275
H	1.095554	0.0	0.0
H	0.115874	1.046049	-1.844185
N	0.455503	-0.975406	-2.223383
O	1.038615	-0.615076	-3.241737
O	0.384763	-2.119233	-1.793692
C	-0.572922	-1.129533	0.687224
N	-1.024458	-2.050505	1.261978
N	-0.369666	1.264754	0.676823
O	-0.630298	1.213722	1.876698
O	-0.312152	2.302251	0.015213
F	2.409641	0.0	0.0
