14

C	-0.263951	0.028818	-1.47382
C	0.0	0.0	0.0
Br	-2.14187	-0.128543	-1.995816
H	1.097655	0.0	0.0
H	0.105593	0.957741	-1.892488
N	0.482596	-1.073623	-2.172803
O	0.474436	-2.185357	-1.661961
O	1.017078	-0.764073	-3.233903
C	-0.572675	-1.094692	0.741425
N	-1.025412	-1.98748	1.358637
N	-0.372146	1.296054	0.611661
O	-0.615455	1.306364	1.81603
O	-0.334735	2.297527	-0.103982
F	2.409091	0.0	0.0
