16

C	0.0	0.0	0.0
C	-0.441803	0.119235	-1.457048
Cl	1.81617	0.0	0.0
H	-0.133636	1.116155	-1.814592
H	-1.534992	0.094891	-1.417253
N	-0.470826	1.094383	0.810128
H	-1.481918	0.961478	0.89359
H	-0.327214	1.966078	0.309019
C	-0.448189	-1.310044	0.616249
H	-1.541229	-1.328639	0.613108
H	-0.081901	-1.369396	1.643051
H	-0.069389	-2.145641	0.02998
N	0.035743	-0.975981	-2.295359
H	-0.548597	-1.04166	-3.118846
H	0.985168	-0.790771	-2.592646
Cl	-3.781969	0.0	0.0
