16

C	0.0	0.0	0.0
C	-0.459725	0.043842	-1.452544
Cl	1.810738	0.0	0.0
H	-1.552686	0.014212	-1.40993
H	-0.154797	1.019195	-1.853871
N	-0.467417	1.210586	0.635935
H	-0.268105	1.149912	1.630195
H	-1.486544	1.18787	0.539286
C	-0.434728	-1.283061	0.689076
H	-0.065867	-1.296101	1.719669
H	-1.527197	-1.292026	0.694913
H	-0.059861	-2.156392	0.156374
N	0.019278	-1.101384	-2.222146
H	0.959206	-0.918117	-2.549611
H	-0.575862	-1.221978	-3.031975
Cl	-3.78257	0.0	0.0
