16

C	0.0	0.0	0.0
C	-0.42984	0.247714	-1.456195
Cl	1.811008	0.0	0.0
H	0.038496	-0.51051	-2.092368
H	-1.513107	0.099999	-1.47047
N	-0.467648	0.979754	0.945381
H	-0.292795	1.907659	0.574325
H	-1.482525	0.856954	0.992245
C	-0.446885	-1.376504	0.453076
H	-0.080018	-1.565733	1.463323
H	-0.059769	-2.144522	-0.219966
H	-1.539345	-1.398438	0.446097
N	-0.139915	1.56493	-2.006646
H	0.81091	1.835754	-1.782788
H	-0.774606	2.245047	-1.60903
Cl	-3.739225	0.0	0.0
