16

C	0.0	0.0	0.0
C	-0.425484	-0.104658	-1.47595
Cl	1.811756	0.0	0.0
H	-0.003221	0.763082	-1.997961
H	-1.514615	-0.006557	-1.47202
N	-0.476405	1.208241	0.621521
H	-1.49166	1.093543	0.693273
H	-0.310639	1.989253	-0.00761
C	-0.452305	-1.190409	0.822581
H	-1.543849	-1.237674	0.785972
H	-0.027252	-2.116737	0.432497
H	-0.124344	-1.058382	1.855135
N	-0.067607	-1.311458	-2.207135
H	0.901342	-1.545673	-2.024171
H	-0.643415	-2.076544	-1.88077
Cl	-3.734529	0.0	0.0
