15
Coordinates from ORCA-job run
  C   -0.89034948429491      0.21661981768928     -0.35250044905268
  C   0.63075382439428      0.06543195325251     -0.48932626654609
  Cl  -1.47078804731922      1.31800563565841     -1.64232979248494
  H   1.06563133872240      1.07175144756129     -0.47285917831195
  H   -1.36379612415357     -0.74846274559843     -0.55103575366864
  C   -1.31965415690141      0.75505404475501      0.99942582361523
  H   -1.09954306111028      0.03508691726989      1.78997030846322
  H   -2.39393994244896      0.94234516214098      1.00331756398752
  H   -0.80798134874772      1.69521265303558      1.21939279245445
  C   0.96248679565229     -0.53633426762494     -1.78431223496679
  N   1.24279615282153     -1.06262068525260     -2.79564862803982
  C   1.24264329804139     -0.77871400413954      0.63586757335091
  H   1.15708731697008     -0.26747723667280      1.59477936278783
  H   0.74474501524948     -1.74889411994134      0.70561335499550
  H   2.30090842312461     -0.95600457213329      0.43864552341623
