15
Coordinates from ORCA-job run
  C   -0.76200681849360      0.65771627913679     -0.36414342144909
  C   0.59437099682237      0.00541062354189     -0.68909527281605
  Cl  -0.49935391855663      2.40926012644714     -0.07695205792909
  H   1.04140788024954      0.57574735847002     -1.51089127958291
  H   -1.38734784761926      0.60602258381015     -1.25799641975141
  C   -1.48481553081327      0.04130523353773      0.81706251303009
  H   -1.62245388106134     -1.03095480270896      0.65301226720887
  H   -0.92922798146237      0.19264645157855      1.74314135241391
  H   -2.46711198619894      0.50073585319081      0.93439690167557
  C   0.33947628331725     -1.35065907957222     -1.18448298087175
  N   0.11438507953866     -2.44165725149266     -1.55641129407487
  C   1.57772199700967     -0.03377828085051      0.48369627446815
  H   1.72376904180800      0.96968152283831      0.88452888787068
  H   2.54277426734261     -0.41457224303696      0.14556478763202
  H   1.21841241811732     -0.68690437489008      1.27956974217587
