15
Coordinates from ORCA-job run
  C   -0.92761172723532      0.13494266799388     -0.28799303876006
  C   0.58259254289521      0.04996189973282     -0.54813329823375
  Cl  -1.68090260480181      1.08484287598347     -1.60837120634877
  H   0.95721147047644      1.07416512612255     -0.66155688254894
  H   -1.35845009128714     -0.86708944725488     -0.36007848589610
  C   -1.27027648994913      0.76989257276941      1.04671079348038
  H   -2.34949671338315      0.90122335711453      1.13176653255031
  H   -0.94096071660696      0.13621440661404      1.87239503281089
  H   -0.79832503879094      1.75112760238161      1.13882484313387
  C   0.83457707520249     -0.65224790650686     -1.81007741743681
  N   1.02201975183747     -1.24771958241424     -2.80429203940884
  C   1.33761189511484     -0.65165612716003      0.58790051219574
  H   2.38305106707470     -0.79561693433509      0.31105385153762
  H   1.30721742218040     -0.05541556742462      1.49994993334420
  H   0.90374215727290     -1.63362494361658      0.79190086958025
