15
Coordinates from ORCA-job run
  C   -0.93640181714804      0.11277594338512     -0.27725439262927
  C   0.57312099370468      0.07714648006007     -0.55150600258965
  Cl  -1.72905668470852      1.05832919683057     -1.57783153604375
  H   0.91627188229546      1.11419200486021     -0.64567987070706
  H   -1.33781720011294     -0.90063067159677     -0.36017976537268
  C   -1.28613227801896      0.71854289008490      1.06914991856160
  H   -0.93027173910164      0.08391269269595      1.88306181638528
  H   -2.36796554455412      0.81599561749807      1.16569691272983
  H   -0.84305969823831      1.71228910530230      1.17060930410807
  C   0.83768841736734     -0.59164081721633     -1.82896123998926
  N   1.07071301378533     -1.16763895803235     -2.82501701521910
  C   1.35773310848017     -0.62582523619635      0.56353072191147
  H   2.40468609754492     -0.73248199388088      0.27578852725885
  H   0.95470146612333     -1.62447387772905      0.74905298040187
  H   1.31678998258129     -0.05049237606547      1.48853964119381
