14

C	-0.494174	-0.004335	-1.447145
C	0.0	0.0	0.0
Br	0.23546	-1.529135	-2.451541
H	1.095682	0.0	0.0
H	-1.57948	-0.137507	-1.513608
C	-0.137409	1.21206	-2.171219
N	0.088755	2.195945	-2.772324
C	-0.425625	-1.249993	0.767451
H	-0.134062	-1.133351	1.812977
H	0.117744	-2.108599	0.371803
H	-1.50475	-1.445546	0.721405
C	-0.530173	1.192847	0.635342
N	-0.980507	2.147061	1.157898
F	2.524836	0.0	0.0
