14

C	-0.23642	-0.001544	-1.488686
C	0.0	0.0	0.0
Br	-2.162586	0.057007	-2.040037
H	1.098263	0.0	0.0
H	0.196459	0.89769	-1.929739
C	0.341254	-1.176014	-2.132668
N	0.775144	-2.123721	-2.675255
C	-0.485517	-1.245263	0.72626
H	-0.001462	-2.123114	0.29182
H	-0.179636	-1.187218	1.773216
H	-1.572707	-1.37016	0.680069
C	-0.499586	1.22166	0.592952
N	-0.892886	2.209035	1.098132
F	2.498377	0.0	0.0
