14

C	-0.494849	-0.01384	-1.447285
C	0.0	0.0	0.0
Br	0.233397	-1.545675	-2.441027
H	1.095679	0.0	0.0
H	-1.580542	-0.144793	-1.512544
C	-0.135196	1.196926	-2.179344
N	0.095928	2.175772	-2.786839
C	-0.424533	-1.244387	0.777117
H	0.117139	-2.105445	0.385572
H	-1.503316	-1.439635	0.735612
H	-0.129138	-1.120358	1.820667
C	-0.53032	1.197183	0.627123
N	-0.980501	2.153715	1.145751
F	2.524843	0.0	0.0
