14

C	-0.494403	-0.007476	-1.447087
C	0.0	0.0	0.0
Br	0.223162	-1.541421	-2.445613
H	1.095645	0.0	0.0
H	-1.580401	-0.132077	-1.513313
C	-0.125698	1.203016	-2.174738
N	0.116367	2.182512	-2.776745
C	-0.425647	-1.245492	0.774659
H	-0.117438	-1.128188	1.815304
H	0.104964	-2.109114	0.373002
H	-1.506544	-1.432502	0.744259
C	-0.528407	1.195653	0.6315
N	-0.976635	2.150173	1.155179
F	2.52574	0.0	0.0
