14

C	-0.316343	-0.041371	-1.490958
C	0.0	0.0	0.0
Br	0.176165	1.622185	-2.395356
H	1.095486	0.0	0.0
H	0.338405	-0.797899	-1.931144
C	-1.713075	-0.332258	-1.809493
N	-2.847295	-0.565827	-2.015221
C	-0.382463	-1.327956	0.655972
H	0.182219	-2.128973	0.17117
H	-0.067338	-1.304235	1.701185
H	-1.453553	-1.552924	0.610575
C	-0.611648	1.127021	0.668793
N	-1.122354	2.032961	1.220165
F	2.530737	0.0	0.0
