14

C	-0.30655	-0.067711	-1.492587
C	0.0	0.0	0.0
Br	0.174171	1.587594	-2.417816
H	1.095498	0.0	0.0
H	0.360159	-0.823737	-1.914832
C	-1.69467	-0.383483	-1.819111
N	-2.81122	-0.676028	-2.043829
C	-0.383684	-1.316444	0.679038
H	-0.076769	-1.269834	1.725796
H	-1.453345	-1.546939	0.630315
H	0.188102	-2.123631	0.21374
C	-0.614894	1.137567	0.647186
N	-1.128789	2.036821	1.206046
F	2.53173	0.0	0.0
