14

C	-0.307124	-0.023896	-1.49368
C	0.0	0.0	0.0
Br	0.175807	1.658218	-2.369784
H	1.095518	0.0	0.0
H	0.358323	-0.768574	-1.938448
C	-1.696058	-0.327865	-1.828744
N	-2.813159	-0.61296	-2.062108
C	-0.383682	-1.336792	0.638718
H	-0.078439	-1.321148	1.686522
H	0.189915	-2.128515	0.149895
H	-1.452717	-1.566635	0.581308
C	-0.615568	1.117182	0.681818
N	-1.127125	1.99863	1.270554
F	2.531874	0.0	0.0
