14

C	-0.309374	-0.030906	-1.493484
C	0.0	0.0	0.0
Br	0.168432	1.648071	-2.376582
H	1.095484	0.0	0.0
H	0.356975	-0.776085	-1.935225
C	-1.69677	-0.34095	-1.827963
N	-2.805431	-0.63675	-2.085728
C	-0.386776	-1.331864	0.646424
H	0.17205	-2.131239	0.152457
H	-0.067786	-1.31656	1.690558
H	-1.458856	-1.551479	0.602927
C	-0.612778	1.121619	0.676692
N	-1.121923	2.004856	1.264453
F	2.532814	0.0	0.0
