15

C	-0.376652	-0.018798	-1.48021
C	0.0	0.0	0.0
F	0.014202	-1.268315	-1.964722
H	1.09214	0.0	0.0
H	0.238453	0.727817	-1.98342
C	-1.849758	0.146744	-1.783042
H	-2.01849	0.058457	-2.85937
H	-2.422039	-0.634581	-1.276728
H	-2.19952	1.1261	-1.454533
C	-0.567631	-1.111022	0.729433
N	-1.008972	-2.048185	1.286009
N	-0.376167	1.276238	0.625304
O	-0.605281	1.302153	1.834553
O	-0.359187	2.277673	-0.098245
F	2.451836	0.0	0.0
