15

C	-0.357639	-0.079356	-1.485467
C	0.0	0.0	0.0
F	-0.074713	1.17555	-2.030093
H	1.091912	0.0	0.0
H	-1.427292	-0.245976	-1.648755
C	0.539944	-1.106413	-2.138371
H	0.465383	-1.029349	-3.225418
H	1.558399	-0.904711	-1.790818
H	0.250225	-2.116229	-1.834975
C	-0.537145	-1.147593	0.703924
N	-0.964121	-2.098758	1.24765
N	-0.615954	1.236584	0.577491
O	0.118126	2.041896	1.137645
O	-1.835044	1.3676	0.439802
F	2.548507	0.0	0.0
