15

C	-0.376584	-0.010562	-1.480725
C	0.0	0.0	0.0
F	0.004269	-1.260344	-1.971091
H	1.092117	0.0	0.0
H	0.24281	0.733741	-1.980993
C	-1.8485	0.166968	-1.779773
H	-2.189252	1.148711	-1.449883
H	-2.425601	-0.609598	-1.27261
H	-2.020984	0.080475	-2.855751
C	-0.570226	-1.114637	0.7213
N	-1.015835	-2.053929	1.270765
N	-0.377403	1.273825	0.630239
O	-0.341538	2.281267	-0.084698
O	-0.626629	1.290662	1.836579
F	2.452355	0.0	0.0
