15

C	-0.357483	-0.096458	-1.484934
C	0.0	0.0	0.0
F	-0.078938	1.153711	-2.042414
H	1.091909	0.0	0.0
H	-1.427176	-0.268822	-1.645496
C	0.544548	-1.127902	-2.127208
H	0.470688	-1.062325	-3.214975
H	0.257051	-2.136201	-1.814
H	1.562295	-0.918952	-1.780975
C	-0.539195	-1.137727	0.718161
N	-0.968506	-2.080553	1.27445
N	-0.613037	1.245274	0.562054
O	0.123922	2.057726	1.107148
O	-1.832203	1.375975	0.427492
F	2.548975	0.0	0.0
