15

C	-0.355922	-0.097159	-1.484876
C	0.0	0.0	0.0
F	-0.072808	1.151387	-2.043853
H	1.092018	0.0	0.0
H	-1.425058	-0.266077	-1.647273
C	0.542731	-1.13113	-2.124958
H	0.469537	-1.065946	-3.212678
H	1.560683	-0.925133	-1.778791
H	0.253252	-2.138001	-1.811244
C	-0.537995	-1.138475	0.717544
N	-0.967004	-2.081663	1.27349
N	-0.615841	1.243763	0.562427
O	0.116751	2.050875	1.122014
O	-1.833263	1.37789	0.414668
F	2.548583	0.0	0.0
