18

C	0.0	0.0	0.0
C	-0.29237	0.099536	-1.553754
Cl	1.868214	0.0	0.0
H	0.596274	-0.304207	-2.043915
N	-0.303855	1.194753	0.732377
H	0.130101	1.929827	0.158096
H	0.168392	1.196985	1.614371
C	-0.247944	-1.383897	0.578632
H	-1.310125	-1.564373	0.646125
H	0.220838	-2.071607	-0.126338
H	0.271234	-1.50341	1.547677
N	-0.37438	1.528334	-1.876149
H	-1.184189	1.875618	-1.375276
H	-0.666674	1.496771	-2.841812
N	-1.386543	-0.63059	-2.145383
H	-2.151538	-0.707257	-1.437744
H	-1.041402	-1.508012	-2.513908
H	-2.658054	0.0	0.0
