18

C	0.0	0.0	0.0
C	-0.507159	-0.097958	-1.441757
Cl	1.799144	0.0	0.0
H	-1.592846	-0.227198	-1.292299
N	-0.528452	1.227129	0.548505
H	-1.557795	1.088661	0.468162
H	-0.314229	1.248796	1.541207
C	-0.426726	-1.234497	0.781283
H	-1.52352	-1.239357	0.772013
H	-0.033287	-2.140416	0.321619
H	-0.067558	-1.15763	1.813329
N	0.01535	-1.282374	-2.107905
H	-0.601675	-1.496888	-2.883204
H	0.910304	-1.014599	-2.505933
N	-0.193042	1.136759	-2.174205
H	-0.148839	1.880117	-1.48257
H	-0.987005	1.349415	-2.768497
H	-3.210105	0.0	0.0
