18

C	0.0	0.0	0.0
C	-0.468873	-0.020071	-1.45829
Cl	1.815344	0.0	0.0
H	-1.565247	-0.049589	-1.335081
N	-0.496506	1.150243	0.698696
H	-1.514274	0.968961	0.751461
H	-0.394327	1.936994	0.062564
C	-0.453176	-1.249462	0.72649
H	-0.142819	-1.180455	1.771395
H	-0.043017	-2.144765	0.263091
H	-1.549426	-1.257078	0.664785
N	-0.043128	-1.232533	-2.148779
H	-0.528043	-1.289605	-3.036973
H	0.953504	-1.180211	-2.334743
N	-0.127534	1.250678	-2.103978
H	-0.731867	1.387029	-2.906185
H	0.833895	1.21845	-2.424759
H	-3.241048	0.0	0.0
