18

C	0.0	0.0	0.0
C	-0.507462	0.0036	-1.429555
Cl	1.900466	0.0	0.0
H	-1.604411	-0.008188	-1.271888
N	-0.432902	1.168371	0.625194
H	-0.138884	1.254333	1.583971
H	-0.270894	1.988989	0.061141
C	-0.453807	-1.221402	0.758281
H	-0.078078	-2.131903	0.296876
H	-1.553729	-1.187132	0.717922
H	-0.118739	-1.167924	1.798799
N	-0.109094	-1.213237	-2.119943
H	-0.623203	-1.281367	-2.990763
H	0.883374	-1.172446	-2.331622
N	-0.15381	1.273846	-2.068738
H	0.797864	1.215162	-2.419682
H	-0.77815	1.435436	-2.850913
H	-3.558365	0.0	0.0
