18

C	0.0	0.0	0.0
C	-0.404929	-0.254074	-1.501692
Cl	1.794068	0.0	0.0
H	0.428785	0.136221	-2.092835
N	-0.460756	1.327918	0.36009
H	-0.161179	1.51417	1.313241
H	-1.484115	1.245032	0.381629
C	-0.471361	-1.074112	0.966233
H	-1.567325	-1.080202	0.927705
H	-0.0648	-2.051395	0.706413
H	-0.155053	-0.812144	1.981415
N	-1.603056	0.408647	-1.971852
H	-2.390924	0.20616	-1.323047
H	-1.450509	1.411119	-1.924886
N	-0.467738	-1.696107	-1.734206
H	-0.663583	-1.789798	-2.726699
H	-1.316682	-2.018254	-1.274284
H	-3.424943	0.0	0.0
