18

C	0.0	0.0	0.0
C	-0.326542	-0.280617	-1.512406
Cl	1.801717	0.0	0.0
H	0.364528	0.359375	-2.075079
N	-0.49225	1.267326	0.472839
H	-0.306427	1.976583	-0.229074
H	-1.511151	1.15858	0.530525
C	-0.498322	-1.091772	0.921699
H	-1.592819	-1.11714	0.853768
H	-0.211511	-0.849832	1.947449
H	-0.066496	-2.050989	0.638661
N	-1.669666	0.037228	-1.947229
H	-1.744127	1.032697	-2.11969
H	-2.388544	-0.142799	-1.208309
N	0.032683	-1.669512	-1.826784
H	0.123697	-1.710822	-2.837058
H	-0.795282	-2.222158	-1.622567
H	-3.490884	0.0	0.0
