14

C	-0.530264	0.010618	-1.442881
C	0.0	0.0	0.0
Br	0.093122	-1.541824	-2.456824
H	1.095682	0.0	0.0
H	-1.621095	-0.075977	-1.439571
C	-0.173961	1.219159	-2.179104
N	0.04412	2.200937	-2.787071
C	-0.469069	-1.228583	0.78229
H	-0.132591	-1.139909	1.816384
H	-0.016724	-2.125504	0.360277
H	-1.559454	-1.328047	0.771591
C	-0.496941	1.214902	0.645212
N	-0.944309	2.161757	1.179139
Cl	3.28455	0.0	0.0
