14

C	-0.368907	-0.001436	-1.484479
C	0.0	0.0	0.0
Br	-2.310526	0.175436	-1.795956
H	1.098239	0.0	0.0
H	0.078557	0.865376	-1.974475
C	0.070136	-1.217785	-2.158776
N	0.39537	-2.195509	-2.723377
C	-0.489523	-1.223018	0.769448
H	-0.088803	-2.127553	0.30731
H	-1.580366	-1.278874	0.796847
H	-0.107799	-1.174685	1.790531
C	-0.459773	1.239724	0.617064
N	-0.843176	2.224432	1.130766
Cl	3.24808	0.0	0.0
