14

C	-0.433792	-0.020467	-1.469501
C	0.0	0.0	0.0
Br	0.166657	1.567993	-2.425326
H	1.095486	0.0	0.0
H	0.065903	-0.859794	-1.957826
C	-1.879611	-0.139779	-1.631965
N	-3.046	-0.234883	-1.726844
C	-0.457444	-1.281443	0.704915
H	-0.047831	-2.14886	0.181289
H	-0.055217	-1.289113	1.719217
H	-1.546571	-1.363324	0.750564
C	-0.515998	1.180613	0.684993
N	-0.960929	2.111153	1.248119
Cl	3.287207	0.0	0.0
