14

C	-0.531026	0.011228	-1.442582
C	0.0	0.0	0.0
Br	0.095721	-1.538848	-2.458645
H	1.095664	0.0	0.0
H	-1.621707	-0.077238	-1.438489
C	-0.177336	1.220292	-2.178344
N	0.039346	2.202232	-2.786112
C	-0.468332	-1.229322	0.781614
H	-1.558995	-1.327412	0.773602
H	-0.018115	-2.126154	0.356961
H	-0.128898	-1.142768	1.814954
C	-0.496994	1.213754	0.647343
N	-0.944763	2.158099	1.185318
Cl	3.28055	0.0	0.0
