14

C	-0.532326	0.005795	-1.442172
C	0.0	0.0	0.0
Br	0.105326	-1.539821	-2.457012
H	1.095717	0.0	0.0
H	-1.622072	-0.092066	-1.436336
C	-0.186858	1.215422	-2.180742
N	0.06243	2.174756	-2.811406
C	-0.46655	-1.2277	0.785235
H	-0.122552	-1.140246	1.81694
H	-1.557409	-1.324481	0.781833
H	-0.0192	-2.125624	0.359874
C	-0.497831	1.214689	0.644466
N	-0.94757	2.15922	1.180183
Cl	3.280407	0.0	0.0
