14

C	-0.43134	-0.01962	-1.47008
C	0.0	0.0	0.0
Br	0.12686	1.588504	-2.422377
H	1.095484	0.0	0.0
H	0.091699	-0.84381	-1.961379
C	-1.873368	-0.184195	-1.637317
N	-3.031262	-0.341535	-1.767107
C	-0.451122	-1.284692	0.703911
H	-0.039126	-2.149454	0.177749
H	-0.046647	-1.292852	1.717327
H	-1.539749	-1.371443	0.75178
C	-0.519005	1.175512	0.689714
N	-0.953079	2.092142	1.282418
Cl	3.282101	0.0	0.0
