14

C	-0.530393	0.019249	-1.442632
C	0.0	0.0	0.0
Br	0.095959	-1.524628	-2.469487
H	1.095613	0.0	0.0
H	-1.621055	-0.068264	-1.439423
C	-0.175818	1.232863	-2.170406
N	0.042012	2.218384	-2.771254
C	-0.468805	-1.232848	0.775991
H	-1.559362	-1.331065	0.766768
H	-0.130415	-1.150651	1.810022
H	-0.018006	-2.127766	0.347801
C	-0.496631	1.210979	0.65305
N	-0.943073	2.15289	1.196684
Cl	3.282735	0.0	0.0
