14

C	-0.439371	0.04063	-1.47384
C	0.0	0.0	0.0
Br	0.224157	-1.505515	-2.466284
H	1.095609	0.0	0.0
H	0.018992	0.904973	-1.958883
C	-1.890291	0.094698	-1.627573
N	-3.060489	0.138023	-1.728288
C	-0.52183	-1.205494	0.775613
H	-0.179873	-1.138198	1.809626
H	-1.614468	-1.254171	0.765885
H	-0.11234	-2.120492	0.347547
C	-0.463175	1.247404	0.610401
N	-0.869924	2.240275	1.09068
Cl	3.284198	0.0	0.0
