14

C	-0.526681	-0.01724	-1.440937
C	0.0	0.0	0.0
Br	0.117205	1.509124	-2.475158
H	1.095422	0.0	0.0
H	-1.616669	0.07735	-1.444791
C	-0.179322	-1.248041	-2.14301
N	0.033253	-2.255267	-2.709241
C	-0.460256	-1.25014	0.759895
H	-0.015313	-2.137444	0.306775
H	-1.550663	-1.349842	0.766981
H	-0.105272	-1.188762	1.789856
C	-0.498961	1.200394	0.665523
N	-0.962891	2.130798	1.213069
Cl	3.280769	0.0	0.0
