14

C	-0.527808	-0.021892	-1.439389
C	0.0	0.0	0.0
Br	0.122257	1.499521	-2.478986
H	1.095455	0.0	0.0
H	-1.617308	0.076918	-1.444834
C	-0.1765	-1.254346	-2.138016
N	0.051122	-2.260615	-2.699904
C	-0.460284	-1.249172	0.760044
H	-0.105516	-1.186454	1.790237
H	-0.014906	-2.136072	0.307059
H	-1.551295	-1.349568	0.767543
C	-0.494548	1.198494	0.671455
N	-0.954163	2.122164	1.233909
Cl	3.284638	0.0	0.0
