14

C	-0.444958	-0.002064	-1.47234
C	0.0	0.0	0.0
Br	0.233051	-1.564024	-2.432027
H	1.095589	0.0	0.0
H	-0.001795	0.856454	-1.981507
C	-1.897665	0.027926	-1.620397
N	-3.069455	0.057786	-1.70985
C	-0.514528	-1.186983	0.81029
H	-1.607448	-1.234375	0.814379
H	-0.110977	-2.112586	0.39887
H	-0.159571	-1.095365	1.83818
C	-0.464686	1.261147	0.577837
N	-0.869512	2.262628	1.041229
Cl	3.290697	0.0	0.0
