14

C	-0.526891	-0.012939	-1.441741
C	0.0	0.0	0.0
Br	0.12663	1.510143	-2.473299
H	1.095469	0.0	0.0
H	-1.616476	0.092039	-1.442031
C	-0.183555	-1.245483	-2.14385
N	0.068661	-2.241263	-2.715143
C	-0.461131	-1.25242	0.756128
H	-0.10569	-1.19488	1.785526
H	-0.016595	-2.138153	0.298903
H	-1.551291	-1.35135	0.763312
C	-0.502619	1.198432	0.671911
N	-0.957471	2.115886	1.247336
Cl	3.277999	0.0	0.0
