14

C	-0.348715	-0.04783	-1.485441
C	0.0	0.0	0.0
Br	-2.258094	-0.42286	-1.83104
H	1.098176	0.0	0.0
H	0.192788	-0.883619	-1.933723
C	-0.016472	1.180927	-2.195344
N	0.210963	2.176659	-2.776214
C	-0.41369	-1.265786	0.750796
H	-0.014125	-2.13975	0.230314
H	0.031607	-1.241558	1.746808
H	-1.497262	-1.360787	0.840641
C	-0.530115	1.196204	0.64019
N	-0.957245	2.145988	1.184243
Cl	3.235884	0.0	0.0
