14

C	-0.349468	-0.044856	-1.485238
C	0.0	0.0	0.0
Br	-2.257641	-0.423194	-1.830357
H	1.098151	0.0	0.0
H	0.193816	-0.877992	-1.935841
C	-0.02085	1.186098	-2.193037
N	0.206473	2.180336	-2.776547
C	-0.412956	-1.267214	0.748886
H	-1.496387	-1.362622	0.839329
H	-0.013377	-2.140121	0.226687
H	0.03304	-1.244338	1.744601
C	-0.531417	1.194158	0.642607
N	-0.967403	2.136451	1.192621
Cl	3.236263	0.0	0.0
