14

C	-0.364317	-0.033142	-1.481484
C	0.0	0.0	0.0
Br	-2.302616	-0.248839	-1.795753
H	1.098123	0.0	0.0
H	0.097368	-0.91702	-1.927128
C	0.072015	1.155119	-2.20493
N	0.406769	2.117011	-2.791737
C	-0.438963	-1.261551	0.741672
H	-0.037174	-2.138661	0.22793
H	-1.525449	-1.345616	0.806869
H	-0.017246	-1.244285	1.747641
C	-0.512901	1.203437	0.643524
N	-0.926307	2.157357	1.190742
Cl	3.258183	0.0	0.0
