14

C	-0.349212	-0.047599	-1.485278
C	0.0	0.0	0.0
Br	-2.257888	-0.425225	-1.830298
H	1.098173	0.0	0.0
H	0.193272	-0.882247	-1.934159
C	-0.018957	1.181511	-2.195281
N	0.206404	2.173611	-2.782674
C	-0.412745	-1.266108	0.750726
H	-0.012871	-2.1397	0.229903
H	0.033035	-1.24178	1.746494
H	-1.496155	-1.361832	0.841018
C	-0.530618	1.195621	0.640665
N	-0.959715	2.143667	1.18615
Cl	3.235834	0.0	0.0
