14

C	-0.440787	0.018794	-1.473716
C	0.0	0.0	0.0
Br	0.215225	-1.545076	-2.444036
H	1.095655	0.0	0.0
H	0.020414	0.873897	-1.971841
C	-1.891549	0.076414	-1.62731
N	-3.061789	0.12471	-1.725614
C	-0.520375	-1.194879	0.793936
H	-0.177824	-1.110533	1.826464
H	-1.613117	-1.245256	0.785343
H	-0.109409	-2.11548	0.379469
C	-0.46322	1.25528	0.592717
N	-0.869589	2.253277	1.062243
Cl	3.286682	0.0	0.0
