18

C	-0.249605	-0.074183	-1.513489
C	0.0	0.0	0.0
Br	-2.122176	-0.650423	-1.945764
H	1.093815	0.0	0.0
C	-0.164417	1.278286	-2.067616
N	-0.07591	2.343858	-2.557765
C	0.766059	-0.95363	-2.243613
H	0.563966	-2.001473	-2.044298
H	1.733978	-0.685826	-1.794229
H	0.738353	-0.759893	-3.318225
N	-0.428193	-1.25273	0.663303
O	-1.017742	-1.173288	1.7456
O	-0.142337	-2.323154	0.127347
C	-0.57148	1.210604	0.696743
H	-0.322081	1.168044	1.7561
H	-0.108828	2.105561	0.279575
H	-1.659891	1.279238	0.59864
F	2.567653	0.0	0.0
