18

C	-0.307516	0.065281	-1.496924
C	0.0	0.0	0.0
Br	0.255443	-1.607946	-2.379613
H	1.094388	0.0	0.0
C	-1.712891	0.282046	-1.832231
N	-2.824162	0.56308	-2.097014
C	0.588679	1.167562	-2.079697
H	0.216364	2.148021	-1.768389
H	1.590126	0.991748	-1.664291
H	0.588543	1.124429	-3.168759
N	-0.588327	-1.181039	0.670675
O	-1.516941	-1.782575	0.123457
O	-0.139051	-1.465677	1.780891
C	-0.4696	1.234964	0.759198
H	-1.534755	1.448182	0.61465
H	-0.273702	1.070172	1.819582
H	0.126217	2.094073	0.453307
F	2.588538	0.0	0.0
