18

C	-0.251146	-0.278719	-1.486538
C	0.0	0.0	0.0
Br	-2.136856	-0.865978	-1.84622
H	1.102195	0.0	0.0
C	-0.134263	0.982119	-2.221129
N	-0.022095	1.967459	-2.853189
C	0.744232	-1.268449	-2.092461
H	0.715866	-1.21911	-3.182325
H	0.525432	-2.277466	-1.754266
H	1.717874	-0.957133	-1.689535
N	-0.418777	-1.143716	0.84051
O	-0.244618	-2.285525	0.412921
O	-0.87735	-0.904205	1.961217
C	-0.564248	1.297837	0.527654
H	-0.126647	2.126563	-0.029295
H	-0.284203	1.412437	1.573316
H	-1.655722	1.342352	0.452214
F	2.559258	0.0	0.0
