18

C	-0.343318	-0.110333	-1.482156
C	0.0	0.0	0.0
Br	0.406639	-1.77079	-2.256047
H	1.108937	0.0	0.0
C	-1.77588	-0.111355	-1.772595
N	-2.927395	-0.027041	-2.000353
C	0.383909	1.033445	-2.194986
H	1.414141	1.008504	-1.824926
H	-0.08557	1.989197	-1.949722
H	0.351454	0.895954	-3.276141
N	-0.547254	-1.110406	0.810308
O	-1.263148	-1.962332	0.274399
O	-0.252292	-1.119153	2.006854
C	-0.45623	1.316365	0.618359
H	0.188822	2.120539	0.265973
H	-0.319898	1.244546	1.696803
H	-1.504612	1.555508	0.401657
F	2.55319	0.0	0.0
