14

C	-0.463377	-0.022494	-1.432515
C	0.0	0.0	0.0
F	0.019749	1.033288	-2.13214
H	1.099844	0.0	0.0
H	-0.379366	-0.899252	0.490671
N	0.052133	-1.295286	-2.109734
O	-0.34125	-2.34264	-1.605872
O	0.784092	-1.178813	-3.07903
C	-1.930063	-0.049505	-1.595942
N	-3.100098	-0.08886	-1.685685
N	-0.506677	1.240903	0.602844
H	0.311373	1.799167	0.816025
H	-0.965107	1.036772	1.481559
F	2.60151	0.0	0.0
