14

C	-0.478608	0.017145	-1.413793
C	0.0	0.0	0.0
F	-0.312451	-1.196688	-2.032527
H	1.09363	0.0	0.0
H	-0.398572	-0.903668	0.470627
N	-2.005613	0.251253	-1.462571
O	-2.667009	-0.474177	-0.726455
O	-2.459967	1.093234	-2.230488
C	0.153069	1.067399	-2.225271
N	0.67554	1.88792	-2.882633
N	-0.45096	1.253106	0.61234
H	-1.159371	1.090297	1.314287
H	0.355663	1.669492	1.055592
F	2.601548	0.0	0.0
