14

C	-0.504455	-0.03337	-1.408402
C	0.0	0.0	0.0
F	-1.880019	-0.049912	-1.488827
H	1.090762	0.0	0.0
H	-0.392051	0.919734	0.455936
N	-0.058665	1.249883	-2.104148
O	-0.803548	2.218961	-1.977992
O	1.017816	1.227316	-2.680215
C	-0.007198	-1.173609	-2.192364
N	0.27698	-2.102279	-2.852853
N	-0.427164	-1.232276	0.658341
H	-1.191798	-1.07802	1.302091
H	0.374626	-1.581517	1.168199
F	2.589412	0.0	0.0
