14

C	-0.53896	-0.037246	-1.397015
C	0.0	0.0	0.0
F	-1.919105	0.0278	-1.439001
H	1.09072	0.0	0.0
H	-0.379805	0.924993	0.452191
N	-0.052733	1.204043	-2.139916
O	-0.644332	2.242672	-1.867296
O	0.894848	1.082008	-2.905737
C	-0.133762	-1.225664	-2.157682
N	0.123632	-2.196582	-2.764886
N	-0.431596	-1.221934	0.680844
H	-1.133122	-1.035953	1.381669
H	0.3908	-1.599973	1.133089
F	2.596936	0.0	0.0
