14

C	-0.541953	-0.015438	-1.394785
C	0.0	0.0	0.0
F	-1.922469	0.076396	-1.429998
H	1.090759	0.0	0.0
H	-0.373652	0.922082	0.463342
N	-0.039297	1.222468	-2.132754
O	-0.590168	2.273647	-1.822888
O	0.87823	1.086397	-2.932706
C	-0.165566	-1.206207	-2.167157
N	0.060629	-2.176449	-2.787606
N	-0.438812	-1.22606	0.667087
H	0.37716	-1.606135	1.128942
H	-1.152253	-1.045723	1.358748
F	2.596636	0.0	0.0
