14

C	-0.359791	0.024056	-1.476819
C	0.0	0.0	0.0
F	0.1305	1.136565	-2.085629
H	1.094865	0.0	0.0
H	-0.39509	-0.924751	0.425558
N	0.247862	-1.192306	-2.165836
O	1.087552	-1.00797	-3.029064
O	-0.185858	-2.26995	-1.770177
C	-1.81078	-0.028732	-1.74127
N	-2.979242	-0.017479	-1.867167
N	-0.488721	1.166799	0.709135
H	0.110415	1.948565	0.477955
H	-1.449356	1.401855	0.484066
F	2.597193	0.0	0.0
