14

C	-0.532523	-0.054914	-1.397601
C	0.0	0.0	0.0
F	-0.147768	1.034684	-2.132133
H	1.093015	0.0	0.0
H	-0.353508	0.951531	0.415222
N	-0.000513	-1.267092	-2.17803
O	0.784928	-2.022294	-1.628877
O	-0.409563	-1.348497	-3.336098
C	-2.004413	-0.150881	-1.463505
N	-3.178288	-0.164632	-1.468212
N	-0.531214	-1.163195	0.721335
H	-1.025192	-0.872796	1.553626
H	0.273169	-1.708446	1.00719
F	2.610846	0.0	0.0
