14

C	-0.56597	-0.043023	-1.388099
C	0.0	0.0	0.0
F	-1.928529	-0.265515	-1.404591
H	1.090378	0.0	0.0
H	-0.337374	-0.92923	0.482271
N	-0.350299	1.309335	-2.069337
O	-1.334191	2.007539	-2.267207
O	0.811934	1.575307	-2.339678
C	0.059219	-1.065545	-2.238874
N	0.483295	-1.926198	-2.916011
N	-0.44833	1.219568	0.66504
H	-1.196886	1.051177	1.321929
H	0.354189	1.584732	1.161415
F	2.589248	0.0	0.0
