15

C	0.0	0.0	0.0
C	-0.421723	-0.242713	-1.46731
F	1.354418	0.0	0.0
H	0.52791	-0.219915	-2.025131
H	-0.379086	0.931155	0.397279
N	-0.370785	-1.034106	1.019825
O	-0.270246	-2.21956	0.709504
O	-0.574384	-0.623652	2.157255
C	-1.177903	0.921022	-1.94431
N	-1.625221	1.85706	-2.496517
C	-1.157099	-1.532952	-1.849847
H	-2.05563	-1.561975	-1.239321
H	-0.524216	-2.403252	-1.68173
H	-1.413429	-1.479486	-2.913042
F	-2.354441	0.0	0.0
