15

C	0.0	0.0	0.0
C	-0.255788	0.046037	-1.538579
F	1.355044	0.0	0.0
H	0.571097	-0.563428	-1.923944
H	-0.426905	0.798591	0.585898
N	-0.402316	-1.289087	0.630424
O	-0.543553	-1.28078	1.848836
O	-0.385768	-2.295739	-0.076324
C	0.064522	1.423456	-1.937923
N	0.314242	2.521597	-2.271524
C	-1.51863	-0.421782	-2.260538
H	-2.354376	0.208847	-1.988598
H	-1.298259	-0.411095	-3.337014
H	-1.758296	-1.431336	-1.940735
F	-2.346704	0.0	0.0
