15

C	0.0	0.0	0.0
C	-0.257531	-0.096767	-1.536563
F	1.355079	0.0	0.0
H	0.574213	-0.733024	-1.867514
H	-0.425876	0.851179	0.507146
N	-0.401211	-1.221174	0.752402
O	-0.392722	-2.291368	0.14731
O	-0.529912	-1.09469	1.965262
C	0.049451	1.240667	-2.061316
N	0.292169	2.303327	-2.4998
C	-1.51648	-0.641547	-2.209714
H	-2.358836	0.003445	-1.999372
H	-1.746673	-1.618378	-1.795412
H	-1.299287	-0.731154	-3.28386
F	-2.346631	0.0	0.0
