15

C	0.0	0.0	0.0
C	-0.423389	-0.254744	-1.464327
F	1.354421	0.0	0.0
H	0.524821	-0.236155	-2.023526
H	-0.380539	0.933526	0.390449
N	-0.370055	-1.026522	1.027714
O	-0.262936	-2.214013	0.727339
O	-0.575639	-0.607211	2.161522
C	-1.183125	0.903965	-1.948132
N	-1.634283	1.834293	-2.507108
C	-1.157896	-1.548064	-1.835107
H	-1.422331	-1.501446	-2.896577
H	-0.523163	-2.415968	-1.666337
H	-2.051546	-1.57473	-1.218352
F	-2.35728	0.0	0.0
