15

C	-0.45597	0.031752	-1.467293
C	0.0	0.0	0.0
Br	0.446235	-1.499405	-2.421932
H	1.089952	0.0	0.0
C	-1.887273	-0.236255	-1.568912
N	-3.038781	-0.478157	-1.610464
C	-0.122854	1.223179	-2.245058
N	0.082	2.137659	-2.956256
N	-0.402249	-1.13249	0.739469
H	0.323228	-1.837461	0.681558
H	-1.314934	-1.506157	0.520478
N	-0.445704	1.266218	0.637559
O	0.042371	2.301277	0.164798
O	-1.216778	1.224512	1.601631
H	2.493437	0.0	0.0
