15

C	-0.485363	0.109166	-1.456011
C	0.0	0.0	0.0
Br	0.06345	-1.536682	-2.402331
H	1.099856	0.0	0.0
C	-1.9441	0.168493	-1.525363
N	-3.118124	0.217874	-1.564376
C	0.112023	1.209942	-2.218234
N	0.562743	2.03992	-2.91808
N	-0.373405	-1.225448	0.630364
H	-1.030921	-1.041063	1.376922
H	0.475195	-1.613325	1.039714
N	-0.412764	1.172246	0.731475
O	-0.373651	1.111087	1.972976
O	-0.662365	2.212999	0.090152
H	2.399526	0.0	0.0
