15

C	-0.429844	-0.012006	-1.450459
C	0.0	0.0	0.0
Br	-2.4456	-0.038375	-1.64349
H	1.092733	0.0	0.0
C	0.05843	1.084279	-2.285595
N	0.459512	1.872354	-3.061429
C	0.015317	-1.274702	-2.045092
N	0.342375	-2.297442	-2.524452
N	-0.331539	-1.15654	0.74327
H	-1.144668	-1.655049	0.411016
H	0.48341	-1.756838	0.810927
N	-0.410467	1.243168	0.663756
O	-0.669412	2.220138	-0.058536
O	-0.340586	1.282089	1.89187
H	2.421378	0.0	0.0
