15

C	-0.426717	-0.02698	-1.445532
C	0.0	0.0	0.0
Br	-2.447027	-0.093867	-1.652231
H	1.098789	0.0	0.0
C	0.043775	1.076822	-2.279646
N	0.464925	1.867566	-3.041915
C	0.044055	-1.281292	-2.036716
N	0.417174	-2.287659	-2.517234
N	-0.311204	-1.1583	0.75246
H	0.520464	-1.733465	0.83561
H	-1.100831	-1.685304	0.405148
N	-0.4167	1.238776	0.658467
O	-0.730682	2.200487	-0.064491
O	-0.304415	1.293898	1.882982
H	2.399284	0.0	0.0
