15

C	-0.456609	0.127101	-1.459705
C	0.0	0.0	0.0
Br	0.481593	-1.316072	-2.520597
H	1.089648	0.0	0.0
C	-1.879901	-0.174089	-1.58215
N	-3.027725	-0.433754	-1.613139
C	-0.163482	1.376391	-2.156257
N	-0.011441	2.332767	-2.824526
N	-0.399125	-1.178919	0.661573
H	-1.32125	-1.526556	0.440595
H	0.318032	-1.883839	0.551912
N	-0.429814	1.218209	0.726475
O	-1.161069	1.112025	1.715178
O	0.047565	2.282348	0.3123
H	2.479237	0.0	0.0
