15

C	-0.510752	-0.016095	-1.454903
C	0.0	0.0	0.0
Br	0.162411	1.411502	-2.639731
H	1.090589	0.0	0.0
C	-0.075429	-1.268668	-2.078334
N	0.239055	-2.266739	-2.611724
C	-1.972475	0.038788	-1.473215
N	-3.147723	0.067159	-1.459923
N	-0.406902	-1.223031	0.611278
H	0.388245	-1.576813	1.138756
H	-1.178111	-1.066191	1.250097
N	-0.462284	1.191754	0.725059
O	-0.229807	2.295148	0.218855
O	-0.965997	1.034547	1.850254
H	2.484545	0.0	0.0
