12

C	0.0	0.0	0.0
C	-0.490786	0.128156	-1.434951
Cl	1.790977	0.0	0.0
H	-1.579046	0.205867	-1.366361
H	-0.341476	-0.949302	0.41024
H	-0.084078	1.056931	-1.856936
C	-0.417206	1.109949	0.856587
N	-0.618634	2.032484	1.554177
N	-0.114411	-1.071852	-2.175455
H	-0.857671	-1.318206	-2.813345
H	0.73269	-0.921378	-2.705518
Br	-3.691905	0.0	0.0
