12

C	0.0	0.0	0.0
C	-0.571457	-0.027005	-1.416571
Cl	1.782852	0.0	0.0
H	-1.567348	-0.470202	-1.329133
H	-0.318871	-0.895912	0.535175
H	0.073387	-0.673424	-2.018958
C	-0.422001	1.172772	0.767886
N	-0.64305	2.143305	1.38998
N	-0.594111	1.31825	-1.983921
H	-1.437661	1.761754	-1.627687
H	-0.718522	1.241498	-2.986199
Br	-3.704666	0.0	0.0
