12

C	0.0	0.0	0.0
C	-0.55675	-0.008846	-1.427982
Cl	1.785968	0.0	0.0
H	-1.479226	0.575786	-1.415154
H	-0.345159	-0.884481	0.53279
H	0.174214	0.45851	-2.091771
C	-0.388639	1.205532	0.739265
N	-0.566858	2.219168	1.30538
N	-0.786402	-1.400558	-1.820149
H	-0.941515	-1.425962	-2.820363
H	-1.682346	-1.637236	-1.397462
Br	-3.628685	0.0	0.0
