12

C	0.0	0.0	0.0
C	-0.340047	0.173042	-1.507559
Cl	1.789996	0.0	0.0
H	-1.395268	0.408526	-1.605398
H	-0.372143	-0.948707	0.380647
H	0.261398	1.009221	-1.874684
C	-0.409561	1.114612	0.849046
N	-0.538582	2.067512	1.523859
N	-0.035474	-0.997163	-2.312963
H	0.924219	-1.287307	-2.165426
H	-0.646185	-1.755635	-2.034488
Br	-3.363943	0.0	0.0
