14
Coordinates from ORCA-job run
  C   0.90031823985555      0.02990907364047      0.64672291051609
  C   -0.61305112834646      0.10142911926538      0.44094952659811
  F   1.24596433104826      1.10006482215540      1.44415635134723
  H   -1.11772082199271      0.40495997560243      1.35605507355366
  H   1.11815743432453     -0.87215993830425      1.23452136439886
  N   1.59361272149817      0.16151505843847     -0.59134718722752
  H   1.34751296127912     -0.59841236053730     -1.21325208663284
  H   2.59202725057889      0.14500557709529     -0.42607663237293
  N   -1.19324924446598     -1.20431650737662      0.01194463374471
  O   -0.44089087679024     -2.01347352905718     -0.52715714193018
  O   -2.39360333556905     -1.34712569373530      0.21858406324939
  N   -0.94764381591454      1.11601589497599     -0.61554784243391
  O   -0.94801927325694      2.27560676775610     -0.22927986407633
  O   -1.14341444224858      0.70198174008111     -1.75027316873436
