14
Coordinates from ORCA-job run
  C   0.96260553916600      0.36340180630672     -0.13137491727295
  C   -0.44899191078457      0.08814789617955      0.36890213499886
  F   0.88538578726152      0.90397867839758     -1.39906478864970
  H   -0.44971868339047     -0.20000409968052      1.42061469097686
  H   1.39774199268043      1.14838839326068      0.49432583927330
  N   1.68226264799908     -0.86040128907324     -0.18362211638953
  H   2.68098080625731     -0.71994913899415     -0.17425487999678
  H   1.40940083636115     -1.54856722410909      0.50186719346061
  N   -1.04878494040524     -1.04517428377948     -0.39641447339474
  O   -1.37504263688429     -0.83616440291254     -1.55483030979855
  O   -1.10122098188570     -2.11199186296505      0.21499586675054
  N   -1.32122311461081      1.31084100116901      0.27058131360029
  O   -0.77225118188241      2.36330939583437      0.57283629777109
  O   -2.50014415988201      1.14418513036616     -0.00456185132931
