15
Coordinates from ORCA-job run
  C   0.92077276676308     -0.14473419459586      0.23084939484718
  C   -0.45385137999439     -0.31195843323824     -0.43751821962427
  Cl  1.83649809860578     -1.67989870774718      0.15007875569397
  H   -0.28973029114728     -0.66645426045988     -1.43788454126617
  C   0.86853740118162      0.35444170193801      1.62058145569165
  N   0.67286008415276      0.68055627133310      2.73653136594695
  N   1.61182279862870      0.93802932374235     -0.67349480517559
  O   1.48144931415973      0.73240001512913     -1.87109804665875
  O   2.18160807056591      1.84026778058865     -0.06544318257765
  N   -1.11989899199202      0.94032726528243     -0.45543161957788
  H   -1.62191584986155      1.09307885937576     -1.30988538032095
  H   -1.69138900918009      1.13962183627825      0.36181644822217
  N   -1.23297862190537     -1.39228279050234      0.23651275489021
  O   -1.53359863322157     -1.21283393295329      1.41240651740183
  O   -1.63118575675531     -2.31156073417088     -0.49702089749268
