15
Coordinates from ORCA-job run
  C   0.84725873146145     -0.15917904637727      0.28858563386315
  C   -0.51595395694602     -0.36016743160346     -0.39895823898963
  Cl  1.52735706409124     -1.67933306527845      0.86012875734675
  H   -0.36301925931068     -1.01374752071730     -1.25642061445022
  C   0.79479320269741      0.81719929722939      1.36280929044878
  N   0.71454803561826      1.62308311664344      2.21617439370837
  N   1.77041016562416      0.39094026789360     -0.82849976433136
  O   2.29572782680225      1.47329901364947     -0.62938262116938
  O   1.86152898096186     -0.31988925726035     -1.81492473474921
  N   -1.01708145438434      0.90593180297759     -0.76258508611239
  H   -1.32098085539040      1.44178863573647      0.04184195214035
  H   -1.74085291023440      0.86347361234751     -1.46325989174610
  N   -1.40088426066056     -1.14755417750567      0.56092692771182
  O   -1.60011073055460     -2.33298900249662      0.31877744859367
  O   -1.85274057977563     -0.50285624523833      1.50478654773540
