17

C	-0.421687	-0.015779	-1.46542
C	0.0	0.0	0.0
Br	0.276869	-1.617051	-2.329135
H	1.116965	0.0	0.0
N	-1.943871	-0.028517	-1.487154
O	-2.435602	-1.144529	-1.346535
O	-2.459068	1.018045	-1.122582
N	0.207748	1.044819	-2.374618
O	1.405929	1.196799	-2.174647
O	-0.355237	1.217345	-3.450259
N	-0.459323	-1.119076	0.864281
O	-1.64686	-1.079794	1.216284
O	0.437296	-1.640358	1.541897
N	-0.222057	1.233617	0.782602
O	-0.120049	1.098563	2.005475
O	0.071492	2.27249	0.184175
Cl	2.719843	0.0	0.0
