17

C	-0.451156	-0.010405	-1.453527
C	0.0	0.0	0.0
Br	0.568237	-1.21347	-2.545514
H	1.08839	0.0	0.0
N	-1.935867	-0.321781	-1.529812
O	-2.693535	0.641107	-1.372274
O	-2.271014	-1.503337	-1.631458
N	-0.168875	1.344319	-2.10295
O	0.823871	1.940649	-1.668631
O	-0.885673	1.713386	-3.033917
N	-0.352133	-1.195554	0.821851
O	-0.51015	-1.020674	2.035586
O	-0.314763	-2.293007	0.256013
N	-0.444272	1.172627	0.814732
O	-1.660066	1.309708	1.022043
O	0.444758	1.886269	1.297838
Cl	2.635171	0.0	0.0
