17

C	-0.428519	-0.012059	-1.478193
C	0.0	0.0	0.0
Br	0.321193	-1.551775	-2.434482
H	1.116953	0.0	0.0
N	-1.920474	-0.113567	-1.677097
O	-2.290465	0.089409	-2.920768
O	-2.396102	-1.189756	-1.117459
N	0.005187	1.241891	-2.190909
O	-0.658667	2.294066	-1.812094
O	0.124876	1.097348	-3.498974
N	-0.376915	-1.201454	0.782502
O	-0.319057	-0.996854	2.078487
O	0.253094	-2.27442	0.367369
N	-0.477661	1.206438	0.719641
O	-1.737756	1.126974	1.044876
O	0.338548	1.546799	1.69977
Cl	2.586348	0.0	0.0
