17

C	-0.465938	0.082473	-1.452018
C	0.0	0.0	0.0
Br	0.403293	1.488423	-2.394149
H	1.11624	0.0	0.0
N	-0.159237	-1.268245	-2.16973
O	-0.470778	-2.260542	-1.533012
O	0.30843	-1.229127	-3.287236
N	-1.973607	0.278238	-1.611073
O	-2.498005	1.024679	-0.812431
O	-2.508633	-0.290167	-2.562813
N	-0.604028	-1.149604	0.738833
O	0.151956	-1.838434	1.412635
O	-1.819606	-1.288835	0.643793
N	-0.335195	1.223044	0.846857
O	-0.111106	2.315408	0.367142
O	-0.676454	0.991752	2.000556
Cl	3.060256	0.0	0.0
