13
Coordinates from ORCA-job run
  C   1.22068698340061     -0.66308132498089      0.05417947126275
  C   0.04100168421439      0.17792287310154     -0.39976360242022
  Br  1.07512570140299     -1.21161222575558      1.91066968841620
  H   0.26336163412214      0.49587929918665     -1.42464716555039
  H   2.14619701158895     -0.09889795084258     -0.03669010943924
  H   1.27617912960555     -1.57148447678096     -0.54546236349753
  N   0.06077764510984      1.47081000394266      0.38244029429503
  O   1.08602726498435      2.14002091915535      0.28079831787879
  O   -0.92221128122642      1.76416548010366      1.05501197179151
  C   -1.30990257145526     -0.49611661195247     -0.32656113240196
  H   -1.28552351180528     -1.40529854283031     -0.93237988594421
  H   -2.08849285828217      0.15969508478674     -0.71564638009941
  H   -1.56422683165970     -0.76000252713381      0.69805089570867
