13
Coordinates from ORCA-job run
  C   1.00410137793269     -0.84556754367477      0.36429550307477
  C   0.11246996763523      0.13060224596916     -0.36900564844330
  Br  2.84324439684302     -0.23042935379415      0.42583872785885
  H   0.52586219965580      0.38188105031206     -1.34601679471024
  H   0.66924276863040     -0.97193429622916      1.39232404145912
  H   1.00492096823184     -1.80496045296660     -0.15247672695610
  N   0.07640039976604      1.43213340517750      0.38000913101492
  O   -0.18917397073279      1.37191444535263      1.57795775682055
  O   0.27450053139723      2.45812397453546     -0.26437707630375
  C   -1.31509562403032     -0.38466325400982     -0.47878207266859
  H   -1.94889533955860      0.35800784355308     -0.96761405231729
  H   -1.72058843458698     -0.59672439975801      0.51173937892249
  H   -1.33598924118358     -1.29838366446740     -1.07589216775143
