13
Coordinates from ORCA-job run
  C   1.13264642432703     -0.63046560151478      0.46408047970527
  C   0.12102985065849      0.14221496404557     -0.36680024850860
  Br  1.51253722238557     -2.34399694283516     -0.36399904821745
  H   0.48080663584201      0.26967509139431     -1.38828848367624
  H   0.75406139586829     -0.82245834381861      1.46564629317855
  H   2.07928890482193     -0.09418492349908      0.52539201666644
  N   0.05689862387505      1.53525887471234      0.19529355360757
  O   0.11684507386740      2.46999351313932     -0.59898741798777
  O   -0.08069427070595      1.63416806279342      1.41373333106775
  C   -1.28355825167231     -0.43340545337546     -0.33992998893412
  H   -1.96429999702497      0.20788131460676     -0.90324840913702
  H   -1.63789251542014     -0.50986823047505      0.68981724248561
  H   -1.28866909682241     -1.42481232517361     -0.79270932024999
