13
Coordinates from ORCA-job run
  C   1.15199913211425     -0.62474807790422      0.42165577644311
  C   0.10580773151187      0.14089840371600     -0.37211971641800
  Br  1.50978846474762     -2.33738350437095     -0.41799565499003
  H   0.42417601486065      0.26439674396560     -1.40773783357607
  H   2.09720000554190     -0.08306769172384      0.44720002070715
  H   0.81230665674235     -0.81749182814690      1.43693266403325
  N   0.05906851845270      1.53665158637725      0.18555388492082
  O   -0.02759003271745      1.64054749240016      1.40823305633553
  O   0.08232186688031      2.46774349500400     -0.61478452205062
  C   -1.29460946088672     -0.43931451654227     -0.28663598993277
  H   -1.99861401356034      0.19353526419064     -0.83051301977346
  H   -1.31270583838255     -1.43555256990378     -0.72841184813492
  H   -1.60914904530459     -0.50621479706167      0.75662318243600
