13
Coordinates from ORCA-job run
  C   1.22883380343377     -0.64963764746517      0.02418358869009
  C   0.02975690031947      0.17965583391916     -0.39966607899259
  Br  1.13428567055201     -1.20313372931347      1.88248018543788
  H   0.22462371771682      0.50184502865811     -1.42879341239521
  H   2.14578966466775     -0.07532617456091     -0.08766189578544
  H   1.27941262020094     -1.55637704248992     -0.57836864609649
  N   0.05379840149609      1.47048283378836      0.38591016270368
  O   1.06780098135339      2.15243752676495      0.26032113761264
  O   -0.91545541237606      1.74905588270815      1.08413036445656
  C   -1.31149046379512     -0.50985188618846     -0.29773357593205
  H   -1.29287059097838     -1.41289286934660     -0.91287269393420
  H   -2.10687373734056      0.14091699952678     -0.66037695977163
  H   -1.53661155525012     -0.78617475600099      0.73044782400676
