16

C	0.0	0.0	0.0
C	-0.252206	0.011622	-1.578205
Cl	1.780573	0.0	0.0
H	0.374632	0.80502	-1.989069
C	-0.417564	1.340361	0.451045
N	-0.645099	2.447915	0.767063
N	-0.616812	-0.988984	0.80524
H	-0.46434	-1.887459	0.36023
H	-1.635366	-0.752899	0.720563
N	-1.573118	0.047799	-2.051409
H	-1.732429	0.910471	-2.550407
H	-2.278918	-0.038482	-1.253674
N	0.41746	-1.243848	-2.165132
O	1.14052	-1.080785	-3.14698
O	0.130996	-2.340512	-1.685725
F	-2.980271	0.0	0.0
