16

C	0.0	0.0	0.0
C	-0.227719	-0.034977	-1.572893
Cl	1.837411	0.0	0.0
H	0.40506	0.74287	-2.003081
C	-0.38753	1.356524	0.419601
N	-0.653568	2.448325	0.759176
N	-0.614605	-0.957526	0.831331
H	-1.633567	-0.70856	0.750022
H	-0.480075	-1.867589	0.404936
N	-1.547627	-0.003307	-2.052478
H	-1.699799	0.843851	-2.578174
H	-2.257733	-0.067929	-1.258933
N	0.434443	-1.310479	-2.121918
O	1.135734	-1.183267	-3.123187
O	0.160182	-2.388262	-1.596397
F	-2.964159	0.0	0.0
