16

C	0.0	0.0	0.0
C	-0.527327	0.132562	-1.447276
Cl	1.799481	0.0	0.0
H	-1.622161	0.219556	-1.254184
C	-0.390809	1.148458	0.84062
N	-0.599939	2.022215	1.596351
N	-0.522162	-1.174384	0.640088
H	-0.320345	-1.96849	0.040569
H	-1.553576	-0.962786	0.581057
N	-0.225852	-0.976826	-2.288334
H	-0.969699	-1.655871	-2.270243
H	0.665608	-1.402476	-2.07083
N	-0.099941	1.409944	-2.142028
O	-0.37756	1.509238	-3.332961
O	0.43236	2.294645	-1.471958
F	-2.750886	0.0	0.0
