16

C	0.0	0.0	0.0
C	-0.45042	0.198563	-1.4586
Cl	1.914513	0.0	0.0
H	-1.547251	0.290337	-1.30461
C	-0.337107	1.131791	0.871556
N	-0.51428	2.004506	1.636874
N	-0.508459	-1.193122	0.559621
H	-0.366531	-1.912997	-0.144447
H	-1.542977	-0.945306	0.544268
N	-0.093575	-0.928628	-2.248932
H	0.873772	-0.856721	-2.53991
H	-0.678406	-0.969432	-3.071638
N	0.072645	1.501293	-2.033839
O	0.877448	1.443854	-2.967927
O	-0.352501	2.542351	-1.539288
F	-2.709372	0.0	0.0
