16

C	0.0	0.0	0.0
C	-0.354735	0.119667	-1.56192
Cl	1.781295	0.0	0.0
H	0.512931	0.582326	-2.027348
C	-0.380237	1.294779	0.609826
N	-0.605974	2.328672	1.122142
N	-0.59077	-1.144888	0.595801
H	-0.388025	-1.141175	1.590274
H	-1.619279	-0.946622	0.45941
N	-1.544313	0.752691	-1.982807
H	-2.298693	0.492322	-1.294184
H	-1.393176	1.753218	-1.950376
N	-0.331195	-1.300613	-2.088595
O	0.765739	-1.740861	-2.440779
O	-1.38778	-1.913597	-2.134792
F	-2.881397	0.0	0.0
