16

C	0.0	0.0	0.0
C	-0.37366	0.20087	-1.531782
Cl	1.834309	0.0	0.0
H	0.534629	0.427186	-2.095494
C	-0.35632	1.237578	0.720099
N	-0.519811	2.205725	1.363781
N	-0.533841	-1.098198	0.720985
H	-1.56282	-0.90397	0.647349
H	-0.300459	-1.952935	0.230688
N	-1.361025	1.171103	-1.727403
H	-1.599222	1.238479	-2.707475
H	-2.174665	0.86928	-1.135513
N	-0.726694	-1.197592	-2.122937
O	-1.70078	-1.275862	-2.863147
O	0.058645	-2.121839	-1.898246
F	-2.777854	0.0	0.0
