16

C	0.0	0.0	0.0
C	-0.517317	0.201381	-1.456164
Cl	1.781579	0.0	0.0
H	-1.594063	0.37606	-1.295776
C	-0.36158	1.143847	0.86906
N	-0.546395	1.986006	1.668126
N	-0.562614	-1.235883	0.451642
H	-0.311339	-1.359023	1.428183
H	-1.600632	-0.976375	0.393419
N	-0.285437	-0.905818	-2.328324
H	-0.829228	-1.674225	-1.953476
H	0.692157	-1.174682	-2.287395
N	0.104561	1.429879	-2.038557
O	-0.318181	2.510982	-1.628657
O	1.006402	1.294702	-2.86482
F	-2.756347	0.0	0.0
