16

C	-0.415786	0.031772	-1.454937
C	0.0	0.0	0.0
Cl	-2.20116	0.06157	-1.660865
H	1.091288	0.0	0.0
H	-0.085483	-0.920018	-1.870644
C	0.229107	1.192723	-2.187322
H	1.305163	1.176171	-1.993078
H	0.043452	1.093546	-3.257929
H	-0.173192	2.147897	-1.849818
N	-0.398797	-1.25246	0.713155
O	-0.683417	-2.230122	0.023674
O	-0.315428	-1.234204	1.935354
N	-0.527991	1.175749	0.743733
O	0.144489	2.200911	0.661441
O	-1.610363	1.066088	1.313218
Br	3.350993	0.0	0.0
