16

C	-0.567204	-0.035399	-1.404661
C	0.0	0.0	0.0
Cl	0.093796	1.357511	-2.307863
H	1.087492	0.0	0.0
H	-1.647918	0.107797	-1.36198
C	-0.174308	-1.322998	-2.108442
H	0.906758	-1.462856	-2.046963
H	-0.671959	-2.180585	-1.650097
H	-0.47378	-1.271513	-3.156357
N	-0.496973	-1.216319	0.724554
O	0.265109	-2.1703	0.817503
O	-1.666314	-1.181565	1.114118
N	-0.503339	1.1529	0.812131
O	-1.417883	1.840478	0.36312
O	0.032743	1.291748	1.90729
Br	3.400399	0.0	0.0
