16

C	-0.535549	0.007924	-1.425234
C	0.0	0.0	0.0
Cl	0.036523	-1.490739	-2.217851
H	1.089757	0.0	0.0
H	-0.016275	0.82519	-1.92352
C	-2.037627	0.12643	-1.600182
H	-2.549792	-0.73962	-1.1872
H	-2.264521	0.192147	-2.666117
H	-2.405537	1.026253	-1.108175
N	-0.53855	-1.144561	0.789833
O	-1.736628	-1.092537	1.07956
O	0.229181	-2.059502	1.064321
N	-0.375482	1.250675	0.734291
O	-0.56759	2.258707	0.054835
O	-0.371647	1.20152	1.958349
Br	3.360095	0.0	0.0
