16

C	-0.450438	-0.003139	-1.44145
C	0.0	0.0	0.0
Cl	-2.199272	-0.373417	-1.632288
H	1.090772	0.0	0.0
H	0.070655	-0.8529	-1.883774
C	-0.07348	1.275273	-2.163068
H	0.991999	1.463136	-2.002651
H	-0.259833	1.161367	-3.232295
H	-0.659766	2.114759	-1.792562
N	-0.436389	-1.25838	0.687549
O	-0.089507	-2.292556	0.130172
O	-1.094017	-1.175164	1.719246
N	-0.463789	1.147714	0.827706
O	-1.456648	1.778405	0.462365
O	0.19259	1.369684	1.840719
Br	3.347033	0.0	0.0
