16

C	-0.481749	-0.030163	-1.447333
C	0.0	0.0	0.0
Cl	0.048909	-1.555793	-2.213094
H	1.104196	0.0	0.0
H	0.106524	0.751742	-1.925119
C	-1.963125	0.195831	-1.682247
H	-2.148594	0.286458	-2.754421
H	-2.542796	-0.635469	-1.292966
H	-2.290561	1.121002	-1.200411
N	-0.497693	-1.084126	0.886355
O	-1.443212	-1.777712	0.507334
O	0.081797	-1.18751	1.96236
N	-0.474289	1.29529	0.584534
O	-1.309937	1.272272	1.486519
O	-0.02523	2.299789	0.044235
Br	3.353899	0.0	0.0
