14

C	0.0	0.0	0.0
C	-0.469323	-0.29484	-1.426402
Br	1.953491	0.0	0.0
H	0.007687	0.421694	-2.100878
H	-1.550159	-0.122041	-1.417548
C	-0.333067	1.396368	0.345848
N	-0.559532	2.517066	0.620901
N	-0.550182	-0.977396	0.896314
H	-1.572992	-0.87776	0.809059
H	-0.290073	-0.761557	1.854459
N	-0.092727	-1.659435	-1.803273
H	-0.688765	-1.930372	-2.578611
H	-0.348032	-2.256087	-1.021439
Br	-3.763756	0.0	0.0
