14

C	0.0	0.0	0.0
C	-0.484557	-0.220338	-1.438718
Br	1.961763	0.0	0.0
H	0.023505	-1.113867	-1.816444
H	-1.556557	-0.4247	-1.336789
C	-0.364793	1.349839	0.454785
N	-0.601822	2.446081	0.803567
N	-0.486325	-0.970497	0.945305
H	-0.326021	-1.89524	0.556216
H	-1.503476	-0.831122	0.991564
N	-0.183273	0.920139	-2.296857
H	-0.220857	0.626165	-3.264845
H	-0.920717	1.605812	-2.169902
Br	-3.742655	0.0	0.0
