14

C	0.0	0.0	0.0
C	-0.49813	0.234083	-1.423747
Br	1.958897	0.0	0.0
H	-0.042181	1.15154	-1.80621
H	-1.5807	0.382225	-1.318141
C	-0.326518	1.174056	0.835911
N	-0.526167	2.098189	1.53475
N	-0.527604	-1.240778	0.497822
H	-1.55246	-1.141557	0.455421
H	-0.264808	-1.363402	1.469662
N	-0.131864	-0.896641	-2.278047
H	-0.728885	-0.860111	-3.097111
H	-0.38683	-1.738371	-1.771462
Br	-3.771619	0.0	0.0
