14

C	0.0	0.0	0.0
C	-0.441407	0.136377	-1.465206
Br	1.999532	0.0	0.0
H	-1.526097	0.267617	-1.396974
H	0.009769	1.032609	-1.906715
C	-0.33327	1.222441	0.740963
N	-0.539585	2.219485	1.326826
N	-0.496281	-1.155405	0.665856
H	-1.492032	-0.974036	0.837905
H	-0.447807	-1.905838	-0.020253
N	-0.147047	-1.100402	-2.174164
H	0.72349	-1.030811	-2.682885
H	-0.894756	-1.310502	-2.820204
Br	-3.731171	0.0	0.0
