14

C	0.0	0.0	0.0
C	-0.496783	-0.47788	-1.362351
Br	1.958253	0.0	0.0
H	-0.036865	0.141277	-2.137201
H	-1.578944	-0.29557	-1.344955
C	-0.322499	1.433198	0.161036
N	-0.572105	2.574331	0.296354
N	-0.535283	-0.844954	1.030414
H	-0.282153	-0.484099	1.943686
H	-1.559792	-0.778025	0.93664
N	-0.128981	-1.878717	-1.569521
H	-0.677902	-2.221606	-2.350199
H	-0.441	-2.388362	-0.74939
Br	-3.788236	0.0	0.0
