14

C	0.0	0.0	0.0
C	-0.410447	0.264784	-1.448854
Br	2.043084	0.0	0.0
H	-1.506088	0.266241	-1.423045
H	-0.073603	-0.604046	-2.036314
C	-0.340189	1.119231	0.877466
N	-0.593798	2.012403	1.597057
N	-0.527696	-1.196061	0.454084
H	-0.326915	-1.995766	-0.126192
H	-0.447574	-1.381901	1.439836
N	0.091477	1.539162	-1.921934
H	0.999419	1.445215	-2.354633
H	-0.558348	1.948622	-2.575674
Br	-3.97996	0.0	0.0
