14

C	0.0	0.0	0.0
C	-0.331155	0.209081	-1.51541
Br	1.965352	0.0	0.0
H	0.020821	-0.706748	-2.001452
H	0.302892	1.03216	-1.856527
C	-0.34854	1.210222	0.766301
N	-0.620803	2.180127	1.373641
N	-0.574141	-1.211182	0.49695
H	-1.583535	-1.148915	0.326552
H	-0.451277	-1.273846	1.502024
N	-1.683219	0.478408	-1.899549
H	-2.335325	-0.256894	-1.650456
H	-2.05179	1.301675	-1.438575
Br	-4.283985	0.0	0.0
