14

C	0.0	0.0	0.0
C	-0.39848	-0.166998	-1.468401
Br	2.076101	0.0	0.0
H	0.091061	0.600677	-2.079025
H	-1.482789	-0.000809	-1.461025
C	-0.298068	1.352376	0.480791
N	-0.498092	2.440619	0.877533
N	-0.484544	-0.990922	0.878504
H	-0.48916	-1.854484	0.33849
H	-1.460548	-0.748557	1.081229
N	-0.125464	-1.534259	-1.886258
H	-0.851337	-1.859169	-2.505424
H	0.77103	-1.602249	-2.346959
Br	-3.704982	0.0	0.0
