14

C	0.0	0.0	0.0
C	-0.481965	-0.220688	-1.439422
Br	1.963136	0.0	0.0
H	0.017636	-1.121606	-1.810864
H	-1.556395	-0.413763	-1.341208
C	-0.363816	1.351157	0.452615
N	-0.602481	2.445663	0.805731
N	-0.488408	-0.968833	0.945725
H	-0.326652	-1.894396	0.559343
H	-1.505443	-0.828513	0.989449
N	-0.165155	0.912528	-2.301452
H	-0.197648	0.61409	-3.268167
H	-0.89709	1.605508	-2.183501
Br	-3.745042	0.0	0.0
