14

C	0.0	0.0	0.0
C	-0.416345	-0.091972	-1.47236
Br	2.053764	0.0	0.0
H	0.058923	0.713211	-2.044667
H	-1.500302	0.067639	-1.443989
C	-0.308197	1.325848	0.544124
N	-0.494454	2.405816	0.968185
N	-0.483377	-1.037214	0.832692
H	-0.450004	-1.881828	0.265461
H	-1.472954	-0.826284	1.008366
N	-0.138078	-1.432126	-1.969004
H	0.73425	-1.458046	-2.478375
H	-0.889232	-1.73704	-2.571157
Br	-3.713674	0.0	0.0
