16

C	0.0	0.0	0.0
C	-0.442325	-0.077763	-1.477767
F	1.357008	0.0	0.0
H	0.509215	-0.190265	-2.015304
H	-0.386618	-0.834044	0.573069
N	-0.363296	1.224646	0.79493
O	-0.733968	1.047493	1.950406
O	-0.125757	2.323545	0.294585
C	-1.184691	1.126912	-2.057518
H	-0.585932	2.038704	-2.051904
H	-2.094651	1.239769	-1.467692
H	-1.441422	0.887031	-3.096865
N	-1.189572	-1.334876	-1.593651
H	-2.035116	-1.090403	-1.032378
H	-1.469146	-1.431131	-2.565653
F	-2.682737	0.0	0.0
