16

C	0.0	0.0	0.0
C	-0.457426	-0.170208	-1.463637
F	1.356907	0.0	0.0
H	0.487448	-0.320264	-2.004099
H	-0.387758	-0.790678	0.631752
N	-0.353612	1.282255	0.708358
O	-0.059727	2.33825	0.146731
O	-0.772035	1.193144	1.857715
C	-1.203291	1.002501	-2.101936
H	-0.600016	1.910668	-2.151034
H	-1.47222	0.708171	-3.123955
H	-2.107759	1.146358	-1.509466
N	-1.210902	-1.428449	-1.490872
H	-1.497567	-1.586592	-2.453362
H	-2.055198	-1.142994	-0.944332
F	-2.72372	0.0	0.0
