16

C	0.0	0.0	0.0
C	-0.413216	-0.301373	-1.473565
F	1.365254	0.0	0.0
H	0.553352	-0.512142	-1.953283
H	-0.381106	-0.745097	0.689357
N	-0.369157	1.312349	0.632229
O	-0.702134	1.2819	1.81331
O	-0.179071	2.340064	-0.016302
C	-1.089469	0.823965	-2.245758
H	-0.462693	1.712928	-2.32435
H	-2.017438	1.051637	-1.722803
H	-1.305851	0.436165	-3.244702
N	-1.251365	-1.492395	-1.578023
H	-0.784908	-2.257369	-1.096986
H	-2.056637	-1.190979	-0.989461
F	-2.594457	0.0	0.0
