16

C	0.0	0.0	0.0
C	-0.515699	-0.264076	-1.439652
F	1.351843	0.0	0.0
H	-1.201968	-1.102325	-1.298117
H	-0.370975	-0.75165	0.688416
N	-0.356346	1.303075	0.668002
O	-0.130529	2.342634	0.054966
O	-0.698797	1.239347	1.847247
C	0.629598	-0.661091	-2.365448
H	0.209615	-0.943573	-3.336342
H	1.201289	-1.511765	-1.986904
H	1.305878	0.180726	-2.516582
N	-1.242847	0.872129	-2.009563
H	-2.039345	0.898619	-1.344317
H	-1.629661	0.528461	-2.884559
F	-2.591162	0.0	0.0
