16

C	0.0	0.0	0.0
C	-0.44743	-0.027025	-1.471961
F	1.359586	0.0	0.0
H	-1.407451	0.479855	-1.482488
H	-0.396976	-0.793774	0.6185
N	-0.381103	1.276983	0.689851
O	-0.414867	2.305465	0.015482
O	-0.486082	1.239134	1.912054
C	-0.699574	-1.473295	-1.860803
H	-1.553459	-1.797202	-1.26652
H	0.172399	-2.114129	-1.671623
H	-0.940037	-1.528749	-2.92564
N	0.492455	0.619408	-2.392386
H	1.422594	0.247751	-2.231932
H	0.527331	1.59959	-2.134056
F	-2.478832	0.0	0.0
