16

C	0.0	0.0	0.0
C	-0.205104	-0.019684	-1.53815
F	1.365063	0.0	0.0
H	0.506853	0.7514	-1.873166
H	-0.423379	-0.828568	0.545133
N	-0.412522	1.25991	0.677074
O	-0.52845	1.213482	1.899079
O	-0.446434	2.290186	0.006673
C	-1.513957	0.268252	-2.237725
H	-2.249586	-0.480709	-1.970191
H	-1.917369	1.223785	-1.919017
H	-1.297246	0.293389	-3.319984
N	0.267813	-1.366045	-1.936485
H	1.278277	-1.393593	-1.876975
H	0.01685	-1.509001	-2.90746
F	-2.417534	0.0	0.0
