16

C	0.0	0.0	0.0
C	-0.420628	-0.205497	-1.486627
F	1.365332	0.0	0.0
H	0.542498	-0.385103	-1.984655
H	-0.381222	-0.785212	0.643667
N	-0.36108	1.273923	0.71349
O	-0.137282	2.337246	0.137958
O	-0.718797	1.173264	1.882273
C	-1.108626	0.968194	-2.172159
H	-2.034326	1.144263	-1.624046
H	-1.333897	0.651362	-3.193478
H	-0.487235	1.862235	-2.191959
N	-1.259615	-1.387542	-1.660303
H	-0.786292	-2.181323	-1.235323
H	-2.063562	-1.126067	-1.050613
F	-2.621888	0.0	0.0
