16

C	0.0	0.0	0.0
C	-0.42049	0.162863	-1.492177
F	1.361348	0.0	0.0
H	0.542422	0.107621	-2.018604
H	-0.381907	-0.91915	0.431048
N	-0.366224	1.05776	1.00502
O	-0.698191	0.667983	2.119877
O	-0.170646	2.233409	0.702748
C	-1.101696	1.470545	-1.873281
H	-2.017966	1.529371	-1.286762
H	-1.342817	1.405487	-2.937768
H	-0.468003	2.338887	-1.694886
N	-1.261356	-0.938818	-1.951189
H	-0.79225	-1.813433	-1.730116
H	-2.066416	-0.833229	-1.296937
F	-2.616027	0.0	0.0
