16

C	0.0	0.0	0.0
C	-0.442723	-0.255311	-1.45827
F	1.356959	0.0	0.0
H	0.508996	-0.431122	-1.980599
H	-0.386184	-0.757734	0.671174
N	-0.36367	1.315559	0.635376
O	-0.107498	2.341636	0.006199
O	-0.752897	1.28694	1.797219
C	-1.195682	0.864399	-2.176539
H	-0.61985	1.785642	-2.264941
H	-1.433355	0.506782	-3.18625
H	-2.114068	1.019033	-1.609997
N	-1.188385	-1.518159	-1.419406
H	-1.471005	-1.731359	-2.372252
H	-2.034454	-1.208659	-0.892182
F	-2.691011	0.0	0.0
