18

C	-0.302713	-0.140073	-1.500425
C	0.0	0.0	0.0
F	-1.600608	-0.645896	-1.713543
H	1.09167	0.0	0.0
C	-0.305907	1.206584	-2.109773
N	-0.324644	2.257473	-2.633197
C	0.731619	-0.991235	-2.219442
H	1.705452	-0.698418	-1.806017
H	0.674787	-0.839283	-3.299936
H	0.556781	-2.036937	-1.979114
N	-0.450714	-1.23954	0.683193
O	-1.172711	-1.135407	1.679705
O	-0.059621	-2.320763	0.242227
C	-0.581626	1.223597	0.668288
H	-0.346592	1.204747	1.731673
H	-0.113145	2.110221	0.239288
H	-1.667725	1.29242	0.555464
F	2.591539	0.0	0.0
