18

C	-0.314512	0.090248	-1.491364
C	0.0	0.0	0.0
F	-0.100591	-1.171085	-2.052686
H	1.091461	0.0	0.0
C	-1.708287	0.465719	-1.813632
N	-2.78858	0.822721	-2.107933
C	0.692156	1.041388	-2.125343
H	1.666404	0.786166	-1.684415
H	0.678987	0.903096	-3.208364
H	0.445127	2.081009	-1.898128
N	-0.57117	-1.250139	0.560379
O	0.123636	-1.90127	1.338527
O	-1.730447	-1.541018	0.247661
C	-0.524302	1.167832	0.811939
H	-0.044617	2.087003	0.470119
H	-1.611857	1.273716	0.744264
H	-0.237395	1.025555	1.856594
F	2.62902	0.0	0.0
