18

C	-0.290673	-0.136774	-1.500868
C	0.0	0.0	0.0
F	-1.60678	-0.589636	-1.71954
H	1.091694	0.0	0.0
C	-0.227427	1.206192	-2.11178
N	-0.187226	2.268614	-2.609787
C	0.717078	-1.028286	-2.213401
H	0.493947	-2.069674	-1.981416
H	1.694266	-0.769429	-1.791341
H	0.685228	-0.8658	-3.292888
N	-0.458992	-1.236142	0.681501
O	-0.061339	-2.322069	0.255929
O	-1.194902	-1.123983	1.666931
C	-0.584274	1.224269	0.662063
H	-1.670618	1.290068	0.545994
H	-0.352476	1.206664	1.726521
H	-0.116084	2.112217	0.234348
F	2.586695	0.0	0.0
