18

C	-0.288505	0.096377	-1.494747
C	0.0	0.0	0.0
F	-0.002031	-1.134674	-2.082732
H	1.091473	0.0	0.0
C	-1.686794	0.433112	-1.834301
N	-2.766134	0.807082	-2.10953
C	0.687201	1.103661	-2.094062
H	1.66652	0.868697	-1.653911
H	0.400691	2.128331	-1.848997
H	0.688939	0.987095	-3.179998
N	-0.594937	-1.218478	0.592579
O	-1.568722	-1.737315	0.037438
O	-0.109909	-1.615742	1.650992
C	-0.481205	1.197131	0.800753
H	-1.559375	1.36817	0.704237
H	-0.231899	1.030371	1.850009
H	0.061035	2.086544	0.477497
F	2.61222	0.0	0.0
