18

C	-0.383131	-0.014731	-1.484514
C	0.0	0.0	0.0
F	-0.176185	1.294436	-1.952395
H	1.091002	0.0	0.0
C	0.508628	-0.867133	-2.29935
N	1.107441	-1.511645	-3.075875
C	-1.831152	-0.354965	-1.79443
H	-2.010404	-0.216087	-2.863526
H	-2.046801	-1.388058	-1.523904
H	-2.484151	0.319255	-1.236413
N	-0.370133	-1.269024	0.623655
O	-0.666466	-1.276712	1.822815
O	-0.286274	-2.298387	-0.062197
C	-0.535461	1.180447	0.772456
H	-0.218915	2.096507	0.27629
H	-1.626609	1.175154	0.870449
H	-0.103177	1.165276	1.771631
F	2.500152	0.0	0.0
