18

C	-0.301147	-0.151657	-1.497265
C	0.0	0.0	0.0
F	-1.615483	-0.611353	-1.70845
H	1.091645	0.0	0.0
C	-0.250184	1.185951	-2.124352
N	-0.22952	2.224075	-2.672868
C	0.70409	-1.048052	-2.203416
H	0.486844	-2.085923	-1.958016
H	1.685846	-0.781301	-1.786763
H	0.661285	-0.900654	-3.285128
N	-0.459915	-1.226003	0.699894
O	-1.172308	-1.102698	1.701854
O	-0.089795	-2.317355	0.267
C	-0.575629	1.235712	0.651927
H	-1.662022	1.305446	0.543882
H	-0.335526	1.232511	1.714507
H	-0.106957	2.114681	0.20748
F	2.585944	0.0	0.0
