18

C	-0.294391	0.078894	-1.49366
C	0.0	0.0	0.0
F	0.003884	-1.153965	-2.07286
H	1.091466	0.0	0.0
C	-1.69997	0.393068	-1.825813
N	-2.79088	0.74228	-2.085595
C	0.668203	1.090199	-2.105894
H	1.652477	0.865143	-1.670715
H	0.376074	2.11445	-1.865871
H	0.663659	0.967185	-3.191905
N	-0.590065	-1.211544	0.610785
O	-1.547937	-1.756927	0.053437
O	-0.114352	-1.578431	1.684787
C	-0.478221	1.206417	0.788167
H	0.058994	2.093488	0.44952
H	-0.2203	1.054212	1.83787
H	-1.557714	1.373913	0.697243
F	2.60935	0.0	0.0
