18

C	-0.286619	-0.137158	-1.502025
C	0.0	0.0	0.0
F	-1.605188	-0.577919	-1.733743
H	1.091689	0.0	0.0
C	-0.206577	1.206623	-2.11384
N	-0.154199	2.270631	-2.608966
C	0.713536	-1.040509	-2.208381
H	0.479726	-2.076324	-1.974702
H	0.678069	-0.881794	-3.288886
H	1.695101	-0.791871	-1.785805
N	-0.464966	-1.229586	0.689478
O	-1.146671	-1.109727	1.711904
O	-0.125952	-2.321379	0.231481
C	-0.575686	1.234048	0.656204
H	-0.086026	2.11265	0.235229
H	-0.363195	1.213009	1.723743
H	-1.65811	1.318702	0.521029
F	2.585125	0.0	0.0
