15
Coordinates from ORCA-job run
  C   0.70554411808516     -0.16661764768664      0.16101810032888
  C   -0.61138678611495      0.61678493800357      0.31836507892282
  Br  2.13091778766856      0.86774680516650      1.13167380894325
  H   -0.82251438105080      0.70030698264798      1.39553058827422
  N   1.06202708738111     -0.19403488431891     -1.21270585655484
  H   0.27229282238952     -0.54091734188164     -1.74603726195145
  H   1.89930595973598     -0.73320273090985     -1.38862048371056
  N   0.51125155995238     -1.45429277843026      0.76756048160899
  H   1.26881858149536     -2.07894239827495      0.51827318768942
  H   0.48189189425928     -1.38375807495289      1.77907975507061
  N   -1.62643692618265     -0.11060900113054     -0.44208123037136
  H   -2.48929707463393      0.41792600450120     -0.47655829662382
  H   -1.79084983947234     -0.99958923834442      0.01424317674127
  C   -0.49838909134166      1.97690364226593     -0.21443316954781
  N   -0.49217571217102      3.08329572334491     -0.60530787881961
