15
Coordinates from ORCA-job run
  C   0.36179142707468     -0.54153501134473     -0.12805995440822
  C   -0.59203293059369      0.66618784692091     -0.06570734454285
  Br  -0.56190292642924     -2.07797163742370     -0.89569955117586
  H   0.03198854470310      1.48781575261635      0.34015373792553
  N   0.68460095153714     -0.89426280448302      1.25157856913932
  H   1.03461851659044     -1.84311158359989      1.30452205637282
  H   1.41367552910903     -0.26898282153250      1.58329401824249
  N   1.44199545846066     -0.21210459325225     -1.02273951820719
  H   2.06367036920998     -1.00142839819501     -1.14964398992174
  H   1.97062579959160      0.57553230334336     -0.66117858016097
  N   -1.75178308019952      0.36057660317657      0.74693328305279
  H   -2.28609693888667      1.20128506098240      0.92591589810921
  H   -1.42197182609068     -0.03036849388585      1.62191008444199
  C   -1.01092503644162      1.08723572305616     -1.40715696726364
  N   -1.37825385763520      1.49313205362121     -2.44512174160367
