15
Coordinates from ORCA-job run
  C   0.64906822439807     -0.28029041168486      0.09913852385017
  C   -0.60892433486285      0.52376929728214      0.47018092091870
  Br  2.18849655926612      0.77465202801828      1.10059444728939
  H   -0.60260608929559      0.69349654377938      1.55002904907073
  N   0.87921571798035     -0.24786442644168     -1.29179420689040
  H   1.23317003144088      0.64403680302296     -1.61258392163469
  H   1.48503400991246     -0.99969768129304     -1.59191000423925
  N   0.57338941212779     -1.60019335917098      0.57043911478717
  H   0.00535956775812     -1.68821740038802      1.40045775379452
  H   1.48518857809129     -2.01254377365862      0.71166776108584
  N   -1.77881974503278     -0.27093016974678      0.12808234069047
  H   -2.62143003247079      0.26852911075204      0.28860111916040
  H   -1.73318377417399     -0.51072096487134     -0.85636086524929
  C   -0.55943784105959      1.83906828228641     -0.19749287051344
  N   -0.59552028407951      2.86490612211413     -0.76904916212033
