15
Coordinates from ORCA-job run
  C   0.55622235227652     -0.40548450858218      0.09864576978423
  C   -0.67363428178382      0.48836853178188      0.30387919484916
  Br  -0.38593471669165     -2.40183592479923      0.72453630301578
  H   -1.00318723906322      0.36387215640858      1.34345433263371
  N   1.57145742288319     -0.16922604938240      1.00616634144289
  H   2.42533712387483     -0.67178366533657      0.80529801697777
  H   1.28348852469685     -0.33192177706757      1.96072538219034
  N   0.92100936497685     -0.47248289609452     -1.21307906264009
  H   0.11228217681562     -0.50841469480378     -1.82188603694126
  H   1.63525845858315     -1.14722111817203     -1.44325692583534
  N   -1.68299684498828      0.15330164944291     -0.69170124205724
  H   -2.14596850443443     -0.70213798242427     -0.40529518616658
  H   -2.36671700199095      0.89575006528887     -0.76679627901557
  C   -0.26145006777335      1.88796495566394      0.11829872252961
  N   0.01583323261870      3.02025125807638     -0.01898933076743
