15
Coordinates from ORCA-job run
  C   0.60311353791788     -0.37116431266920      0.02172159283330
  C   -0.46777331436666      0.73323084119595      0.00443062298905
  Br  -0.55651413142143     -2.17669042279289     -0.39504299749956
  H   0.09551031242232      1.63933707322446      0.23382637807248
  N   1.15806070607092     -0.45867625630580      1.28535574035872
  H   0.37373627293621     -0.44637337487145      1.97844328460125
  H   1.80025965398441     -1.23172335367368      1.39127581920225
  N   1.52843171280794     -0.20647191841367     -1.01349476724353
  H   1.10763278537740     -0.29401846056205     -1.91937676195596
  H   2.29212977747994     -0.87434990104341     -0.93883969565240
  N   -1.43418373388004      0.51451557177690      1.06437775683686
  H   -2.06989664512434     -0.24084042440820      0.79029800611699
  H   -1.97128400816779      1.37884044650082      1.22330564343219
  C   -1.03526545416123      0.88112070056816     -1.33605280041468
  N   -1.42295747187553      1.15226379147407     -2.38922782167696
