16

C	-0.187234	0.045938	-1.500562
C	0.0	0.0	0.0
Br	-2.152231	0.343001	-2.033884
H	1.101515	0.0	0.0
H	-0.052435	-0.958118	-1.918546
N	0.63489	1.058425	-2.067042
H	1.535429	1.012396	-1.567045
H	0.801042	0.879308	-3.049415
N	-0.498594	-1.204727	0.642935
H	0.097475	-1.982983	0.378632
H	-1.441073	-1.398459	0.31373
C	-0.487188	1.242126	0.71582
H	-0.041123	1.265645	1.712571
H	-1.577585	1.236348	0.816897
H	-0.191301	2.140443	0.170545
H	2.888069	0.0	0.0
