16

C	-0.430955	0.025256	-1.462244
C	0.0	0.0	0.0
Br	0.070334	-1.749529	-2.347415
H	1.093968	0.0	0.0
H	0.200533	0.72238	-2.015168
N	-1.804476	0.322098	-1.678184
H	-2.39266	-0.346074	-1.195128
H	-2.033603	0.285251	-2.663528
N	-0.444844	-1.141591	0.793586
H	-1.36376	-1.465648	0.509215
H	0.208463	-1.898487	0.62685
C	-0.443901	1.30104	0.661505
H	-0.151601	2.16758	0.060815
H	-1.526967	1.337214	0.814523
H	0.060111	1.365544	1.627799
H	2.962836	0.0	0.0
