15

C	0.0	0.0	0.0
C	-0.378076	-0.137415	-1.491679
F	1.358948	0.0	0.0
H	0.580067	0.043962	-1.994833
H	-0.398703	-0.778316	0.643794
N	-0.339038	1.312258	0.652166
O	-0.252023	2.317989	-0.046143
O	-0.502881	1.28431	1.867161
C	-1.272447	0.841474	-2.116217
N	-1.779403	1.598213	-2.858411
C	-0.800705	-1.578246	-1.797247
H	-0.896793	-1.716194	-2.876689
H	-1.759059	-1.775495	-1.317407
H	-0.037509	-2.271137	-1.426756
Br	-3.308979	0.0	0.0
