10
Coordinates from ORCA-job run
  C   0.59005937402556     -0.19027459245286      0.28767263289216
  C   -0.64111006748859      0.12676960864274     -0.15700326117256
  H   0.83737807214546     -0.94174130993452      1.02448670446326
  H   -0.73014391214356      0.91511424094821     -0.89738113828848
  N   1.73866404482053      0.51446067326051     -0.22514424138047
  O   2.83100178800235      0.16245080359778      0.22580136736802
  O   1.57992065920488      1.40109372225941     -1.06462390475790
  N   -1.81507850524664     -0.40519288053452      0.29261146860028
  H   -1.77485515551589     -1.26105380613349      0.82107238295371
  H   -2.61483629780410     -0.32062645965327     -0.30949201067802
