10
Coordinates from ORCA-job run
  C   0.47264317967112      0.70378614242377      0.42581406678877
  C   -0.81560799730985      0.27464630440910      0.39456652155080
  H   0.79814075156839      1.53506672622862      1.03087351545711
  H   -1.51825025410037      0.82510821813763      1.01404833992962
  N   1.52144636394534      0.08132535507973     -0.31482739732180
  O   1.24662569786363     -0.89108733962848     -1.03752646726905
  O   2.65486401267643      0.54748572121924     -0.19202784573443
  N   -1.35625362925149     -0.71316014000813     -0.34959239384303
  H   -2.27770240478836     -1.04057835833060     -0.12577104436218
  H   -0.72590572027483     -1.32359262953088     -0.84455729519582
