10
Coordinates from ORCA-job run
  C   0.60354858489465     -0.24576401883471      0.20379256034241
  C   -0.64942757606665      0.15044257781235     -0.09104460334739
  H   0.89193288806588     -1.15791420101502      0.70738841260786
  H   -0.77900009901791      1.10202006693756     -0.59624822415405
  N   1.72125881762367      0.59168720619579     -0.15516885986537
  O   1.51630165216862      1.66238450488434     -0.72754855211218
  O   2.83615201694977      0.15734701966029      0.14286937838698
  N   -1.79653829025271     -0.50476565428707      0.25381093761513
  H   -2.62237732694594     -0.28622252917066     -0.27509112020876
  H   -1.72185066741938     -1.46821497218289      0.53624007073538
