10
Coordinates from ORCA-job run
  C   0.59487845145206     -0.20911016067007      0.26193816463747
  C   -0.62870545304618      0.06074375369424     -0.23191428144366
  H   0.85876792109723     -1.01598064933806      0.93135166858824
  H   -0.73379313423645      0.90708911066369     -0.90286559216665
  N   1.71416904959515      0.62152895703518     -0.10775362591875
  O   1.53778457330367      1.56944270559344     -0.87349905929695
  O   2.79950794070650      0.31419236477911      0.39029611955653
  N   -1.75542993884608     -0.68206100630343     -0.02501712492855
  H   -2.63687235848606     -0.22457444412830     -0.17757425301557
  H   -1.75130705153984     -1.34227063132579      0.73503798398788
