10
Coordinates from ORCA-job run
  C   0.34930865111709      0.58541336180770      0.04793715905690
  C   -0.44716402878312     -0.50073837288479      0.03659648496357
  H   0.04785003716587      1.60642657655068      0.23615571076684
  H   0.00817295916536     -1.46562816547720     -0.16146752048382
  N   1.76225566919528      0.43790905243490     -0.19854185238063
  O   2.42401116595633      1.47805262647099     -0.17350275092914
  O   2.22468989572879     -0.68151222850848     -0.42020216531204
  N   -1.78114665752925     -0.51707592690341      0.32533772939305
  H   -2.27712491272326      0.35891935283050      0.31716909720735
  H   -2.31085277929308     -1.30276627632087     -0.00848189228206
