10
Coordinates from ORCA-job run
  C   0.54480076093068      0.08170188846730      0.41919272577841
  C   -0.58454289358136     -0.12953914529827     -0.28842248920671
  H   0.71194753343289     -0.16027745626551      1.45922340886910
  H   -0.59422584316622      0.17145296744862     -1.33096326736474
  N   1.68150870538926      0.68757265491466     -0.22269069090387
  O   1.60699595466808      1.01234325807995     -1.40896876186782
  O   2.68066301172075      0.84312210370559      0.48351843907964
  N   -1.72620834540793     -0.68627039098308      0.18105253299071
  H   -2.51418618059176     -0.81750038824736     -0.42266135344560
  H   -1.80675270339439     -1.00160549182191      1.13071945607088
