10
Coordinates from ORCA-job run
  C   0.50076465199999      0.15446080112914      0.43883216479861
  C   -0.58045966753478     -0.14343464020236     -0.30718027988605
  H   0.59604078111669      0.04772348129286      1.51042412692863
  H   -0.52611956175278      0.03040069128276     -1.37696579867612
  N   1.68033493833527      0.68988222729427     -0.19446988151127
  O   1.68662380646835      0.86549779879138     -1.41314431227783
  O   2.62787030403359      0.93671652082437      0.55508058433834
  N   -1.78250492384208     -0.58373367514466      0.16651930934454
  H   -2.38601745386259     -1.05254536325904     -0.48566862201977
  H   -1.81653287496167     -0.94496784200870      1.10557270896093
