10
Coordinates from ORCA-job run
  C   0.54920675286215     -0.07924632778412     -0.39914197720622
  C   -0.61605351818905      0.04142791939910      0.26550925929689
  H   0.71763423073560     -0.62782967179184     -1.31533430157587
  H   -0.62747570419238      0.63686523894988      1.17262163804831
  N   1.73014525045649      0.57737492657445      0.10395910688085
  O   2.75784931913146      0.41703425667153     -0.55828128148690
  O   1.65964915237764      1.24074925867526      1.13887731591147
  N   -1.81955647848506     -0.46327614571666     -0.13323991045883
  H   -2.52761035091414     -0.57027695347668      0.57124731884730
  H   -1.82278865378271     -1.17382250150092     -0.84621716825699
