10
Coordinates from ORCA-job run
  C   0.60794987542055     -0.06879866130787      0.30367479427755
  C   -0.62519552336557     -0.07045102315701     -0.23801189664385
  H   0.94276505457073     -0.65150177422140      1.15053166197127
  H   -0.80709506583485      0.56898707207622     -1.09570858733218
  N   1.63624865781037      0.76896441630349     -0.26187064709234
  O   1.37427335815429      1.47554712735740     -1.23554982700524
  O   2.73614202716826      0.71890374043601      0.29343145350059
  N   -1.66667942846199     -0.86503420699578      0.14670581768032
  H   -2.58953482979184     -0.56127421901959     -0.10949692132255
  H   -1.60787412566995     -1.31534247147147      1.04529415196644
