10
Coordinates from ORCA-job run
  C   0.57789773872286      0.17737519738907      0.73098384919548
  C   -0.74361753055013     -0.09534448252392      0.57750032755611
  H   1.02471433617226      0.38749456276099      1.68976440673403
  H   -1.33952017728076     -0.09820904630788      1.48602342849673
  N   1.49526230550892      0.23575402616710     -0.36058692641631
  O   1.07359682618260      0.01418240960300     -1.50787732377455
  O   2.66747217912015      0.51025032193773     -0.10035365509018
  N   -1.41172823691497     -0.42188062673729     -0.54918618431632
  H   -2.41472664074923     -0.39992763721378     -0.53974189605367
  H   -0.92935080021171     -0.30969472507502     -1.42652602633133
