10
Coordinates from ORCA-job run
  C   0.48381713176406      0.62426238077167      0.52528058975776
  C   -0.76223326517036      0.08519613445103      0.55460685611413
  H   0.81817209783932      1.36587987131169      1.23328279268018
  H   -1.41907685207959      0.44125216581074      1.34344190625919
  N   1.46320620483848      0.27539120320815     -0.45270057470949
  O   1.17052237009294     -0.56738619636354     -1.31695457484666
  O   2.55581283906103      0.83979261436460     -0.38509708621562
  N   -1.28077827188069     -0.88298577942555     -0.23110824543510
  H   -0.75624347149011     -1.15002145732214     -1.04876701752802
  H   -2.27319878297510     -1.03038093680665     -0.22198464607636
