10
Coordinates from ORCA-job run
  C   0.37171207236820      0.55915142737895      0.12371528606752
  C   -0.46116115539955     -0.48943688576787     -0.02061477480476
  H   0.11859117655155      1.53654018102350      0.51031574912351
  H   -0.05425334944518     -1.41437959600915     -0.41620833529667
  N   1.76045335475158      0.42492205985834     -0.23990717235470
  O   2.16877266046111     -0.64750030245263     -0.68619784748886
  O   2.45830960828199      1.42840934628187     -0.07712708200839
  N   -1.77370329134420     -0.52477429033720      0.35260259540114
  H   -2.35168110557775     -1.22454156730284     -0.07823421063466
  H   -2.23703997064775      0.35060962732702      0.53265579199588
