15

C	-0.42816	0.052285	-1.473198
C	0.0	0.0	0.0
F	-0.135357	-1.194585	-2.034583
H	1.096781	0.0	0.0
H	-1.519488	0.164695	-1.546468
C	0.306406	1.119699	-2.248827
H	0.049658	1.057201	-3.309044
H	1.381082	0.974796	-2.118561
H	0.038635	2.112353	-1.880337
N	-0.460447	-1.178845	0.726842
H	-1.362553	-1.474344	0.368987
H	0.20339	-1.918798	0.536222
C	-0.493504	1.217975	0.654261
N	-0.941487	2.194786	1.128352
Cl	3.37706	0.0	0.0
