15

C	-0.50648	-0.013099	-1.441555
C	0.0	0.0	0.0
F	0.003138	1.102612	-2.099288
H	1.100105	0.0	0.0
H	-0.075626	-0.895391	-1.927867
C	-2.011892	0.005751	-1.568415
H	-2.301433	-0.072247	-2.619077
H	-2.401184	0.946133	-1.171332
H	-2.439926	-0.823414	-1.005985
N	-0.490952	-1.229448	0.67308
H	0.2158	-1.937267	0.488719
H	-0.451455	-1.073715	1.67471
C	-0.507132	1.178625	0.700829
N	-0.957728	2.099039	1.274184
Cl	3.3747	0.0	0.0
