15

C	-0.500622	-0.032882	-1.442679
C	0.0	0.0	0.0
F	-0.05513	1.11792	-2.088043
H	1.100067	0.0	0.0
H	-0.017608	-0.882542	-1.936983
C	-2.004006	-0.101824	-1.573636
H	-2.379971	-0.978216	-1.047486
H	-2.285076	-0.155822	-2.628255
H	-2.453556	0.794487	-1.14066
N	-0.473641	-1.229582	0.686029
H	0.270247	-1.912126	0.554531
H	-0.492238	-1.045037	1.683956
C	-0.520119	1.179953	0.686146
N	-0.987133	2.095017	1.255311
Cl	3.363898	0.0	0.0
