15

C	-0.376569	-0.013687	-1.480457
C	0.0	0.0	0.0
F	-1.77359	-0.168761	-1.598786
H	1.096358	0.0	0.0
H	-0.133743	0.956835	-1.923742
C	0.306557	-1.131614	-2.231749
H	1.388839	-1.034095	-2.113692
H	0.043195	-1.092951	-3.290868
H	-0.007417	-2.099382	-1.835352
N	-0.454428	-1.165851	0.750228
H	-1.354964	-1.472537	0.398661
H	0.224369	-1.910067	0.643386
C	-0.514702	1.222522	0.628337
N	-0.931271	2.214388	1.098335
Cl	3.3787	0.0	0.0
