13

C	0.0	0.0	0.0
C	-0.315074	-0.081187	-1.505499
F	1.395568	0.0	0.0
H	0.039284	-1.062255	-1.84107
H	-0.290349	-0.913479	0.536466
H	0.352775	0.664101	-1.949686
N	-0.505953	1.205917	0.5755
H	-1.503714	1.235591	0.371284
H	-0.426376	1.162939	1.584825
N	-1.651228	0.142307	-2.007029
H	-2.345258	-0.423231	-1.529033
H	-1.94229	1.093601	-1.824185
Br	-4.321357	0.0	0.0
