13

C	0.0	0.0	0.0
C	-0.50907	0.199801	-1.415401
F	1.41045	0.0	0.0
H	-0.581351	1.285896	-1.608596
H	-0.287817	-0.999054	0.332076
H	0.245784	-0.205067	-2.096694
N	-0.537948	0.955575	0.886774
H	-0.299035	0.774332	1.850228
H	-0.287384	1.898981	0.627161
N	-1.745592	-0.549326	-1.573498
H	-2.464587	-0.240804	-0.916629
H	-2.133895	-0.391082	-2.494815
Br	-4.922215	0.0	0.0
