13

C	0.0	0.0	0.0
C	-0.490699	-0.329938	-1.388285
F	1.427362	0.0	0.0
H	-1.582435	-0.3355	-1.327064
H	-0.285957	-0.775454	0.71404
H	-0.140459	-1.334686	-1.662258
N	-0.493187	1.249116	0.407097
H	-0.129683	1.543559	1.299781
H	-0.344773	1.936193	-0.317781
N	-0.049312	0.717298	-2.315359
H	0.91086	0.544845	-2.584558
H	-0.624129	0.698836	-3.146444
Br	-4.42703	0.0	0.0
