13

C	0.0	0.0	0.0
C	-0.478798	0.297159	-1.404928
F	1.421282	0.0	0.0
H	-1.571416	0.297144	-1.3736
H	-0.296232	-1.006044	0.305734
H	-0.14274	1.307854	-1.67046
N	-0.492968	0.938082	0.924116
H	-0.241534	1.8842	0.679443
H	-0.237724	0.730382	1.877046
N	0.00227	-0.63743	-2.419803
H	0.980216	-0.832638	-2.237508
H	-0.50634	-1.508268	-2.32309
Br	-4.271038	0.0	0.0
