13

C	0.0	0.0	0.0
C	-0.505474	-0.276219	-1.407806
F	1.416603	0.0	0.0
H	0.236301	-0.906848	-1.90522
H	-0.282833	-0.80958	0.676532
H	-1.452329	-0.816609	-1.318643
N	-0.497592	1.22441	0.476987
H	-0.210606	1.971054	-0.140371
H	-0.237071	1.40472	1.433313
N	-0.659337	0.982815	-2.14938
H	-0.600002	0.793385	-3.142363
H	-1.603895	1.307294	-1.963795
Br	-4.209446	0.0	0.0
