13

C	0.0	0.0	0.0
C	-0.295287	-0.365691	-1.468844
F	1.387292	0.0	0.0
H	0.305207	0.345533	-2.053202
H	-0.353428	-0.767799	0.693125
H	0.138347	-1.355509	-1.651606
N	-0.501344	1.261862	0.44588
H	-1.481384	1.141431	0.69132
H	-0.459507	1.932383	-0.313865
N	-1.652505	-0.344148	-1.966668
H	-2.080067	0.553727	-1.777213
H	-2.245683	-0.976552	-1.44166
Br	-4.294443	0.0	0.0
