13

C	0.0	0.0	0.0
C	-0.411618	0.358085	-1.423498
F	1.411873	0.0	0.0
H	0.081812	-0.346957	-2.100635
H	-0.31578	-1.008411	0.277356
H	0.034362	1.342136	-1.627268
N	-0.524878	0.926688	0.929094
H	-0.366991	0.649631	1.886581
H	-0.153014	1.85232	0.765497
N	-1.82526	0.402921	-1.713537
H	-2.245893	-0.517544	-1.677049
H	-2.329301	0.918129	-0.999311
Br	-4.906799	0.0	0.0
