13

C	0.0	0.0	0.0
C	-0.407271	0.216087	-1.446172
F	1.415117	0.0	0.0
H	-0.024299	-0.616384	-2.057854
H	-0.321767	-0.988623	0.345697
H	-1.498653	0.198547	-1.468327
N	-0.467661	0.991513	0.909149
H	-0.452882	1.876867	0.411274
H	-1.447784	0.776878	1.091961
N	0.073543	1.530655	-1.883343
H	-0.396808	1.799936	-2.736989
H	1.066562	1.475736	-2.069241
Br	-3.838524	0.0	0.0
