13

C	-0.559422	0.047449	-1.402324
C	0.0	0.0	0.0
F	-1.917902	0.176781	-1.377669
H	1.091955	0.0	0.0
H	-0.309617	0.927358	0.493593
C	0.005426	1.141049	-2.199939
N	0.41173	2.053304	-2.816251
N	-0.253062	-1.27142	-2.132842
O	0.87874	-1.373247	-2.582788
O	-1.156877	-2.094973	-2.157932
C	-0.541438	-1.132731	0.740398
N	-0.984905	-2.033553	1.348825
Br	3.382648	0.0	0.0
