13

C	-0.469742	0.250375	-1.420213
C	0.0	0.0	0.0
F	-0.052485	-0.720314	-2.25809
H	1.091665	0.0	0.0
H	-0.335998	0.822113	0.6351
C	-1.930165	0.40132	-1.541505
N	-3.094371	0.536752	-1.622941
N	0.129102	1.585707	-1.896794
O	0.790446	1.570478	-2.918497
O	-0.159607	2.546233	-1.194918
C	-0.534727	-1.263621	0.48456
N	-0.986533	-2.275361	0.872243
Br	3.386473	0.0	0.0
