13

C	-0.531006	0.110973	-1.41
C	0.0	0.0	0.0
F	-1.899098	0.120937	-1.428488
H	1.092102	0.0	0.0
H	-0.354874	-0.952213	0.404715
C	-0.041611	1.283206	-2.143119
N	0.318957	2.259987	-2.688334
N	-0.102475	-1.161676	-2.153599
O	0.888354	-1.087015	-2.863182
O	-0.779201	-2.149964	-1.91158
C	-0.513389	1.09931	0.806684
N	-0.937929	1.980671	1.456058
Br	3.339868	0.0	0.0
