13

C	-0.485608	-0.084294	-1.436875
C	0.0	0.0	0.0
F	-0.079738	-1.257074	-1.973866
H	1.093955	0.0	0.0
H	-0.316681	-0.931135	0.481542
C	-1.946874	0.025184	-1.578583
N	-3.116995	0.062128	-1.67711
N	0.11492	1.051006	-2.280083
O	-0.251961	2.171377	-1.94364
O	0.856165	0.740499	-3.194648
C	-0.546753	1.127629	0.738802
N	-0.998463	2.002009	1.378629
Br	3.388343	0.0	0.0
