13

C	-0.470493	-0.031289	-1.441346
C	0.0	0.0	0.0
F	-0.073181	-1.1563	-2.068999
H	1.094814	0.0	0.0
H	-0.332855	0.932274	0.461334
C	-1.928198	0.116964	-1.591136
N	-3.09312	0.220826	-1.700187
N	0.15362	1.171268	-2.173147
O	0.832108	0.939389	-3.156569
O	-0.130591	2.258418	-1.687363
C	-0.536606	-1.141919	0.725595
N	-0.991574	-2.054628	1.307271
Br	3.38533	0.0	0.0
