13

C	-0.458342	-0.029534	-1.443546
C	0.0	0.0	0.0
F	-0.07239	1.076056	-2.108585
H	1.093542	0.0	0.0
H	-0.338337	-0.910294	0.499888
C	-0.018231	-1.23565	-2.15552
N	0.289145	-2.203769	-2.745012
N	-2.003218	-0.061192	-1.477689
O	-2.507654	-1.06333	-0.986646
O	-2.577756	0.905066	-1.952434
C	-0.533789	1.173555	0.677473
N	-0.978606	2.111176	1.226327
Br	3.387695	0.0	0.0
