10
Coordinates from ORCA-job run
  C   -0.74277549502735     -0.30890379963846     -0.03657477553587
  C   0.57484651729303     -0.26484043646871      0.33088306954132
  H   -1.33697962955664     -1.17425151365462      0.24284785344641
  N   -1.39801198906523      0.67065262224100     -0.68850503644009
  H   -0.88402913400546      1.44950155634517     -1.07113358869890
  H   -2.30697539808026      0.48873040443421     -1.07388516858997
  C   1.36197795635387      0.86465710881218     -0.04081516523341
  N   1.92820920102820      1.83396888977785     -0.39437322777105
  C   1.16225743244795     -1.33569853306732      1.06487980019834
  N   1.64048053861188     -2.22481629878131      1.66767623908323
