10
Coordinates from ORCA-job run
  C   -0.72937262182366     -0.33115224558479     -0.06611688978975
  C   0.59208230929339     -0.28126714080656      0.28711274818073
  H   -1.30965517089603     -1.21070016737192      0.19725609555390
  N   -1.38088901420530      0.61846892576745     -0.76308521679297
  H   -0.93483469776198      1.50397768169271     -0.94822446718081
  H   -2.38068268360744      0.58128489230201     -0.84319131926380
  C   1.35634952318425      0.87476756034914     -0.04842712684107
  N   1.89767235197672      1.87044320874168     -0.36673299758232
  C   1.19944997100631     -1.36431036069261      0.98595687540918
  N   1.69088003283373     -2.26251235439710      1.56445229830691
