10
Coordinates from ORCA-job run
  C   -0.47607582247437      0.16979394759373     -0.62505306367355
  C   0.71484723873012     -0.01748134326484      0.02311131571882
  H   -0.46349034773535      0.48863659678661     -1.66326005176603
  N   -1.69163780683770     -0.04960716634736     -0.09000947070226
  H   -1.78156062890165     -0.24426889531076      0.89557665115204
  H   -2.51376017417875      0.26165710133615     -0.57438356128540
  C   1.95149886798045      0.19869205120215     -0.65084929551365
  N   2.96675941203672      0.38172631474941     -1.21535959857685
  C   0.70405961516418     -0.42753087573149      1.38870504447492
  N   0.58835964621635     -0.76161773101361      2.51152203017196
