10
Coordinates from ORCA-job run
  C   -0.73820535018667     -0.31495309886672     -0.05653889649732
  C   0.57574378204741     -0.27146481913292      0.32328788586088
  H   -1.32609150339876     -1.19453690224243      0.18918718612352
  N   -1.39649868132382      0.67830403207894     -0.68369017615003
  H   -0.88589893140953      1.47247409632574     -1.03888341952393
  H   -2.30353897809952      0.50369349190518     -1.07672231889695
  C   1.35567909082171      0.87786890138087      0.00175915536951
  N   1.91588532708203      1.86407280826103     -0.31290272252752
  C   1.16354572298075     -1.35738063413016      1.03472571531306
  N   1.63937952148640     -2.25907787557952      1.62077759092878
