10
Coordinates from ORCA-job run
  C   -0.38509065967589      0.23450965896464     -0.66685150441978
  C   0.70289933314116     -0.00367268167486      0.12862750445086
  H   -0.22698623948446      0.59178016255737     -1.68018253021346
  N   -1.66913253364702      0.10886230866967     -0.28008594146145
  H   -1.88735323679851     -0.31942427813994      0.60660225446691
  H   -2.39883368475181      0.13148665026201     -0.96918839226621
  C   2.02388249507761      0.21355083567866     -0.35952761065838
  N   3.11077985697948      0.39393070563671     -0.77059452051519
  C   0.49972543247998     -0.47960505876924      1.45725455756409
  N   0.23010923667947     -0.87141830318502      2.53394618305262
