10
Coordinates from ORCA-job run
  C   -0.47855014877237      0.18621412950591     -0.61902614142771
  C   0.71425684456359      0.00046967413569      0.02606402494836
  H   -0.46979733891115      0.54884568795044     -1.64272531651131
  N   -1.69021164609871     -0.08922087329001     -0.10103931469061
  H   -2.51718335398486      0.22844873405462     -0.57297246637290
  H   -1.77876838873179     -0.32875555006813      0.87463412512532
  C   1.94793676844398      0.27425623935407     -0.63252938948761
  N   2.96094385353147      0.50440981362104     -1.18354795583502
  C   0.70978556848725     -0.46989271319498      1.37216850391380
  N   0.60158784147259     -0.85577514206864      2.47897393033767
