10
Coordinates from ORCA-job run
  C   -0.68502599562136     -0.39230761608673     -0.15328323256027
  C   0.57976545270465     -0.23412038422125      0.34511903031910
  H   -1.17236143975661     -1.35751846558933     -0.04910235163495
  N   -1.41416023908665      0.57656826395108     -0.73797481002095
  H   -0.98802579845858      1.46310239353140     -0.96066313095862
  H   -2.26376610691894      0.34112796630749     -1.21773271998456
  C   1.22835516385019      1.02822193119394      0.20916747782127
  N   1.68092727073748      2.10281471083836      0.04800382247887
  C   1.24587973140494     -1.31444951449384      0.99302545883480
  N   1.78741196114489     -2.21343928543113      1.52344045570531
