10
Coordinates from ORCA-job run
  C   -0.38619935662954      0.24378302244586     -0.66182893200232
  C   0.70456943362953     -0.02220027612300      0.12114014010848
  H   -0.22939954759351      0.59892552732106     -1.67614276677350
  N   -1.66797986697788      0.14296883159191     -0.26351155607691
  H   -2.40740030844452      0.20131359852210     -0.93954292153817
  H   -1.88803389498727     -0.27507218531680      0.62747396918079
  C   2.02439650088415      0.16364533469520     -0.38296343474269
  N   3.11009156444266      0.31848742475709     -0.80755177747558
  C   0.50523296719455     -0.49357098160961      1.45197106414648
  N   0.23572250848181     -0.87928029628382      2.53095621517343
