10
Coordinates from ORCA-job run
  C   -0.71219076673191     -0.36733532081042     -0.07863633053438
  C   0.58539603707236     -0.23473569093239      0.33566339757054
  H   -1.23924417860423     -1.29256927026646      0.13521549810134
  N   -1.42660954889040      0.58738251626893     -0.70394773922850
  H   -2.30734120602829      0.35369004359332     -1.12516388866394
  H   -0.97091697345092      1.42805666177088     -1.02466362691360
  C   1.23836811584185     -1.28919004930949      1.03712783625914
  N   1.76973816895889     -2.16546860023629      1.61389866885889
  C   1.28505854053190      0.97419780364142      0.04882789159554
  N   1.77774181130074      2.00397190628050     -0.23832170704504
