10
Coordinates from ORCA-job run
  C   -0.65501262421407     -0.37526553933147     -0.27633131559925
  C   0.52734423526360     -0.26492942284867      0.40428486700456
  H   -1.14542618920721     -1.34333845118125     -0.32215942819922
  N   -1.30186662505832      0.64201452367708     -0.87508642017058
  H   -2.07801720704788      0.45176588483584     -1.48227736282999
  H   -0.85797918660703      1.54352402630600     -0.96014451557895
  C   1.17992404387787      1.00157054339024      0.46094772470843
  N   1.64048165162710      2.08468767592554      0.44893254772360
  C   1.10818356033523     -1.39949082519267      1.04134316213766
  N   1.58136834103073     -2.34253841558064      1.56049074080376
