10
Coordinates from ORCA-job run
  C   -0.44993263175402      0.07204250445332     -0.66212136842493
  C   0.70880018589453      0.06912555624473      0.06639939650594
  H   -0.39422996901284      0.22938134420791     -1.73538446591903
  N   -1.68710471008469     -0.06564230520913     -0.15001344176778
  H   -1.80828905579631     -0.31586393965111      0.81934047973469
  H   -2.46843246888299     -0.20839829688891     -0.76357381063800
  C   1.96826215127892      0.26706919938021     -0.57001493020882
  N   3.00300790200306      0.42750355919737     -1.10509504686489
  C   0.64265593812218     -0.14506827995026      1.47454056579005
  N   0.48426265823218     -0.33114934178414      2.62592262179275
