10
Coordinates from ORCA-job run
  C   -0.66580498432549     -0.37638008777258     -0.24782029070853
  C   0.56807727014139     -0.27477004337945      0.33562009400466
  H   -1.17117569693800     -1.33774604600015     -0.24085594510627
  N   -1.30790218868087      0.62249612553002     -0.88192676442777
  H   -0.94640814691144      1.56293967754734     -0.83749162622093
  H   -2.27204152408978      0.51177202014835     -1.13777939902180
  C   1.18269539005029     -1.40995717416481      0.93901291943348
  N   1.68022077001182     -2.35280576272508      1.43522420401220
  C   1.23316803509204      0.98648379891513      0.33919772200757
  N   1.69817107565002      2.06696749190124      0.29581908602741
