10
Coordinates from ORCA-job run
  C   -0.68708159366744     -0.33852337351404     -0.24234896518356
  C   0.54519531930373     -0.30001667029385      0.35195396851301
  H   -1.25594110965456     -1.26324832283115     -0.20859737101165
  N   -1.25415658757415      0.67830800352528     -0.91785016339794
  H   -2.21958226772554      0.62189513530777     -1.18621012537097
  H   -0.83112307601234      1.59377646446877     -0.90288197809703
  C   1.07312542088002     -1.45141712648515      1.00488089567159
  N   1.49830395115248     -2.40688433759800      1.54269089044381
  C   1.29589874775475      0.91162946010674      0.31820125301879
  N   1.83636119554305      1.95448076731363      0.24116159541396
