10
Coordinates from ORCA-job run
  C   -0.45615127093435      0.05786089576170     -0.66033924845399
  C   0.71212277146073     -0.03453770878852      0.04662047931676
  H   -0.40871611004989      0.16420244188400     -1.74022797860519
  N   -1.69050739688705     -0.01327946058799     -0.12840758623402
  H   -1.81019535592515     -0.01212198719396      0.87294599002921
  H   -2.49037478023472      0.21904009868326     -0.68846996582828
  C   1.97121314823806      0.00667337674808     -0.61930967658523
  N   3.00579293198978      0.04619092585189     -1.17678183040544
  C   0.65708101698195     -0.16710367286739      1.46523726631320
  N   0.50973504536062     -0.26792490949106      2.62873255045296
