10
Coordinates from ORCA-job run
  C   -0.42269486074771      0.06152985680145     -0.68088334334844
  C   0.70946545828269      0.00928446692957      0.08641998048819
  H   -0.32337705300324      0.21737929205346     -1.75119273926577
  N   -1.67717540502603     -0.10843885339980     -0.22344916198493
  H   -2.45814224319517      0.10356375380722     -0.81719425226999
  H   -1.85052920058047     -0.15662319723421      0.76885618694410
  C   1.99695868701188      0.14964586966361     -0.50790166796151
  N   3.05398619350615      0.26602246481182     -1.00973575313653
  C   0.58757447085855     -0.18849123021596      1.49319441498719
  N   0.38493395289335     -0.35387242321717      2.64088633554768
