10
Coordinates from ORCA-job run
  C   -0.46674735416401      0.20340002702218     -0.62281034379203
  C   0.71350685225837     -0.02213671767751      0.03209045371387
  H   -0.43698559014416      0.57830093849372     -1.64205828172859
  N   -1.69118424374519     -0.05018992947582     -0.12282125826462
  H   -2.50342535071152      0.30381348516933     -0.59453668912253
  H   -1.79560218468320     -0.29767041280038      0.84928401555988
  C   1.96103724487061      0.23510471911048     -0.60664838952125
  N   2.98552493265446      0.45272440250629     -1.14106233289654
  C   0.68263152616544     -0.50598071839322      1.37305715245707
  N   0.55324416749919     -0.89736579395509      2.47550567359474
