10
Coordinates from ORCA-job run
  C   -0.69608768167982     -0.37141327762876     -0.15487759524912
  C   0.58757166815610     -0.26619449469025      0.30848842278168
  H   -1.22789477961194     -1.30867620672734     -0.01828526155689
  N   -1.36296347843961      0.59388832538529     -0.81414439408555
  H   -0.96968496154912      1.51903884337053     -0.89261057152839
  H   -2.34631069164668      0.49401156176952     -0.98824586093929
  C   1.28778987733907      0.96453982143515      0.14201843048853
  N   1.78041380309127      2.01846146295264     -0.03745596119334
  C   1.21825873698644     -1.36617792526806      0.95900532136045
  N   1.72890750735430     -2.27847811059870      1.49710746992192
