10
Coordinates from ORCA-job run
  C   -0.70609678351414     -0.36377872396000     -0.12575029519749
  C   0.59727950384673     -0.27397857410587      0.28209386176086
  H   -1.21237803138518     -1.32214320984255     -0.05602360670996
  N   -1.44820846712333      0.66376035904096     -0.57869315039634
  H   -1.01607558344038      1.55591986259252     -0.76410749960844
  H   -2.33900593907386      0.48650070390567     -1.00584200347815
  C   1.27051485682469      0.97920043156413      0.18358423432485
  N   1.73768136241666      2.05259521328840      0.06089407675567
  C   1.28042585364988     -1.41549186344706      0.79248834621190
  N   1.83586322779893     -2.36358419903621      1.21135603633711
