10
Coordinates from ORCA-job run
  C   -0.72243585302416     -0.34435160173380     -0.07768777629662
  C   0.59308640216575     -0.27071805736253      0.29286178255013
  H   -1.26165271652236     -1.27262780850546      0.08752128118129
  N   -1.43750344500444      0.66876697818164     -0.60171839711425
  H   -2.34195108676176      0.48821808362744     -0.99780557882570
  H   -0.97487237007598      1.52166979785853     -0.87698472956110
  C   1.31019796624659      0.94180894136268      0.07280926525436
  N   1.81575470395048      1.98012471576180     -0.15485138433395
  C   1.24454741913142     -1.39099288139216      0.88537224331961
  N   1.77382897989446     -2.32289816779815      1.36948329382623
