10
Coordinates from ORCA-job run
  C   -0.42283651890203      0.40382477418907     -0.55206074957211
  C   0.70930467186477     -0.03839723458948      0.07712013757489
  H   -0.32126398511343      1.01950524009391     -1.44134442085585
  N   -1.68222545030208      0.17632911264412     -0.13265394598988
  H   -2.45262286771788      0.37815394551885     -0.74387186326992
  H   -1.84959775623951     -0.47655878411885      0.61768989811826
  C   1.99936891062303      0.30880733742269     -0.41901830750468
  N   3.05923698997648      0.59939004222410     -0.83762997666127
  C   0.58403902835499     -0.85293952430270      1.24091375182475
  N   0.37759697745567     -1.51811490908170      2.18985547633581
