10
Coordinates from ORCA-job run
  C   -0.75884550777825     -0.26271274717058      0.04239319552629
  C   0.58662480939287     -0.28400005468385      0.29226634419787
  H   -1.37464491417328     -1.07384736793964      0.42062451938964
  N   -1.41140169558401      0.71972742518357     -0.60779335371669
  H   -2.35858030111200      0.57283236377618     -0.90634173012559
  H   -0.88774424982475      1.44162524614140     -1.07890598663171
  C   1.40260738030017      0.77354805298025     -0.20711422876639
  N   1.98976034675961      1.68750572564539     -0.66044149253791
  C   1.16979389828042     -1.34588645106951      1.04280315234055
  N   1.64143023373920     -2.22779219286320      1.66150958032393
