10
Coordinates from ORCA-job run
  C   -0.75037004058117     -0.28832731687974      0.00171031800562
  C   0.58782935141922     -0.28651361752924      0.28909689620083
  H   -1.35054125897940     -1.14101153473862      0.30580963118569
  N   -1.41427406576383      0.71480882153018     -0.60223221081841
  H   -2.35630468449702      0.57193601170931     -0.91764897884675
  H   -0.90585785648116      1.48981391260215     -0.99962923776344
  C   1.38297384995274      0.82680344371335     -0.11237284995610
  N   1.95360535361601      1.78593877417743     -0.48645021146287
  C   1.18486125665805     -1.38180123133379      0.97781993040828
  N   1.66807809465657     -2.29164726325105      1.54489671304716
