10
Coordinates from ORCA-job run
  C   -0.59245446430339     -0.42652335577955     -0.34065115856279
  C   0.53909852525885     -0.23417990386014      0.40482071585330
  H   -0.96066425154068     -1.43817942821710     -0.48425329930878
  N   -1.33392353031052      0.55429903420624     -0.88900003961320
  H   -0.99701494463291      1.50485356838629     -0.88256789230131
  H   -2.05036694512769      0.32585825529368     -1.55385755269368
  C   1.02968974626880      1.09107124752050      0.59428387937320
  N   1.35874694847826      2.21700162412588      0.69245274565886
  C   1.22325587447788     -1.33886159754183      0.98963610334337
  N   1.78363304143141     -2.25533944413397      1.46813649825102
