10
Coordinates from ORCA-job run
  C   -0.66892577001022     -0.40020552818168     -0.19733469758760
  C   0.58499584116933     -0.24617853962739      0.32926696758070
  H   -1.15713859426570     -1.36693680508139     -0.11495241098980
  N   -1.35206818869797      0.55069545870825     -0.86140780734956
  H   -1.00453769738363      1.49703569016603     -0.88762155539730
  H   -2.32269019267633      0.41073224045716     -1.07510938083269
  C   1.22879037024717      1.02217179500319      0.22995939045283
  N   1.67406016537796      2.10417777383327      0.10140172524248
  C   1.24253575578721     -1.33436330296316      0.97263297155601
  N   1.77597831045219     -2.23812878231429      1.50316479732494
