10
Coordinates from ORCA-job run
  C   -0.70466520129665     -0.36222695611661     -0.13770182403496
  C   0.60080687908266     -0.28171851770479      0.26588503220193
  H   -1.22947872758153     -1.30682747977961     -0.02940452483845
  N   -1.40083160518149      0.63722586711556     -0.71067404222208
  H   -2.39314713153994      0.54891375697277     -0.83249470855054
  H   -1.01029626151584      1.56619769604334     -0.75111401861483
  C   1.29449330903290      0.95645499890141      0.12896316582019
  N   1.77838879073976      2.01894690918058     -0.02123505425639
  C   1.26353808541553     -1.41656081756746      0.81653494771348
  N   1.80119186284460     -2.35840545704519      1.27124102678165
