10
Coordinates from ORCA-job run
  C   -0.44158181300653      0.00957166779718     -0.67219156121960
  C   0.71173872543091      0.01060676693306      0.06474491049574
  H   -0.37147249932364     -0.00757409937000     -1.75596437095253
  N   -1.68594681330081      0.07156604086766     -0.16267920001156
  H   -1.82868082682192     -0.01187370948664      0.83218136051201
  H   -2.47786874220881     -0.09383867324765     -0.75674148261697
  C   1.98443866732937     -0.00986329162761     -0.57576115485649
  N   3.02999447179957     -0.02932186633687     -1.11362008624692
  C   0.62655980721132      0.02635560175429      1.48793422011407
  N   0.45281902289054      0.03637156271659      2.65209736478226
