10
Coordinates from ORCA-job run
  C   -0.62766919638748     -0.39284949408208     -0.31416880086752
  C   0.54925949072229     -0.26527226025238      0.37267455470190
  H   -1.04464081359504     -1.38506780892615     -0.46058110548770
  N   -1.35488485143535      0.63010628804220     -0.80074006851915
  H   -2.11713312401958      0.44720302229737     -1.42760120651269
  H   -0.97887383274901      1.56583272461713     -0.79083790393484
  C   1.10534037862426      1.03386940496931      0.56248958500640
  N   1.48476207220456      2.14358332766646      0.66304399502339
  C   1.21869537904339     -1.41258703314334      0.88832787198042
  N   1.76514449759196     -2.36581817118853      1.30739307860978
