10
Coordinates from ORCA-job run
  C   -0.69147512905945     -0.35273837706221     -0.21243163677740
  C   0.53938664119232     -0.27312052017047      0.38065505921463
  H   -1.23049296702351     -1.29511796842744     -0.17836727082133
  N   -1.32842957059104      0.66892882606052     -0.81465011614972
  H   -0.84530720541321      1.53964895861560     -0.97424515383317
  H   -2.14840231919714      0.48965715583295     -1.36495956651439
  C   1.25469232598391      0.95943804973333      0.33206239253306
  N   1.76716835490204      2.01468889266435      0.23511544084866
  C   1.10912818730098     -1.40557837707323      1.03144852072097
  N   1.57373168190511     -2.34580664017341      1.56337233077870
