10
Coordinates from ORCA-job run
  C   -0.38810568450194      0.01000489051245     -0.70518347137240
  C   0.70206094572035      0.05160964123860      0.12134938674987
  H   -0.23346097609741      0.04704937963535     -1.77963857764287
  N   -1.66931833917759     -0.03263287922199     -0.29459968460772
  H   -2.39979569500208     -0.22375874762695     -0.95585733369152
  H   -1.88156864760207     -0.17053524019964      0.68160416500211
  C   2.01912379749513      0.14689665659741     -0.41430099921885
  N   3.10269159873844      0.22535988115561     -0.86446211032099
  C   0.50571764948284     -0.00188383113225      1.53267041547926
  N   0.24065535094435     -0.05210975095857      2.67841820962309
