10
Coordinates from ORCA-job run
  C   -0.61694505162654     -0.41970163374522     -0.30096200330614
  C   0.54694286870221     -0.23593046847859      0.39537617250705
  H   -1.02038269592331     -1.42410013832467     -0.39300982674794
  N   -1.34632119709052      0.56241823313821     -0.86264771100312
  H   -2.09653034369401      0.33222472989242     -1.48840390557240
  H   -0.98181505032577      1.50186222889459     -0.90301489241993
  C   1.08408079311163      1.07956204587146      0.51408447265753
  N   1.44545696596213      2.19909009191493      0.55500617403425
  C   1.21876244632699     -1.33986554529659      0.99570933431959
  N   1.76675126455719     -2.25655954386655      1.48786218553111
