10
Coordinates from ORCA-job run
  C   -0.45453437211081      0.25406229967906     -0.61235786064783
  C   0.71251592919467     -0.04039949858515      0.03921329869955
  H   -0.40457337391171      0.68700077029297     -1.60713368139393
  N   -1.69034316729916      0.01045473606589     -0.13683867825366
  H   -1.81289936178670     -0.29152171547923      0.81756727013748
  H   -2.48869982018845      0.40511783612733     -0.59984768354792
  C   0.65459790746470     -0.60114705900494      1.34884615319452
  N   0.50421911085263     -1.05596693446133      2.42413982066859
  C   1.97247773091875      0.20951130736119     -0.57745100801821
  N   3.00623941686608      0.42188825800420     -1.09613763083858
