10
Coordinates from ORCA-job run
  C   -0.41045549999979      0.18827094566642     -0.66512840962415
  C   0.70763188802622     -0.01627906003460      0.09717226230433
  H   -0.29192961046555      0.53830020183701     -1.68641328746588
  N   -1.67418254036261     -0.05211039041585     -0.26704393896746
  H   -1.86404087489371     -0.26917030633645      0.69948064574986
  H   -2.44100438142096      0.28454163873210     -0.82048581733920
  C   0.55915557956623     -0.46917990288861      1.44101575628715
  N   0.33445987980589     -0.83986648823671      2.53549316168476
  C   2.00648905682079      0.21823060148339     -0.44017201203980
  N   3.07287650292349      0.41726276019331     -0.89391836058961
