10
Coordinates from ORCA-job run
  C   -0.70474200960805     -0.36499597132232     -0.12868759022851
  C   0.58585536012901     -0.26126286588276      0.31475106979632
  H   -1.25086159667923     -1.28509679102384      0.05774417722522
  N   -1.36101668904301      0.57841889316925     -0.83049358962195
  H   -0.95615110477411      1.49563757044241     -0.94060087752891
  H   -2.35204088304543      0.49541138656537     -0.96700172776219
  C   1.20711896785971     -1.34343911067212      1.00293206452052
  N   1.70840248155198     -2.24244255093863      1.57142478039830
  C   1.30645707188791      0.94642213232214      0.07949609681926
  N   1.81597840172122      1.98034730734050     -0.15956440361807
