18

C	-0.493535	0.032162	-1.452596
C	0.0	0.0	0.0
Cl	0.083262	-1.49503	-2.220426
H	1.087445	0.0	0.0
N	-1.935696	0.0044	-1.530364
H	-2.291406	0.838072	-1.0768
H	-2.207352	0.018813	-2.50668
C	0.221578	1.163958	-2.18706
H	1.300425	1.090398	-2.028788
H	0.005747	1.082654	-3.25529
H	-0.139424	2.127248	-1.825313
N	-0.560515	-1.153447	0.770498
O	0.082361	-2.194377	0.761262
O	-1.636783	-0.96944	1.337328
N	-0.399358	1.209397	0.801025
O	-1.167922	2.045819	0.319548
O	0.092496	1.269323	1.920253
Cl	3.223213	0.0	0.0
