14

C	-0.575678	0.005605	-1.424558
C	0.0	0.0	0.0
Br	0.131565	-1.577391	-2.352014
H	1.092781	0.0	0.0
H	-0.320832	-0.925809	0.489167
C	-2.100428	-0.076201	-1.439709
H	-2.419985	-0.973707	-0.90621
H	-2.516563	0.804742	-0.943956
H	-2.473403	-0.119849	-2.46396
C	-0.148606	1.184088	-2.176656
N	0.091457	2.15477	-2.795383
C	-0.523179	1.136381	0.752787
N	-0.987567	2.045766	1.333567
Cl	3.301829	0.0	0.0
