14

C	-0.577925	-0.009063	-1.426167
C	0.0	0.0	0.0
Br	0.132845	-1.596306	-2.338093
H	1.092797	0.0	0.0
H	-0.320222	-0.921539	0.497523
C	-2.102817	-0.08955	-1.436929
H	-2.475582	-0.141886	-2.460211
H	-2.422999	-0.982911	-0.894741
H	-2.517497	0.79579	-0.94789
C	-0.143623	1.166087	-2.179713
N	0.159536	2.142224	-2.761167
C	-0.519868	1.143223	0.743608
N	-0.987212	2.062452	1.307768
Cl	3.301645	0.0	0.0
