14

C	-0.569173	0.004342	-1.426568
C	0.0	0.0	0.0
Br	0.122602	-1.548904	-2.412706
H	1.092727	0.0	0.0
H	-0.316254	0.93131	0.486522
C	-2.095226	-0.053548	-1.455979
H	-2.438297	-0.972206	-0.978337
H	-2.497034	0.805907	-0.909965
H	-2.460983	-0.025096	-2.483235
C	-0.122992	1.206144	-2.130085
N	0.128751	2.204463	-2.697433
C	-0.52275	-1.122296	0.769497
N	-0.983896	-2.009173	1.386158
Cl	3.297155	0.0	0.0
