14

C	-0.38957	0.080686	-1.4807
C	0.0	0.0	0.0
Br	-2.35824	0.267802	-1.682097
H	1.095988	0.0	0.0
H	-0.363582	-0.923609	0.455442
C	0.301696	1.254537	-2.160558
H	-0.022024	2.187392	-1.695555
H	0.067853	1.281748	-3.225754
H	1.379489	1.134655	-2.008323
C	-0.055871	-1.180473	-2.139807
N	0.192826	-2.200143	-2.668928
C	-0.484793	1.149757	0.751231
N	-0.874032	2.077389	1.356998
Cl	3.289114	0.0	0.0
