14

C	-0.501169	-0.000924	-1.450092
C	0.0	0.0	0.0
Br	0.176842	1.651645	-2.284174
H	1.093709	0.0	0.0
H	-0.335903	0.906421	0.512104
C	0.02089	-1.214199	-2.211697
H	-0.386971	-2.123575	-1.760513
H	1.110201	-1.227432	-2.12766
H	-0.280424	-1.169834	-3.259469
C	-1.962001	0.079488	-1.510816
N	-3.13778	0.109944	-1.536578
C	-0.509742	-1.169768	0.707469
N	-0.917621	-2.123508	1.259046
Cl	3.142735	0.0	0.0
