14

C	-0.408188	0.064718	-1.472931
C	0.0	0.0	0.0
Br	-2.353372	0.445694	-1.622872
H	1.095875	0.0	0.0
H	-0.317338	0.92841	0.484542
C	0.372626	1.171975	-2.16975
H	0.140499	2.130411	-1.699905
H	1.43896	0.964817	-2.039072
H	0.117398	1.220888	-3.228516
C	-0.201383	-1.216353	-2.144391
N	-0.022553	-2.245237	-2.684436
C	-0.558276	-1.134826	0.716877
N	-1.022145	-2.042487	1.299397
Cl	3.304744	0.0	0.0
