14

C	-0.571985	0.022604	-1.425054
C	0.0	0.0	0.0
Br	0.098181	-1.52934	-2.423413
H	1.092743	0.0	0.0
H	-0.313765	0.926615	0.497304
C	-2.098242	-0.01607	-1.451198
H	-2.451699	-0.933782	-0.978917
H	-2.46483	0.022885	-2.478109
H	-2.489086	0.845202	-0.899745
C	-0.106004	1.224266	-2.115616
N	0.169858	2.223978	-2.669065
C	-0.524554	-1.129656	0.757887
N	-0.987969	-2.023071	1.362869
Cl	3.294652	0.0	0.0
