14

C	-0.315246	-0.064757	-1.457694
C	0.0	0.0	0.0
F	-1.683187	-0.281203	-1.723635
H	1.09418	0.0	0.0
H	-0.025394	0.858829	-1.953149
H	0.236338	-0.902691	-1.885009
C	-0.494805	-1.186591	0.795422
H	-0.093592	-2.090559	0.32942
H	-1.585726	-1.253251	0.823851
H	-0.115764	-1.139262	1.815339
N	-0.465428	1.274318	0.582134
O	-0.896129	1.273675	1.740927
O	-0.358432	2.303359	-0.092862
F	2.551702	0.0	0.0
