14

C	-0.51779	-0.029126	-1.423312
C	0.0	0.0	0.0
F	-0.145609	-1.239282	-2.009079
H	1.090387	0.0	0.0
H	-0.053736	0.772605	-2.002029
H	-1.606877	0.039883	-1.486975
C	-0.527795	-1.153305	0.831276
H	-0.108719	-1.09812	1.83834
H	-0.184671	-2.080384	0.37292
H	-1.623269	-1.15717	0.886204
N	-0.483088	1.2586	0.630096
O	0.266127	1.860272	1.395955
O	-1.645227	1.624122	0.38339
F	2.622671	0.0	0.0
