14

C	-0.338418	-0.049169	-1.452698
C	0.0	0.0	0.0
F	-1.715777	-0.244291	-1.69566
H	1.094192	0.0	0.0
H	0.193779	-0.894058	-1.895369
H	-0.045513	0.874492	-1.947672
C	-0.485799	-1.194609	0.790785
H	-0.080043	-1.16556	1.80104
H	-1.577077	-1.252471	0.8453
H	-0.105006	-2.095503	0.302147
N	-0.458523	1.267197	0.604504
O	-0.81663	1.257022	1.787325
O	-0.412541	2.298265	-0.076588
F	2.551342	0.0	0.0
