14

C	-0.343713	-0.038708	-1.453708
C	0.0	0.0	0.0
F	-1.728524	-0.160582	-1.691734
H	1.09418	0.0	0.0
H	0.141193	-0.911519	-1.897993
H	-0.001458	0.866731	-1.950799
C	-0.519677	-1.17704	0.793234
H	-0.141051	-1.139739	1.813876
H	-0.137503	-2.089441	0.327113
H	-1.612211	-1.219534	0.82265
N	-0.444109	1.284808	0.584343
O	-0.927693	1.285267	1.720642
O	-0.26924	2.315363	-0.070999
F	2.556714	0.0	0.0
