16
Coordinates from ORCA-job run
  C   -0.45037881544331     -0.41257893063070     -0.09607412154796
  C   0.77947335211472      0.51911101540241     -0.02325789974981
  Br  -0.46047918339436     -1.38796175190863     -1.79518379258941
  H   0.69229260987799      1.11017467826287      0.89422904494736
  N   -0.30910785020495     -1.39320946011911      0.95098403334260
  H   -0.28184036238483     -0.94478476586559      1.86177436277740
  H   -1.08220436085176     -2.04702718632770      0.92613074024479
  C   -1.71373259966480      0.44189648030737     -0.05044024532891
  H   -1.74173124981348      0.99423271077759      0.89530552930359
  H   -2.59043371474703     -0.20625601182368     -0.09899533798554
  H   -1.76349563245566      1.14899104254750     -0.88056490429060
  C   0.89638336700393      1.40942279277718     -1.16796362220012
  N   0.96567576748681      2.16859345603050     -2.06132053621052
  N   2.05171385150215     -0.27335058842343      0.16231704826104
  O   2.58386385847363     -0.72951006161556     -0.83991314324154
  O   2.42400096250096     -0.39774341939104      1.32397284426763
