16
Coordinates from ORCA-job run
  C   -0.51086623544805     -0.42940687546209     -0.04118057886791
  C   0.77699658497144      0.45638317603120      0.02122196646061
  Br  -0.34949805331049     -1.53824733577207     -1.65955039710825
  H   0.76420781343239      0.96769880106996      0.98968570782479
  N   -0.70142820733973     -1.29705289723029      1.07643120435093
  H   0.13841138570995     -1.80616341075102      1.32041578564699
  H   -1.03058093186835     -0.77736377001221      1.88179436798517
  C   -1.72395098427521      0.47473984955577     -0.18852446917451
  H   -1.68902587161189      1.05792868841215     -1.10726714726557
  H   -1.77822580908551      1.16168799835893      0.66423498014153
  H   -2.61699601231790     -0.15057080230014     -0.19433202374732
  C   0.86038487811155      1.43109886344458     -1.05587579713154
  N   0.87649831472568      2.25897214365505     -1.88911587571474
  N   2.02977206904302     -0.38777342727633      0.04530707673594
  O   2.75779500227527     -0.38013887565112     -0.93703072232298
  O   2.19550605698783     -1.04079212607238      1.07378592218686
