16
Coordinates from ORCA-job run
  C   -0.33820974694868     -0.53020810018287      0.27985430873569
  C   0.93993194742572      0.33744019021992      0.23035381039893
  Br  0.27243613262145     -2.42240941628259     -0.06908558368705
  H   1.60746927739538      0.04176362043624      1.04276751937340
  N   -0.86781305918535     -0.35870041628026      1.58188882725473
  H   -0.26492855037358     -0.73122424213645      2.30533594896333
  H   -1.78804185156469     -0.77088950077456      1.66923007572906
  C   -1.38000813102098     -0.18740071103109     -0.76660908931933
  H   -0.99129254299122     -0.30579151553166     -1.77432385830760
  H   -2.23764210559739     -0.85236806238146     -0.64406636127134
  H   -1.70648220517731      0.84555546503092     -0.62274465795281
  C   0.59431670007883      1.75132918062537      0.34074359971105
  N   0.32301954874642      2.89076681283297      0.42640620337865
  N   1.74835275037095      0.14243325503159     -1.03036981536067
  O   1.23717991156539      0.52173340073374     -2.07829933597354
  O   2.85171192465504     -0.37202996030982     -0.89308159167253
