16
Coordinates from ORCA-job run
  C   -0.34426412693915     -0.53234573554724      0.26901257173608
  C   0.93248361691818      0.33861783067229      0.25703216974607
  Br  0.27971176987296     -2.42181986934008     -0.06925672608457
  H   1.57892779092081      0.04234429463597      1.08618219094190
  N   -0.90949945769057     -0.36629021358483      1.55679150288182
  H   -0.32569894129381     -0.74015194766012      2.29502061261385
  H   -1.83084842866303     -0.78065477004994      1.61775271962242
  C   -1.35796407292590     -0.18800186583337     -0.80424845165818
  H   -1.68934749214472      0.84422320251845     -0.66694820354765
  H   -0.94223177501893     -0.30343011062500     -1.80144036716617
  H   -2.21785907032331     -0.85402993262932     -0.70622378062725
  C   0.58051259120925      1.75138955062752      0.36235243180968
  N   0.30475551411404      2.89002678574309      0.44431597315640
  N   1.77511601435314      0.14981610297989     -0.98222909343194
  O   1.29185502816290      0.53233058670066     -2.04217667408352
  O   2.87535103944812     -0.36302390860794     -0.81693687590893
