16
Coordinates from ORCA-job run
  C   -0.40413943050555     -0.58546501327571      0.21432901581210
  C   1.04182318453136     -0.12082062849425     -0.05085986178621
  Br  -0.23188412073422     -2.52768432231019      0.56782953545295
  H   1.50044681182636     -0.75237755988078     -0.81185326719688
  N   -0.89846453905756      0.03092100122584      1.40650486986449
  H   -0.75160772743602      1.03393482192071      1.38410043408534
  H   -1.88052823796780     -0.17282468587083      1.54294502109068
  C   -1.26266233947872     -0.42723678109583     -1.03514870186682
  H   -2.23720523371461     -0.88720927819559     -0.86324144375587
  H   -1.41862227452995      0.63660690277163     -1.23806391168456
  H   -0.80854970279346     -0.89698250164453     -1.90997649488107
  C   1.86202419548143     -0.08246512352025      1.15354715603368
  N   2.56844994528871     -0.04545215333048      2.09067464794959
  N   1.00046677588151      1.26548459845569     -0.66266883427038
  O   0.63979634829568      2.18636619870036      0.06597338303279
  O   1.28165634491285      1.34420452454421     -1.85309154787983
