16
Coordinates from ORCA-job run
  C   -0.34628159059533     -0.59316824230279      0.20524879032864
  C   1.02812748261329      0.11829088943341      0.26768067604013
  Br  -0.00326073215926     -2.45673690604800     -0.28272730456272
  H   1.66177078177013     -0.43029432683384      0.96479764810283
  N   -0.81164348099054     -0.58852670549311      1.58291183743258
  H   -1.51362608517633     -1.30753923430056      1.71255650225039
  H   -1.24170713364966      0.31001354973330      1.78556079814889
  C   -1.31553763219283      0.00499273829298     -0.80154620837665
  H   -0.95257837899584     -0.06158590025961     -1.82580181373155
  H   -2.26569063725048     -0.52735113263387     -0.72754037742010
  H   -1.48337669338301      1.05956075303955     -0.56138048520628
  C   0.83955421907449      1.49563510468258      0.71291476093352
  N   0.63535519866038      2.58569182440261      1.10001582105382
  N   1.74878709014340      0.13152693833277     -1.05586705457912
  O   1.31228538516383      0.88684114208616     -1.91955851023633
  O   2.70682220696776     -0.62635049213158     -1.15826508017806
