16
Coordinates from ORCA-job run
  C   -0.47612487971030     -0.37076308582807     -0.00792876550871
  C   0.79829807074419      0.48664458179349      0.14956667973934
  Br  -0.28829964704686     -1.31324937990300     -1.79514989882722
  H   0.81807258704525      0.83608498083061      1.18813746591273
  N   -0.60850769421153     -1.24789168410775      1.08828821540760
  H   0.19484640999316     -1.84984586884847      1.21368877386462
  H   -1.45413630362964     -1.79889254360987      1.01732276219092
  C   -1.70545878292163      0.51579276860325     -0.11849497772308
  H   -2.59407431161798     -0.11368364557828     -0.19723003085649
  H   -1.78852092811112      1.12352993396586      0.78714007004582
  H   -1.66507266183516      1.16025038796698     -0.99458994287708
  C   0.83625720261373      1.61953438089695     -0.76375530910936
  N   0.82483194711574      2.56936687613756     -1.45423533398100
  N   2.06488629800513     -0.33523774903319     -0.01003245593063
  O   2.84648286501020     -0.02996300768834     -0.89769570397147
  O   2.19751982855681     -1.25167694559772      0.79596845162400
