16
Coordinates from ORCA-job run
  C   -0.35121479269730     -0.52984822851804      0.26494596485550
  C   0.92896636388204      0.33621504274722      0.27231111662345
  Br  0.27111857259780     -2.42307894873239     -0.05355296342696
  H   1.55901959354121      0.04055255684991      1.11416638946180
  N   -0.93884307560454     -0.35574762061307      1.54173574620084
  H   -0.36965717402802     -0.72851715575550      2.29190461804861
  H   -1.86241625248891     -0.76718434384339      1.58801512626379
  C   -1.34407743141407     -0.18618401600330     -0.82782399749589
  H   -1.67235308952844      0.84844900585781     -0.70212491042846
  H   -2.20901333729373     -0.84725873136360     -0.74150093297925
  H   -0.91158138522758     -0.30928196927184     -1.81691662122314
  C   0.58096699976518      1.75067268352949      0.36591187461222
  N   0.30846905816385      2.89074918764744      0.43832152749437
  N   1.79281152420670      0.13906680604082     -0.95082801789256
  O   1.32999643112050      0.51902303550585     -2.02073387913433
  O   2.88780799500530     -0.37762730407741     -0.76383104098000
