16
Coordinates from ORCA-job run
  C   -0.39640649545155     -0.51047648431143      0.17100542151972
  C   1.00829715182691     -0.02820682342409     -0.24209200142156
  Br  -0.10791803276562     -2.52454980140533      0.41115487225778
  H   1.34016960209192     -0.57223476263276     -1.12682731417725
  N   -0.80962000388293      0.14368480221528      1.33805201882987
  H   -1.75451231252828     -0.09626607484102      1.60635759043275
  H   -0.18051287001503      0.03144869618985      2.12362445384355
  C   -1.42178355313341     -0.36732105116348     -0.93798845923811
  H   -1.06531688348608     -0.81346576006455     -1.86562048736103
  H   -2.34282708661434     -0.87440492871808     -0.64468548784891
  H   -1.63668502766745      0.68965809727054     -1.10421531397334
  C   1.97360455681348     -0.15196867346995      0.84268199979071
  N   2.73340844633292     -0.25415187293686      1.73242161339792
  N   0.92035600208410      1.42949375661239     -0.65988888782944
  O   0.65474149121228      1.61478031699160     -1.84424179523036
  O   1.08400501518307      2.28298056368788      0.20126177700769
