16
Coordinates from ORCA-job run
  C   -0.44480360092761     -0.61276515289527      0.12340633498245
  C   0.97929424453307     -0.11390153112820     -0.28901731527708
  Br  -0.27897625831150     -2.57316175286545      0.04170081730207
  H   1.28987601748527     -0.56315644847089     -1.23265319488710
  N   -0.86810532800308     -0.27251176541985      1.44384211055454
  H   -0.99310509750903      0.73033097031267      1.52736260642314
  H   -0.20950503450216     -0.58451195583779      2.14839181352573
  C   -1.47618026974270     -0.15823579294905     -0.89355631930106
  H   -1.61688612905497      0.92502605890351     -0.82402400421574
  H   -2.42528799235644     -0.64240856271593     -0.66757546345101
  H   -1.17293851731842     -0.40658853704204     -1.91136907864482
  C   1.95708456535507     -0.35419441520572      0.76121169650415
  N   2.72071113246873     -0.55779319773742      1.63017459842856
  N   0.89146579561149      1.36998148540360     -0.55208878732896
  O   0.71403161508871      2.09732171523835      0.42160918342143
  O   0.93432485718357      1.71856888240946     -1.72741499803631
