16
Coordinates from ORCA-job run
  C   -0.45170681224275     -0.39727511173754      0.04905844215343
  C   0.76508011252574      0.55312789892784      0.07227809492599
  Br  -0.19525997436020     -1.58216457844831     -1.57806569295911
  H   0.75682815506955      1.05255970486350      1.04772468663187
  N   -0.53409073081229     -1.10782952788038      1.26454152011373
  H   -1.34246593089221     -1.71603832848758      1.27966958225221
  H   0.30501298055245     -1.63245711339503      1.47420406505743
  C   -1.73401148383532      0.38319675791315     -0.18743143391434
  H   -1.86008165567471      1.11301755184030      0.61752334563753
  H   -1.72969789643423      0.89077652906709     -1.15018475684341
  H   -2.58070360451195     -0.30591538597220     -0.16730333471204
  C   0.73631281917084      1.53799359001660     -0.99919753381795
  N   0.66729363054190      2.37131560157555     -1.82374604282246
  N   2.08191872467605     -0.20142832550138      0.03149507321822
  O   2.84648320418848      0.01603250608908     -0.89604109684065
  O   2.26908846203863     -0.97591176887071      0.96547508191953
