16
Coordinates from ORCA-job run
  C   -0.27193665845032     -0.60106136806786      0.28105842465307
  C   1.01267081840515      0.26224514309051      0.22034634584185
  Br  0.27337830683732     -2.45848606622182     -0.00592522024426
  H   1.71878799711039     -0.12961546160518      0.95255201398737
  N   -0.70922293178124     -0.49131289433440      1.66347434422461
  H   -1.23116041741580      0.37334188320486      1.77989594777471
  H   -1.32581509188336     -1.26202838972332      1.89257214531773
  C   -1.32163002915715     -0.23461592185499     -0.75574737271637
  H   -0.97276091565600     -0.37842749406902     -1.77685151439417
  H   -2.20328112466698     -0.85713736293523     -0.59255553319498
  H   -1.60450684081458      0.81523152112762     -0.63064804263096
  C   0.67624257966744      1.65127203437015      0.51652668785962
  N   0.35597255345957      2.74830116738230      0.78819303278684
  N   1.70132738880489      0.20522049459979     -1.11928552565242
  O   2.73658171389002     -0.44933053005646     -1.16831080428499
  O   1.16635265165065      0.80640324509305     -2.04629492932765
