16
Coordinates from ORCA-job run
  C   -0.40448486971672     -0.59965022047025      0.16722806698338
  C   1.01214999571347     -0.14837182405374     -0.24075066224965
  Br  -0.31309704317868     -2.57796758228957      0.13295196926344
  H   1.30697894422955     -0.64166886377492     -1.16706902151782
  N   -0.66775980493190     -0.20159660108203      1.51610610898531
  H   -1.62541444978512     -0.40337255680361      1.77517704891810
  H   -0.47271878775747      0.78490718358224      1.64725277046995
  C   -1.43142679311530     -0.17485538273920     -0.87607091202591
  H   -2.39753228511843     -0.61886678778937     -0.63112806853494
  H   -1.15151284835347     -0.48972119895384     -1.88317378055225
  H   -1.54179063462952      0.91345721087602     -0.85691343293431
  C   2.00624244083424     -0.36740339985468      0.80266430892466
  N   2.84782303400205     -0.53125773461716      1.60478118780559
  N   0.97100142447238      1.32901308020484     -0.57798844722527
  O   0.78823907723763      2.10911925607388      0.35314754228908
  O   1.07330260009728      1.62023542169138     -1.76421467859937
