16
Coordinates from ORCA-job run
  C   -0.43514894149106     -0.61200913459573      0.15574040833853
  C   0.95130164316139      0.09049733569618      0.28106293285561
  Br  -0.05253391509148     -2.46641463624260     -0.37040249609235
  H   1.55814879505925     -0.45088136644882      1.00979728807058
  N   -1.10188387407300     -0.65102436304838      1.42498141724300
  H   -1.46135986140017      0.26193265630225      1.67938815547683
  H   -0.52186623231851     -1.02239598603241      2.16726538239730
  C   -1.34887459706489      0.02325508583987     -0.87416044808441
  H   -1.52558852154952      1.07244919072370     -0.61762351973317
  H   -0.92624026561496     -0.01834195421670     -1.87488324991144
  H   -2.29832917403634     -0.51182679638283     -0.85641622714822
  C   0.75279487131165      1.47279969365261      0.70439447539153
  N   0.54140452596805      2.56599120876960      1.07914248792578
  N   1.76102569225386      0.08643726606155     -0.99360341551874
  O   1.36560890901886      0.81060854338448     -1.90196034842528
  O   2.74054094586688     -0.65007674346278     -1.01272284278556
