16
Coordinates from ORCA-job run
  C   -0.44258619187028     -0.44508523005130      0.23007661915448
  C   1.03341789816773     -0.03469141087716      0.06207549814899
  Br  -0.28553714016693     -2.21393419416461      1.25082893462670
  H   1.58160472671008     -0.82728616590896     -0.44802877880603
  N   -1.14506051081812      0.54756611303227      0.92475811658327
  H   -0.76023466946619      0.77024149991018      1.83448341571488
  H   -2.13299014320172      0.34576051945917      1.00022461565530
  C   -1.11707144032723     -0.78435090457623     -1.08591791942510
  H   -2.09747307904692     -1.22067266765163     -0.88596022720022
  H   -0.53119280980127     -1.50484171949592     -1.65542699331421
  H   -1.24686925527269      0.12412461841314     -1.67645101379511
  C   1.66137176086542      0.30087061491761      1.33378903776311
  N   2.15023870286097      0.56963555614983      2.36737137960237
  N   1.10325966212840      1.17460175721383     -0.85506754024823
  O   1.17731235388813      0.91411101567499     -2.05276373557712
  O   1.05081013535061      2.28495059795479     -0.34399140888307
