16
Coordinates from ORCA-job run
  C   -0.46120062519606     -0.42651600014426      0.22898131884213
  C   1.02573915928256     -0.13834887565854     -0.05715225656620
  Br  -0.38833594115085     -2.31364349716214      1.02540356127903
  H   1.43369480314284     -0.91408435439757     -0.70578808681989
  N   -0.98245172745175      0.53522709135194      1.10210769202053
  H   -0.48705020929536      0.61370685926129      1.98165080617593
  H   -1.97395387757457      0.42148113789605      1.26323223267428
  C   -1.29561234452018     -0.54158038412486     -1.03289069108542
  H   -1.38930942538470      0.43969178455468     -1.50121809727269
  H   -2.29106727074885     -0.90735791612317     -0.77451676573463
  H   -0.84738217664036     -1.23814613613388     -1.74030665585923
  C   1.80789448468763     -0.01279369257645      1.16624138103777
  N   2.41794710702277      0.09200948775773      2.16439785015819
  N   1.13003359678124      1.15728165528164     -0.84319420883651
  O   1.24058777262296      2.20100132797474     -0.21441899918899
  O   1.05946667442268      1.03207151224278     -2.06252908082431
