16
Coordinates from ORCA-job run
  C   -0.52512430161478     -0.51854317428041      0.21026623976527
  C   0.99221233070626     -0.25999196741821     -0.07091609218431
  Br  -0.57531978702240     -2.42247437061679      0.70873847823419
  H   1.38494228088888     -0.98841469082217     -0.78077049409137
  N   -1.09600047723235      0.22246096309993      1.28895440504199
  H   -0.58822869725993      0.08744249218669      2.15576769180938
  H   -1.11629189530745      1.21150122491667      1.06682803408973
  C   -1.33638608778005     -0.31352053785729     -1.05634855896806
  H   -2.35751354011903     -0.64569460444000     -0.87379760731645
  H   -0.91653752912124     -0.86818627506869     -1.89644545819408
  H   -1.36145202382640      0.74973014508467     -1.31550385195668
  C   1.76909714287063     -0.24378606969852      1.15916466729977
  N   2.36133296713419     -0.23178227059687      2.17343548829599
  N   1.11453100966556      1.08151430402517     -0.75133446026396
  O   1.37170724890543      1.06290108043683     -1.95067618003719
  O   0.87903135911268      2.07484375104899     -0.06836230152423
