16
Coordinates from ORCA-job run
  C   -0.46873706985090     -0.39734263294192     -0.07290156707644
  C   0.79208546553441      0.49421109156737     -0.06453943645398
  Br  -0.60486854797722     -1.35936826689871     -1.77475995249548
  H   0.77619375914893      1.08139487665915      0.85937768410955
  N   -0.29992833806159     -1.38999239277771      0.95824843071928
  H   -1.09452140266623     -2.01746607311637      0.97551142545469
  H   -0.20016836649134     -0.95109392802356      1.86853014264084
  C   -1.69970258891372      0.49582674948616      0.04825558430562
  H   -1.77334018422536      1.21018373355222     -0.77386409171405
  H   -2.59808002215875     -0.12380667668493      0.04599162499556
  H   -1.65677571659183      1.04167993180245      0.99720821732024
  C   0.87411347884275      1.38970117641201     -1.20816864615966
  N   0.92035251258478      2.15479640391041     -2.09778879990993
  N   2.04694354096786     -0.33925787047255      0.04466315755751
  O   2.50711490945604     -0.80457243256871     -0.98859799058889
  O   2.47931857040218     -0.48489368990530      1.18283421729515
