16
Coordinates from ORCA-job run
  C   -0.40101436000292     -0.51719367782133      0.21490987853065
  C   0.95836821172447      0.21424137219039      0.29260991007315
  Br  0.03096027961467     -2.42020387547584     -0.30025833880359
  H   1.55888597241034     -0.22537643504945      1.09215972150344
  N   -0.96488271825866     -0.41652758498111      1.50997112283612
  H   -1.92473868002738     -0.73692551265935      1.52690719886401
  H   -0.43329599906111     -0.91685231062088      2.21186506443655
  C   -1.35822125541220      0.03064588938450     -0.82515564055179
  H   -2.28369237122373     -0.54834092572225     -0.79470800334684
  H   -1.58290204109642      1.07431193310702     -0.59189679189058
  H   -0.94256156650977     -0.03318148960980     -1.82701714984611
  C   0.75161247378820      1.63919749501240      0.53209739403051
  N   0.59305122875067      2.78720672696062      0.72234883671038
  N   1.79501945682238      0.05841223656361     -0.95521238392069
  O   2.83459024340060     -0.57864709910520     -0.83511802485437
  O   1.36881757966387      0.58823335616455     -1.97550392393127
