16
Coordinates from ORCA-job run
  C   -0.40889208468618     -0.45849332646013      0.26371005497226
  C   1.02967250034669      0.07222683074569      0.10432984373947
  Br  -0.13538603128503     -2.08435946208437      1.48102055225033
  H   1.67235696499593     -0.71602382729917     -0.28868584467455
  N   -1.23163568049068      0.52946446007363      0.81722043984528
  H   -0.91241916579540      0.88811248892429      1.70881564453798
  H   -2.19978488292430      0.24421534842977      0.87674165256275
  C   -0.98699305486692     -1.00166288083002     -1.02956803792339
  H   -0.30978016837208     -1.71637478396281     -1.49553371586979
  H   -1.92952415571489     -1.50957280319092     -0.81729585235870
  H   -1.17574930976008     -0.17851753186975     -1.72081751790704
  C   1.55906734428731      0.60931625927155      1.35131424804933
  N   1.96223055477729      1.04495113311703      2.36482783510485
  N   1.03094178670319      1.17042232571509     -0.94499304168377
  O   1.18808135189329      0.78459914537652     -2.09998220366092
  O   0.84681403089185      2.32069662404359     -0.57110405698410
