16
Coordinates from ORCA-job run
  C   -0.34635016985710     -0.59132667798370      0.21223723415041
  C   1.02401992362641      0.12777166075307      0.27739666475686
  Br  0.01032647773541     -2.46232547277605     -0.23631623510142
  H   1.65274194425981     -0.40577493827015      0.99030439780162
  N   -0.82837146567401     -0.56331396576268      1.58383263048805
  H   -1.53044517401960     -1.28143238598357      1.71774463707912
  H   -1.26244032413114      0.33775222562042      1.76590243983021
  C   -1.30580459617995     -0.01663987955832     -0.81757357999892
  H   -0.93028889583723     -0.10196968543137     -1.83578967618888
  H   -2.25471152134855     -0.55118276871181     -0.74478269303741
  H   -1.48072051212495      1.04167180082340     -0.60029535114049
  C   0.82501403502083      1.51129888237195      0.69734460152872
  N   0.61288560460424      2.60644766172437      1.06532062995733
  N   1.75925897591846      0.12103338861627     -1.03852453514958
  O   1.33141523105988      0.86149761483185     -1.91914236886463
  O   2.72047046694750     -0.63550746026368     -1.11765879611100
