16
Coordinates from ORCA-job run
  C   -0.35311192275178     -0.67139338993441      0.11437761170508
  C   0.99734106930822      0.03130435856481     -0.24700835197588
  Br  0.10647865008676     -2.58554643265366      0.06947932327017
  H   1.41263178642327     -0.37637179599159     -1.16901243633591
  N   -0.87816791858819     -0.38640214148121      1.41099325658974
  H   -1.15506052303022      0.58693745916528      1.47465896711663
  H   -0.21179698351453     -0.59133695780584      2.14680128207080
  C   -1.39624182186771     -0.38513337957044     -0.95068577831181
  H   -1.01603630208218     -0.59393396361405     -1.95138729204478
  H   -1.70005191529019      0.66537355368489     -0.90316380214817
  H   -2.27129498876168     -1.00392744441386     -0.75662682094074
  C   1.95194643206824     -0.04923715325938      0.84799812312872
  N   2.69403917627191     -0.12896415316749      1.75493286320053
  N   0.70056698477905      1.48220181962174     -0.53866772020382
  O   0.37476060729246      2.18533726981231      0.41423814478564
  O   0.74299766965655      1.82109235104287     -1.71692736990617
