16
Coordinates from ORCA-job run
  C   -0.42865814328160     -0.61135014196335      0.17600691517707
  C   0.96365642484534      0.08776872601847      0.23512811900852
  Br  -0.07634220234042     -2.46660449705669     -0.36632835910572
  H   1.60365758306470     -0.45542701397095      0.93356764567922
  N   -1.03493376340096     -0.64852628086796      1.47572580037885
  H   -0.42128195489909     -1.02274808018986      2.18903243885328
  H   -1.37562567991738      0.26670609856304      1.74761349874315
  C   -1.38892038785281      0.02606451133842     -0.80932623298369
  H   -2.33778216380103     -0.50656723399322     -0.74564645353215
  H   -1.55043084888545      1.07573453315002     -0.54452399522427
  H   -1.01472232669252     -0.01645893244803     -1.82916994274191
  C   0.78955565280654      1.47046385716841      0.66834285695938
  N   0.60066725863178      2.56445451858348      1.05278449028816
  N   1.71102352655928      0.08296811088451     -1.07702259809223
  O   2.68650210941662     -0.65608779911721     -1.14382333486584
  O   1.27463491574701      0.80960962390092     -1.96436084854181
