16
Coordinates from ORCA-job run
  C   -0.37916017504916     -0.54216322609679      0.33669255720125
  C   1.04330041634842      0.01286612432570      0.12265937866033
  Br  -0.09573901092552     -2.24374659691040      1.30892419939144
  H   1.67408421890332     -0.75026072996000     -0.33361924001544
  N   -1.11435011972800      0.33247985788348      1.19832476367473
  H   -1.06773892062751      1.28966633987079      0.86638842007765
  H   -2.08044625829797      0.03970856179489      1.27483321045024
  C   -1.03373101244394     -0.88484492764941     -0.99663839676235
  H   -1.24904447141647      0.03721235404420     -1.54490612495753
  H   -0.40311229797470     -1.52954972940486     -1.61221567239191
  H   -1.97812421882116     -1.39966739656654     -0.81235628130128
  C   1.65113192299810      0.52166042831520      1.34617314819661
  N   2.19393760513196      0.93018420119764      2.30372055749600
  N   0.97793958275766      1.13103283958586     -0.89837179972643
  O   0.42262894064185      2.17097385456950     -0.55270358045572
  O   1.43942379850311      0.88444804500073     -2.00690513953756
