16
Coordinates from ORCA-job run
  C   -0.47460627489479     -0.37047426451819      0.04051164899986
  C   0.80148310366868      0.49791200740575      0.07863792819506
  Br  -0.35593467270684     -1.44880932042190     -1.67479489640866
  H   0.86224502011282      0.92665101576435      1.08543871533278
  N   -0.55812165182863     -1.16017843284737      1.20569621632939
  H   -1.40278732336160     -1.71710124542238      1.21208022679183
  H   0.25301633664576     -1.74839771982950      1.34507073485055
  C   -1.71125943878859      0.50333890345822     -0.08800284354314
  H   -1.70949232668599      1.07758731945135     -1.01251868197991
  H   -2.59960580519129     -0.13136825894698     -0.08079070749698
  H   -1.75995873507109      1.17977827719021      0.77018619654712
  C   0.79752917090914      1.55640313220375     -0.92071703237583
  N   0.75403249654009      2.44852024715697     -1.68323574195047
  N   2.06392636273783     -0.33264557932267     -0.06842774456447
  O   2.23446125030317     -1.18162537385039      0.80184595129516
  O   2.80607248761132     -0.09859070747122     -1.00997997002228
