16
Coordinates from ORCA-job run
  C   -0.33886719440315     -0.59425341693048      0.21472008713868
  C   1.02930575712132      0.13066629248106      0.25752926589038
  Br  0.01729874671142     -2.46038589758323     -0.25443597400860
  H   1.67534328098965     -0.40581663594909      0.95252758865165
  N   -0.79307917082478     -0.57766240197885      1.59621614912380
  H   -1.48329012367749     -1.30496575817944      1.74159624547369
  H   -1.23421214859047      0.31762580868016      1.79089988122699
  C   -1.32147551208605     -0.01664948897893     -0.79120258705381
  H   -1.49712886462465      1.03899984275275     -0.56215828258179
  H   -0.96607013651550     -0.09218095071851     -1.81726944372664
  H   -2.26614444730831     -0.55640833132149     -0.70364890904479
  C   0.83167693835342      1.50972394972011      0.69287074500362
  N   0.62092635264552      2.60108165850167      1.07293512493911
  N   1.73745607314321      0.13864828985915     -1.07329946249478
  O   2.69895004232430     -0.61443889895717     -1.17922544894706
  O   1.28931040674158      0.88601593860229     -1.93805497959045
