16
Coordinates from ORCA-job run
  C   -0.35045749518593     -0.59327487596404      0.20766668386719
  C   1.02238912192304      0.12024005477995      0.27333102882542
  Br  -0.00596475738516     -2.46138792734546     -0.26076116566194
  H   1.65276316922319     -0.42186937275414      0.97839753873006
  N   -0.82553013165485     -0.57638692298963      1.58195775404104
  H   -1.25333851719976      0.32532685420399      1.77558779508526
  H   -1.53127962758241     -1.29160698305540      1.71238257279414
  C   -1.31226884443760     -0.00341331207885     -0.81147248076719
  H   -0.94264577763647     -0.08070948834963     -1.83249834247206
  H   -1.48034883711577      1.05373665290985     -0.58311686059219
  H   -2.26379655939683     -0.53335063469927     -0.73915182522819
  C   0.83377351232934      1.50088143825187      0.70804332927462
  N   0.67930935630398      2.60036296891061      1.09134018218588
  N   1.75038884189354      0.12362870283375     -1.04687420972041
  O   1.32315383062933      0.87780153836721     -1.91614009764525
  O   2.70385271529236     -0.64097869302081     -1.14069190271638
