16
Coordinates from ORCA-job run
  C   -0.43821986156721     -0.61023355520609      0.15503391364565
  C   0.94999049300167      0.08759364487611      0.28661905809637
  Br  -0.05943581669159     -2.46780026814221     -0.36118219296471
  H   1.55066536660226     -0.45438565128209      1.02003421536731
  N   -1.11357345297391     -0.64229520540300      1.42029273808749
  H   -1.46664280898717      0.27434838513158      1.67078729745720
  H   -0.53999106041395     -1.01554488116805      2.16667834272376
  C   -1.34305995563402      0.02465973528881     -0.88287075287059
  H   -1.51824978956971      1.07518460572143     -0.63052115666551
  H   -2.29425858114411     -0.50743820306172     -0.86932748717765
  H   -0.91405666432520     -0.02122721060374     -1.88074711794864
  C   0.75415335727896      1.47164595964637      0.70563585670601
  N   0.54388723395553      2.56675651192444      1.07541690567065
  N   1.76669795319518      0.07784630425534     -0.98340047955703
  O   2.74324719525038     -0.66268548665899     -0.99548185610213
  O   1.37984639202291      0.80257531468181     -1.89496728446818
