16
Coordinates from ORCA-job run
  C   -0.44866841232367     -0.60179913295452      0.15892581712905
  C   0.95615615999294      0.06516704575457      0.27081564504161
  Br  -0.11831195433518     -2.46415474544185     -0.37273436127453
  H   1.55727840116710     -0.49416898346667      0.99078897343787
  N   -1.10352304009867     -0.62585783132974      1.43506049412691
  H   -1.43321618646011      0.29673071220547      1.69544522704127
  H   -0.52582008657636     -1.01458588057371      2.17030769132238
  C   -1.35670234971771      0.05796911137765     -0.86056907714530
  H   -1.50514386491283      1.11060097888513     -0.59976566610566
  H   -2.31876393846097     -0.45371069927609     -0.83383835603071
  H   -0.94530255213396      0.00852105994983     -1.86571679298982
  C   0.79783759670597      1.45047838116852      0.70195375330370
  N   0.61870161818781      2.54735193264056      1.08267519215854
  N   1.75105477008815      0.04640998530308     -1.01295280148610
  O   2.71159832579714     -0.71394361296145     -1.04603944620649
  O   1.36382551308035      0.78499167871921     -1.91335629232270
