18

C	-0.276692	-0.018659	-1.507043
C	0.0	0.0	0.0
Br	-0.132377	1.842026	-2.287091
H	1.09806	0.0	0.0
N	0.562108	-0.946818	-2.123734
H	1.524591	-0.801157	-1.817289
H	0.479782	-0.946652	-3.130001
N	-1.7248	-0.36059	-1.845939
O	-1.939392	-0.940977	-2.905596
O	-2.585203	-0.015229	-1.040781
C	-0.438222	-1.325368	0.632984
H	0.028355	-1.397656	1.618467
H	-1.524565	-1.365197	0.756143
H	-0.110744	-2.179728	0.038462
N	-0.482971	1.176293	0.685642
H	0.173605	1.416592	1.417178
H	-1.394879	1.003388	1.089626
Cl	3.390045	0.0	0.0
