18

C	-0.538993	-0.038173	-1.43237
C	0.0	0.0	0.0
Br	0.404058	-1.459771	-2.496472
H	1.101253	0.0	0.0
N	-1.946347	-0.155013	-1.477136
H	-2.278855	-0.070671	-2.42967
H	-2.226219	-1.045495	-1.088008
N	-0.195084	1.233007	-2.209034
O	-0.934555	1.511878	-3.152946
O	0.788352	1.867341	-1.860499
C	-0.467017	-1.228116	0.776758
H	-0.242482	-2.160366	0.254545
H	0.069366	-1.228865	1.725444
H	-1.538147	-1.173151	1.001343
N	-0.454134	1.200025	0.695028
H	0.171138	1.963372	0.472998
H	-1.395598	1.43906	0.404999
Cl	3.48843	0.0	0.0
