14
Coordinates from ORCA-job run
  C   -0.85493638789356     -0.50841713654787     -0.18985445786409
  C   0.44130373265841      0.28958929235594     -0.21908243644424
  Cl  -0.74713505231296     -1.89480708754501      0.87289435083808
  H   0.32293372491137      1.09222818814623     -0.94923968912515
  H   -1.12777418551140     -0.84114404724762     -1.18877685504064
  N   -1.93826809934615      0.46429502980783      0.24295050486532
  O   -2.48836615045773      0.32207860842239      1.32038802702196
  O   -2.13979368680398      1.34754491471269     -0.58441019819300
  N   1.49032603142040     -0.64225236487238     -0.86189389030727
  O   2.49872771984804     -0.89238184633239     -0.21346959775659
  O   1.22329443927625     -1.04724892815434     -1.98875840224311
  N   0.77883597743812      0.79725188287259      1.04597090031585
  H   0.99024281902733      0.06539330771733      1.71085037286501
  H   1.55060911774584      1.44687018666461      1.00243137106787
