14
Coordinates from ORCA-job run
  C   -0.88640360706409     -0.47621357279627     -0.26130092288124
  C   0.47881659149908      0.20245064800160     -0.20946649813073
  Cl  -0.92966871296891     -1.90398548862867      0.74199407568746
  H   0.50620290643117      0.98562454796196     -0.97047923381559
  H   -1.19128603464018     -0.74256093694793     -1.27378041091151
  N   -1.90523348091658      0.56452588271653      0.19691118132551
  O   -1.72150082581849      1.68363840779890     -0.27621832689832
  O   -2.83625133160482      0.21328535937400      0.89820967028023
  N   1.49002337436429     -0.81563899484676     -0.70229706609594
  O   1.26708825623619     -1.28412577759516     -1.81170246157096
  O   2.49523317000465     -1.00590890987538     -0.02704594634527
  N   0.76938397435131      0.66347740811296      1.11038761832956
  H   0.83908822229014      1.66981328575157      1.13466399265263
  H   1.62550749783625      0.24561814097266      1.45112432837417
