14
Coordinates from ORCA-job run
  C   -0.88798398573087      0.24650788461351     -0.55143305324501
  C   0.64986940945840      0.20550630920558     -0.44442041824619
  Cl  -1.45730463639433     -0.71247141337193     -1.90060651912216
  H   1.04182670138649      0.44755836756854     -1.43228024890706
  H   -1.19425788264869      1.28274215456461     -0.69215642913417
  N   -1.54983810013285     -0.17563781344524      0.75025460932036
  O   -2.14190987793237     -1.23744011320127      0.81535947816605
  O   -1.40486144121302      0.64686052507597      1.65314996678808
  N   1.06345212041757     -1.22515983979635     -0.19617403645347
  O   0.75611538869386     -1.67377904369189      0.90465515600823
  O   1.68089061903185     -1.80529082789299     -1.08152252845659
  N   1.26746126191019      1.01514647088837      0.54824943418641
  H   1.43031508289969      1.95412862597017      0.21592827830316
  H   0.74422534025409      1.03132871351293      1.41299631079235
