14
Coordinates from ORCA-job run
  C   -0.84584571446765     -0.55691056154068      0.00557015715380
  C   0.41542430352007      0.23307131166212     -0.31571006803499
  Cl  -0.61943579012637     -1.62358215984560      1.37477091800835
  H   0.22110375376595      0.82033272420215     -1.21502570563436
  H   -1.16738102487072     -1.13949925122450     -0.85472430031435
  N   -1.93552848147300      0.47162863387863      0.25249099319227
  O   -2.22187742553879      1.10877878445450     -0.75609661306682
  O   -2.41062085741485      0.59932003625253      1.36672707236133
  N   1.45638840404175     -0.81026844313474     -0.77317792288109
  O   1.13341289182849     -1.49684793237795     -1.73718448527263
  O   2.51358251188822     -0.86310029659837     -0.15731547797439
  N   0.81184300598911      1.05396770530087      0.75283408401187
  H   1.55645929191415      1.68430983704987      0.49221593993140
  H   1.09147513094364      0.51979961192116      1.56462540851960
