14
Coordinates from ORCA-job run
  C   -0.80504387016217     -0.55001277744687     -0.04052752865048
  C   0.48478926204597      0.22900214895710     -0.34615303755842
  Cl  -0.54787244342926     -1.79716864426616      1.15568608853635
  H   0.25468377603425      0.93305373997481     -1.14749002189429
  H   -1.22468274858714     -0.98685285998892     -0.94443782002751
  N   -1.79754895286951      0.49252528731249      0.42885260799256
  O   -2.07235147634146      0.57881615354664      1.61580769543511
  O   -2.19564733140457      1.22145259896441     -0.47608049965708
  N   1.41196006489901     -0.79827755776375     -0.98666124085447
  O   1.02372335625550     -1.23933849666420     -2.06571497857314
  O   2.42178556824954     -1.12389223863352     -0.38148918076433
  N   1.12079564551943      0.88424307344201      0.72540969003304
  H   1.16020870978883      0.34328874765392      1.57673808269189
  H   0.76720044000158      1.81416082491205      0.88706014329077
