15

C	0.0	0.0	0.0
C	-0.221123	0.087088	-1.531633
F	1.420441	0.0	0.0
H	-0.05485	1.129957	-1.825115
H	0.5841	-0.499986	-1.984194
N	-0.494621	1.150572	0.643137
H	-0.662492	1.034902	1.629934
H	0.048501	1.97763	0.440427
C	-0.547513	-1.257166	0.615814
H	-0.201217	-2.133334	0.064677
H	-0.2104	-1.338131	1.653345
H	-1.641057	-1.195867	0.577455
C	-1.453354	-0.384607	-2.162323
N	-2.253339	-0.814298	-2.907163
Cl	-4.041837	0.0	0.0
