15

C	0.0	0.0	0.0
C	-0.468483	-0.112219	-1.450417
F	1.397134	0.0	0.0
H	-0.157428	-1.079937	-1.853857
H	-1.565038	-0.072776	-1.449838
N	-0.450558	1.255195	0.528005
H	-1.467831	1.268803	0.431789
H	-0.246216	1.284243	1.521295
C	-0.419709	-1.224753	0.795951
H	0.006076	-2.134311	0.361965
H	-1.509047	-1.283173	0.806568
H	-0.047491	-1.124037	1.819976
C	0.08551	0.944825	-2.293625
N	0.510073	1.781603	-2.998051
Cl	-3.669643	0.0	0.0
