16

C	-0.571861	0.016949	-1.414317
C	0.0	0.0	0.0
F	-0.052889	1.066538	-2.172208
H	1.090221	0.0	0.0
C	-0.171495	-1.223982	-2.118281
N	0.035111	-2.142537	-2.818705
N	-2.002458	0.065649	-1.376265
H	-2.292656	0.944266	-0.955298
H	-2.371296	0.017964	-2.319676
N	-0.408862	-1.205141	0.63551
H	-1.335157	-1.123699	1.031177
H	0.261993	-1.420412	1.365042
N	-0.442263	1.231504	0.702237
O	-1.125341	1.110803	1.73612
O	-0.053907	2.315372	0.242997
H	2.603972	0.0	0.0
