16

C	-0.422666	-0.01433	-1.470594
C	0.0	0.0	0.0
F	0.018164	-1.244534	-1.983564
H	1.091296	0.0	0.0
C	-1.899353	-0.05286	-1.618377
N	-3.069343	-0.086315	-1.708889
N	0.12736	1.079737	-2.171531
H	0.068963	0.91546	-3.1698
H	1.099027	1.18948	-1.886342
N	-0.496049	-1.138688	0.69283
H	-1.334118	-0.900284	1.207685
H	0.221965	-1.442219	1.341502
N	-0.412213	1.29791	0.638845
O	-1.289605	1.266596	1.511842
O	0.19064	2.314611	0.298737
H	2.677271	0.0	0.0
