16

C	-0.539494	-0.014249	-1.424092
C	0.0	0.0	0.0
F	-0.189029	1.086008	-2.170184
H	1.091952	0.0	0.0
C	0.070502	-1.187373	-2.118245
N	0.5218	-2.125287	-2.660743
N	-1.976247	-0.084888	-1.398613
H	-2.216148	-0.850661	-0.776152
H	-2.326019	-0.302333	-2.325295
N	-0.430339	-1.220591	0.647673
H	0.419717	-1.677782	0.975397
H	-0.969768	-0.960249	1.466167
N	-0.438068	1.200067	0.723623
O	-0.17641	2.289836	0.212075
O	-0.955908	1.065192	1.844711
H	2.559999	0.0	0.0
