16

C	-0.307397	-0.053995	-1.501535
C	0.0	0.0	0.0
F	-1.616465	-0.557061	-1.703434
H	1.091464	0.0	0.0
C	-0.326464	1.246477	-2.215497
N	-0.338759	2.178639	-2.931872
N	0.631207	-0.969208	-2.05044
H	0.728056	-0.8421	-3.048358
H	1.544325	-0.822899	-1.590259
N	-0.422287	-1.160719	0.700337
H	0.360621	-1.801607	0.744842
H	-1.213118	-1.605315	0.255688
N	-0.533697	1.246315	0.61371
O	0.006858	2.293997	0.245843
O	-1.446048	1.177186	1.437523
H	2.657267	0.0	0.0
