17

C	-0.601881	-0.027377	-1.398616
C	0.0	0.0	0.0
Br	0.642253	1.004873	-2.622395
H	1.088162	0.0	0.0
N	-0.464371	-1.445324	-1.964817
O	0.472096	-2.120488	-1.564252
O	-1.283617	-1.770442	-2.818068
N	-1.936836	0.350385	-1.524608
H	-2.057269	1.301011	-1.204639
H	-2.257282	0.230486	-2.475516
N	-0.483046	-1.180869	0.800153
O	-1.701844	-1.369543	0.843481
O	0.361775	-1.865024	1.363189
N	-0.426408	1.184929	0.76514
O	-0.710723	2.215171	0.146312
O	-0.383884	1.097372	1.989629
F	2.440071	0.0	0.0
