17

C	-0.231186	-0.199625	-1.501276
C	0.0	0.0	0.0
Br	-2.002231	-0.914717	-1.969611
H	1.089904	0.0	0.0
N	-0.119897	1.215372	-2.210423
O	0.94481	1.77143	-1.975956
O	-0.989178	1.607116	-2.972833
N	0.796182	-1.044094	-1.918755
H	1.673053	-0.797781	-1.417901
H	0.881896	-1.112015	-2.922219
N	-0.495669	-1.180659	0.759786
O	0.208585	-2.183609	0.730773
O	-1.573989	-1.076259	1.343615
N	-0.565044	1.205377	0.630495
O	-1.216457	1.997446	-0.049306
O	-0.30608	1.335433	1.823938
F	2.525538	0.0	0.0
