17

C	-0.6097	-0.045083	-1.407227
C	0.0	0.0	0.0
Br	0.224355	1.353541	-2.525455
H	1.099225	0.0	0.0
N	-0.237965	-1.361312	-2.070728
O	0.850478	-1.835698	-1.786028
O	-1.048059	-1.832333	-2.867358
N	-2.023161	0.102812	-1.443447
H	-2.254006	0.770308	-0.712697
H	-2.450299	-0.792401	-1.237729
N	-0.512092	-1.16784	0.69691
H	0.230796	-1.586991	1.240492
H	-1.274785	-0.894671	1.303988
N	-0.503763	1.231176	0.641429
H	-0.070079	2.020282	0.168785
H	-0.105456	1.2324	1.575333
Br	3.663541	0.0	0.0
