17

C	-0.436535	0.042419	-1.461924
C	0.0	0.0	0.0
Br	-2.505422	0.491831	-1.526365
H	1.10004	0.0	0.0
N	0.103118	1.21895	-2.264873
O	0.32029	2.26849	-1.673147
O	0.248621	1.036183	-3.467498
N	-0.125138	-1.116452	-2.104485
H	-0.392533	-1.171573	-3.073313
H	-0.323617	-1.913869	-1.514287
N	-0.404908	-1.302129	0.522606
H	-1.238921	-1.156654	1.080698
H	0.338746	-1.650635	1.115395
N	-0.538255	1.075871	0.825664
H	0.131639	1.196664	1.580662
H	-0.512376	1.93827	0.294303
Br	3.496278	0.0	0.0
