16
Coordinates from ORCA-job run
  C   0.58407138761452      0.59653918973681      0.39375490761854
  C   -0.26412297619093     -0.50824179713912     -0.23811286077731
  H   -0.10177238098268      1.38455791388280      0.71903268580734
  H   0.36098737533397     -1.37214878832376     -0.47483237175364
  C   1.48687438821502      1.15769584053127     -0.62988863928615
  N   2.24646494429276      1.57448158645893     -1.42382628714051
  N   1.25784748076111      0.07328875081731      1.57008480419925
  H   2.03023886908881     -0.52607007300557      1.30375640918006
  H   1.62573966423115      0.82681448797226      2.13681817480035
  C   -1.07843357922116     -0.05506957559211     -1.43523374753465
  H   -1.71175287235123      0.79102663850891     -1.16309580215553
  H   -1.71409741337368     -0.86939875421969     -1.78835290225299
  H   -0.41650011768750      0.24128276270210     -2.25055262989680
  N   -1.19682790021411     -0.98803990777169      0.83434212040245
  O   -1.92668734357525     -0.14257758274975      1.34409546689165
  O   -1.18102952594081     -2.18514069180868      1.10101067189793
