16
Coordinates from ORCA-job run
  C   0.92155452317765      0.33091571119196      0.13301674490565
  C   -0.28803008663050     -0.27706376967089     -0.60411367443545
  H   1.82725931629554     -0.13387187776469     -0.27879945345572
  H   -0.20521697957572      0.01917794762227     -1.65390784209612
  C   0.86175161717390     -0.00659109195557      1.55928504905086
  N   0.82281382165786     -0.26580745068673      2.70362284596815
  N   0.87807261113919      1.78395541556915     -0.02993149932646
  H   1.46851956724481      2.23255262243639      0.65994219044091
  H   1.23935934444905      2.02321924205559     -0.94648765121784
  C   -1.62517426316965      0.10094853604962     -0.01674549714014
  H   -2.43714439296891     -0.31989901612255     -0.61102355499565
  H   -1.72333113202280     -0.26651119356975      1.00435191943061
  H   -1.70426771552439      1.18813063452234     -0.01673436678984
  N   -0.07788924384086     -1.76870204105601     -0.62846294275422
  O   -0.82580565162800     -2.47897337535621      0.03712916832514
  O   0.86852866422285     -2.16248029326493     -1.30914143590989
