17
Coordinates from ORCA-job run
  C   -0.60684926704410      0.64707912610817      0.21146646860934
  C   0.76695305510565     -0.00945300482177      0.17305852136793
  H   -0.43849197499791      1.71541918586999      0.38315533064714
  H   1.32096917374993      0.26990865370215      1.06840365351802
  N   -1.30953708429437      0.20621439327151      1.51924373386869
  O   -2.50910922385862     -0.02919843601636      1.46080636994397
  O   -0.61304440825291      0.17646130606070      2.52987353423205
  N   -1.38613199391092      0.46846433204625     -0.95280627365494
  H   -1.66665288833675     -0.49910048125664     -1.04165015597376
  H   -2.21222362234125      1.04975744336306     -0.93148851869681
  C   1.54279396013308      0.33968435289914     -1.08489364397146
  H   1.64570772785159      1.42404770303587     -1.15993217708137
  H   2.53728533970045     -0.10496138986124     -1.04211205136571
  H   1.01334218155338     -0.01081891425009     -1.97023109242165
  N   0.65842912447411     -1.50689858550014      0.26477689132976
  O   1.69491063452011     -2.10774656826214      0.52100127074602
  O   -0.43735073405149     -2.02785911638847      0.05232813890278
