17
Coordinates from ORCA-job run
  C   -0.75923990051258      0.07771066588606      0.41461327441986
  C   0.66684296782940      0.09256083350624     -0.12296320843692
  H   -0.99334741431093     -0.89438778728517      0.84799489884310
  H   0.90618911514408      1.09358879374573     -0.48785436433854
  N   -1.65175391837375      0.18478521873286     -0.81963722516663
  O   -2.20625911824344     -0.83781959399068     -1.21367791561481
  O   -1.71642734931940      1.29540870650846     -1.34437618981668
  N   -0.94915663980560      1.11824081850211      1.35531178825443
  H   -0.85825223296706      2.02902082064086      0.92299751548677
  H   -1.83940068617374      1.05046859639071      1.82952289625220
  C   0.95797269020698     -0.97175515600530     -1.16394519427583
  H   0.41217760130423     -0.76159325802725     -2.08466654209833
  H   0.66854603625219     -1.95709158688464     -0.79739381397670
  H   2.02412571277838     -0.97911644587251     -1.39843849523254
  N   1.55640011016924     -0.12143498713219      1.06440906759881
  O   1.39902937621930     -1.17008529347334      1.68366620134480
  O   2.38255364980269      0.75049965475803      1.31443730675701
