13

C	-0.341391	-0.003808	-1.468008
C	0.0	0.0	0.0
Cl	-2.114612	-0.1477	-1.792644
H	1.09546	0.0	0.0
H	0.123585	-0.885917	-1.906649
C	0.152402	1.2021	-2.12338
N	0.495903	2.18313	-2.669417
N	-0.379536	-1.290282	0.613215
O	-0.720297	-1.294149	1.794704
O	-0.25274	-2.295113	-0.086849
C	-0.554224	1.114219	0.729862
N	-0.963191	2.062133	1.292448
F	2.418426	0.0	0.0
