13

C	-0.3513	-0.00252	-1.465329
C	0.0	0.0	0.0
Cl	-2.127323	-0.15108	-1.774198
H	1.094747	0.0	0.0
H	0.112092	-0.882636	-1.909762
C	0.132619	1.20564	-2.124499
N	0.46111	2.181766	-2.687796
N	-0.383091	-1.291181	0.611011
O	-0.233243	-2.296473	-0.084089
O	-0.752799	-1.294841	1.784154
C	-0.553075	1.113673	0.732528
N	-0.970093	2.061067	1.289962
F	2.41993	0.0	0.0
