16

C	0.0	0.0	0.0
C	-0.580466	-0.027782	-1.408577
Br	1.969072	0.0	0.0
H	-1.68916	-0.028134	-1.216663
H	-0.316123	0.88039	-1.958986
C	-0.482784	1.269048	0.678358
H	-0.121859	1.318365	1.708844
H	-1.583405	1.213268	0.665381
H	-0.142315	2.160113	0.142662
C	-0.471828	-1.221007	0.768724
H	-0.126094	-2.146392	0.301428
H	-1.572175	-1.174805	0.752453
H	-0.110757	-1.189387	1.8
C	-0.202499	-1.193584	-2.193775
N	0.10098	-2.137045	-2.825224
H	-3.2309	0.0	0.0
