16

C	0.0	0.0	0.0
C	-0.573775	-0.019566	-1.413581
Br	1.969107	0.0	0.0
H	-1.683793	-0.012494	-1.230616
H	-0.302496	-0.944577	-1.934131
C	-0.475783	1.244754	0.726829
H	-0.12039	1.246348	1.760731
H	-1.576634	1.195771	0.708022
H	-0.129257	2.15565	0.231956
C	-0.485033	-1.246397	0.717458
H	-0.126534	-1.262718	1.74994
H	-1.58585	-1.189472	0.700296
H	-0.145079	-2.15475	0.2112
C	-0.190797	1.121094	-2.233985
N	0.117541	2.03669	-2.902108
H	-3.238303	0.0	0.0
