18

C	-0.158516	-0.033188	-1.515697
C	0.0	0.0	0.0
F	0.132559	-1.421495	-1.896327
H	1.097821	0.0	0.0
N	-1.482885	0.235013	-1.981189
H	-1.552859	-0.043848	-2.954836
H	-2.083931	-0.3808	-1.441667
N	0.84651	0.799795	-2.062642
H	0.968672	0.60718	-3.049769
H	1.719113	0.586396	-1.545023
N	-0.68918	-1.157569	0.590166
H	-0.575505	-1.088203	1.596371
H	-0.168079	-1.97797	0.301645
C	-0.532674	1.287035	0.593734
H	-0.255615	1.346835	1.653251
H	-1.622779	1.348879	0.510953
H	-0.086815	2.138625	0.079681
F	2.778204	0.0	0.0
