18

C	-0.23478	-0.038108	-1.504729
C	0.0	0.0	0.0
F	0.099377	1.254298	-1.993277
H	1.096104	0.0	0.0
N	0.683105	-0.943682	-2.142583
H	1.592538	-0.70871	-1.718413
H	0.44596	-1.850166	-1.748598
N	-1.577461	-0.348132	-1.90029
H	-1.583396	-0.379726	-2.91459
H	-2.176904	0.413923	-1.603952
N	-0.380716	-1.306393	0.549496
H	0.232093	-1.496084	1.332508
H	-1.339058	-1.297681	0.880155
C	-0.60547	1.190698	0.721055
H	-1.706597	1.156093	0.726655
H	-0.270002	1.195115	1.763165
H	-0.287959	2.126653	0.258725
F	2.725278	0.0	0.0
