18

C	-0.192733	-0.037616	-1.512596
C	0.0	0.0	0.0
F	-1.459051	-0.642378	-1.82116
H	1.095214	0.0	0.0
N	-0.149789	1.26066	-2.100363
H	-0.119317	1.127517	-3.102804
H	-0.988608	1.768381	-1.856001
N	0.823988	-0.850235	-2.135887
H	1.694538	-0.560563	-1.658331
H	0.651157	-1.785043	-1.777759
N	-0.384188	-1.310628	0.534624
H	-1.366008	-1.320184	0.79007
H	0.1702	-1.47604	1.36547
C	-0.620146	1.185442	0.714599
H	-1.714196	1.206478	0.601771
H	-0.396671	1.125578	1.784573
H	-0.20413	2.123644	0.341421
F	2.736048	0.0	0.0
