18

C	-0.183176	0.021682	-1.512371
C	0.0	0.0	0.0
F	0.100356	-1.34983	-1.952026
H	1.102123	0.0	0.0
N	-1.519256	0.304119	-1.937232
H	-1.606817	0.084347	-2.923876
H	-2.102583	-0.349752	-1.422295
N	0.811064	0.873579	-2.053125
H	1.683045	0.657496	-1.541895
H	0.942078	0.672078	-3.035602
N	-0.669062	-1.186723	0.555844
H	-0.153874	-1.986925	0.205695
H	-0.507244	-1.168285	1.558447
C	-0.530258	1.260064	0.650695
H	-0.111062	2.134779	0.153389
H	-0.221652	1.289307	1.702668
H	-1.623005	1.310819	0.6025
F	2.772252	0.0	0.0
