18

C	-0.202174	0.050101	-1.511628
C	0.0	0.0	0.0
F	0.110881	1.376124	-1.913112
H	1.094175	0.0	0.0
N	0.751588	-0.796182	-2.179223
H	1.645756	-0.566982	-1.717269
H	0.528052	-1.727702	-1.839595
N	-1.529334	-0.26598	-1.954635
H	-1.507181	-0.252867	-2.968263
H	-2.150096	0.472151	-1.642815
N	-0.391566	-1.336785	0.456481
H	0.146753	-1.548171	1.289202
H	-1.37961	-1.363643	0.689565
C	-0.621223	1.144845	0.778821
H	-0.289164	2.107656	0.388016
H	-0.316395	1.080272	1.828483
H	-1.721944	1.113196	0.751673
F	2.732527	0.0	0.0
