18

C	-0.134702	-0.027893	-1.532261
C	0.0	0.0	0.0
F	0.004317	-1.38421	-1.955997
H	1.09831	0.0	0.0
N	-1.457996	0.317952	-2.035012
H	-1.481779	0.080828	-3.022455
H	-1.534455	1.326269	-1.971917
N	0.935255	0.753042	-2.056312
H	1.788019	0.541515	-1.496985
H	1.084604	0.524721	-3.031866
N	-0.585881	-1.153263	0.669808
H	0.02949	-1.936969	0.494026
H	-1.462161	-1.369699	0.205931
C	-0.541331	1.292833	0.57798
H	-1.635214	1.342282	0.499206
H	-0.276064	1.342763	1.63609
H	-0.102128	2.154329	0.068532
F	2.773338	0.0	0.0
