18

C	-0.239714	0.094803	-1.506918
C	0.0	0.0	0.0
F	-1.507954	0.736664	-1.767541
H	1.096262	0.0	0.0
N	0.752699	0.928875	-2.153741
H	0.565566	1.885198	-1.871752
H	1.635334	0.663662	-1.693536
N	-0.210471	-1.187817	-2.08759
H	-0.521816	-1.135625	-3.047233
H	-0.752127	-1.822912	-1.516257
N	-0.535326	-1.240853	0.575091
H	-1.354198	-1.041079	1.138466
H	0.176549	-1.628746	1.184277
C	-0.480461	1.238756	0.739044
H	-1.57513	1.30606	0.752271
H	-0.110073	1.207699	1.768309
H	-0.092274	2.152081	0.281978
F	2.728784	0.0	0.0
