18

C	-0.142483	-0.039937	-1.530322
C	0.0	0.0	0.0
F	-0.041998	1.329569	-2.008033
H	1.097843	0.0	0.0
N	0.943331	-0.795259	-2.043098
H	1.10345	-0.545633	-3.013487
H	1.784887	-0.561336	-1.476151
N	-1.410326	-0.539902	-2.005304
H	-1.322145	-0.786031	-2.985644
H	-2.087928	0.210142	-1.929332
N	-0.431504	-1.271543	0.600005
H	-1.13478	-1.680937	-0.006281
H	0.373505	-1.887714	0.563568
C	-0.672975	1.177764	0.666611
H	-0.309722	2.124935	0.265557
H	-0.457935	1.135993	1.7362
H	-1.76486	1.136473	0.551174
F	2.768115	0.0	0.0
