18

C	-0.194734	-0.100804	-1.519553
C	0.0	0.0	0.0
F	-0.075312	1.222305	-2.046321
H	1.104135	0.0	0.0
N	0.844083	-0.942582	-1.975261
H	1.726338	-0.661886	-1.513297
H	0.896936	-0.92501	-2.984886
N	-1.478696	-0.552224	-2.024623
H	-1.731085	-1.338543	-1.432839
H	-2.144986	0.18547	-1.817844
N	-0.519501	-1.266217	0.577761
H	-0.321266	-1.227641	1.574265
H	0.103381	-1.985782	0.216571
C	-0.671172	1.187216	0.640877
H	-0.473752	1.195495	1.718358
H	-1.759248	1.154389	0.500578
H	-0.282943	2.114255	0.220943
F	2.774799	0.0	0.0
