18

C	-0.197351	-0.026825	-1.51473
C	0.0	0.0	0.0
F	0.091906	1.286084	-1.97299
H	1.096111	0.0	0.0
N	0.775941	-0.879417	-2.141268
H	1.666552	-0.623119	-1.684455
H	0.563187	-1.804038	-1.775083
N	-1.510251	-0.39023	-1.957124
H	-1.480364	-0.407652	-2.971155
H	-2.155948	0.335814	-1.672805
N	-0.373086	-1.316444	0.528311
H	0.234463	-1.511758	1.314524
H	-1.335051	-1.32452	0.848501
C	-0.629668	1.175937	0.721578
H	-0.305865	2.12105	0.283919
H	-1.729478	1.13507	0.692055
H	-0.327448	1.164463	1.773252
F	2.736367	0.0	0.0
