18

C	-0.195598	-0.16513	-1.511888
C	0.0	0.0	0.0
F	-0.055646	1.117872	-2.115256
H	1.099275	0.0	0.0
N	0.884773	-1.000986	-1.953018
H	1.007109	-0.898498	-2.955022
H	1.743204	-0.688733	-1.459273
N	-1.511403	-0.628197	-1.860627
H	-1.787197	-1.233681	-1.092493
H	-1.453195	-1.194722	-2.699515
N	-0.512189	-1.23684	0.642447
H	-0.380425	-1.121776	1.643094
H	0.142805	-1.965253	0.368849
C	-0.671706	1.218548	0.579324
H	-0.451226	1.294625	1.650991
H	-0.293561	2.117607	0.093728
H	-1.758908	1.171891	0.447764
F	2.775075	0.0	0.0
