18

C	-0.005333	-0.038206	-1.524394
C	0.0	0.0	0.0
F	-1.296299	-0.07383	-2.075993
H	1.107445	0.0	0.0
N	0.662746	1.11654	-2.107961
H	0.170559	1.959591	-1.83129
H	1.572267	1.121342	-1.635874
N	0.695981	-1.236722	-1.91167
H	1.574233	-1.184887	-1.382333
H	0.931759	-1.120286	-2.893136
N	-0.577668	-1.221006	0.594487
H	-0.680476	-1.897084	-0.153947
H	0.137706	-1.605109	1.201225
C	-0.643528	1.227784	0.609164
H	-0.582293	1.156174	1.698731
H	-0.142879	2.153961	0.31394
H	-1.704391	1.280855	0.338073
F	2.759645	0.0	0.0
