17

C	-0.614502	0.025006	-1.397967
C	0.0	0.0	0.0
F	-0.208939	1.074798	-2.153469
H	1.087802	0.0	0.0
N	-0.048284	-1.211101	-2.166021
O	1.155109	-1.222079	-2.375415
O	-0.864155	-2.053707	-2.539739
N	-2.021841	0.007895	-1.341339
H	-2.393445	-0.032653	-2.282869
H	-2.302571	-0.838064	-0.860733
N	-0.484734	-1.164158	0.682153
H	-1.233901	-0.894766	1.310338
H	0.273222	-1.548575	1.232565
N	-0.439253	1.286478	0.680741
O	-1.249886	1.200519	1.605215
O	0.032894	2.328989	0.252479
Cl	3.292377	0.0	0.0
