17

C	-0.677832	0.081831	-1.363065
C	0.0	0.0	0.0
F	-0.218814	1.081672	-2.154426
H	1.087786	0.0	0.0
N	-0.275792	-1.208783	-2.142597
O	-1.190882	-1.95158	-2.495626
O	0.911792	-1.358137	-2.379901
N	-2.07264	0.197581	-1.223627
H	-2.401739	-0.590295	-0.67951
H	-2.512339	0.153225	-2.135145
N	-0.46813	-1.192414	0.657704
H	-1.12664	-0.93186	1.38454
H	0.329388	-1.637383	1.09683
N	-0.414514	1.255428	0.74878
O	-1.139078	1.129478	1.738541
O	-0.008971	2.318851	0.301676
Cl	3.26522	0.0	0.0
