17

C	-0.623171	0.035682	-1.39521
C	0.0	0.0	0.0
F	-0.211272	1.086467	-2.14756
H	1.087826	0.0	0.0
N	-0.073683	-1.20235	-2.175069
O	1.135383	-1.241366	-2.348836
O	-0.903309	-2.011846	-2.593792
N	-2.028809	0.034114	-1.328244
H	-2.41052	-0.006589	-2.266
H	-2.320767	-0.800481	-0.835538
N	-0.479409	-1.171435	0.675378
H	-1.230734	-0.910072	1.305245
H	0.281806	-1.555069	1.222583
N	-0.447357	1.279861	0.68787
O	0.042775	2.325178	0.281271
O	-1.290279	1.188165	1.582872
Cl	3.312097	0.0	0.0
