17

C	-0.680579	-0.033	-1.364859
C	0.0	0.0	0.0
F	-2.035983	0.22412	-1.138849
H	1.089267	0.0	0.0
N	-0.221219	1.062228	-2.327404
O	-1.096342	1.652996	-2.95447
O	0.983787	1.190981	-2.448056
N	-0.458471	-1.251537	-2.004943
H	-0.509227	-1.998097	-1.323291
H	-1.094256	-1.382741	-2.78037
N	-0.420013	-1.152141	0.735825
H	-1.301781	-0.981167	1.202787
H	0.285778	-1.367463	1.428287
N	-0.421861	1.299737	0.673337
O	-0.882007	1.237565	1.812231
O	-0.25715	2.331603	0.032183
Cl	3.252699	0.0	0.0
