17

C	-0.286529	-0.022871	-1.50643
C	0.0	0.0	0.0
F	0.015214	-1.328331	-1.928652
H	1.091926	0.0	0.0
N	-1.767767	0.045153	-1.884354
O	-2.596197	-0.133372	-0.994121
O	-2.021112	0.214045	-3.07257
N	0.388325	0.961631	-2.199814
H	1.331232	1.080051	-1.839963
H	0.366571	0.804784	-3.197523
N	-0.45608	-1.092298	0.775766
H	0.228454	-1.832464	0.748417
H	-1.374403	-1.413022	0.512011
N	-0.466191	1.313422	0.593365
O	0.148725	2.320944	0.252901
O	-1.412163	1.289401	1.374834
Cl	3.258752	0.0	0.0
