16

C	0.0	0.0	0.0
C	-0.538931	0.064316	-1.438113
F	1.378637	0.0	0.0
H	-1.643466	0.097345	-1.353235
C	-0.412045	1.238091	0.689316
N	-0.601647	2.266473	1.223738
C	-0.467435	-1.24149	0.732709
H	-0.013407	-2.11906	0.268666
H	-1.556109	-1.298052	0.691467
H	-0.131329	-1.17844	1.769077
N	-0.156738	-1.209905	-2.147753
O	-1.000696	-2.099337	-2.173615
O	0.980919	-1.277256	-2.6095
C	0.021143	1.190534	-2.172928
N	0.457204	2.102596	-2.770337
Cl	-3.528205	0.0	0.0
