16

C	0.0	0.0	0.0
C	-0.281219	-0.18127	-1.528164
F	1.387117	0.0	0.0
H	0.544535	0.359082	-2.002665
C	-0.402353	1.329949	0.486155
N	-0.542248	2.389085	0.974425
C	-0.500322	-1.103446	0.89786
H	-1.59289	-1.108326	0.862648
H	-0.15798	-0.899206	1.914468
H	-0.089475	-2.058079	0.565534
N	-1.488205	0.474358	-2.180698
O	-2.153993	-0.211391	-2.938902
O	-1.559352	1.680498	-2.008857
C	-0.178844	-1.582622	-1.920369
N	0.004782	-2.700536	-2.230974
Cl	-3.514363	0.0	0.0
