16

C	0.0	0.0	0.0
C	-0.435768	-0.090738	-1.489084
F	1.375148	0.0	0.0
H	0.515839	-0.178672	-2.030468
C	-0.42227	1.209814	0.722094
N	-0.543829	2.124982	1.448718
C	-0.372375	-1.24812	0.795007
H	0.061004	-1.14163	1.791561
H	-1.451962	-1.352595	0.855172
H	0.077711	-2.115719	0.306538
N	-1.021866	1.164257	-2.097663
O	-0.516316	2.214749	-1.720229
O	-1.829504	1.026416	-3.002108
C	-1.220012	-1.267316	-1.847598
N	-1.602963	-2.305681	-2.242524
Cl	-3.209964	0.0	0.0
