16

C	0.0	0.0	0.0
C	-0.434431	-0.324395	-1.455228
F	1.385765	0.0	0.0
H	0.517875	-0.448599	-1.987879
C	-0.409283	1.314179	0.518332
N	-0.510414	2.337735	1.08664
C	-0.367248	-1.100652	0.989919
H	-1.446885	-1.196526	1.066948
H	0.066325	-0.830245	1.954654
H	0.083655	-2.035991	0.649219
N	-1.08213	0.792231	-2.245731
O	-0.637921	1.913893	-2.033832
O	-1.864924	0.472059	-3.125639
C	-1.166445	-1.574764	-1.620013
N	-1.521991	-2.670742	-1.850192
Cl	-3.197231	0.0	0.0
