16

C	0.0	0.0	0.0
C	-0.284208	0.026697	-1.517252
F	1.376801	0.0	0.0
H	0.270415	-0.833095	-1.901575
C	-0.432529	1.172469	0.773293
N	-0.584082	2.061621	1.526205
C	-0.474922	-1.291147	0.629389
H	-0.090433	-1.338296	1.650584
H	-1.566181	-1.301586	0.633231
H	-0.074951	-2.13337	0.05855
N	0.441833	1.208913	-2.135965
O	1.18611	0.954236	-3.078945
O	0.209705	2.317365	-1.672766
C	-1.606356	-0.003013	-2.147146
N	-2.305387	-0.074907	-3.095312
Cl	-3.425059	0.0	0.0
