14

C	0.0	0.0	0.0
C	-0.544789	0.035229	-1.42914
Br	1.949918	0.0	0.0
H	-1.659791	0.121566	-1.134941
H	-0.336524	0.890074	0.533715
C	-0.44152	-1.188794	0.733323
N	-0.555401	-2.190637	1.341062
C	-0.297697	-1.241564	-2.219525
H	-0.818213	-2.068207	-1.729114
H	-0.698212	-1.137138	-3.230618
H	0.7666	-1.484615	-2.293389
C	-0.090719	1.218053	-2.129482
N	0.233533	2.178094	-2.730003
H	-2.704586	0.0	0.0
