14

C	0.0	0.0	0.0
C	-0.242182	-0.014209	-1.566972
Br	1.948073	0.0	0.0
H	0.467578	0.730517	-1.944695
H	-0.30098	0.956208	0.418082
C	-0.639289	-1.087595	0.72208
N	-0.684629	-2.072695	1.386738
C	-1.582342	0.313993	-2.241273
H	-1.38366	0.406738	-3.321187
H	-2.326977	-0.45613	-2.066255
H	-1.981492	1.251876	-1.8593
C	0.214787	-1.306048	-2.096621
N	0.506744	-2.333571	-2.584998
H	-2.09314	0.0	0.0
