14

C	0.0	0.0	0.0
C	-0.363501	-0.052559	-1.509893
Br	1.952454	0.0	0.0
H	0.346239	-0.73392	-1.996222
H	-0.289975	0.942684	0.450912
C	-0.545256	-1.109632	0.774747
N	-0.593307	-2.088677	1.438279
C	-0.250357	1.33539	-2.137199
H	-0.408226	1.266313	-3.216745
H	-1.026941	1.977001	-1.711376
H	0.732479	1.775124	-1.950158
C	-1.727548	-0.561525	-1.760643
N	-2.503157	-1.024667	-2.53589
H	-2.131223	0.0	0.0
