14

C	0.0	0.0	0.0
C	-0.260895	-0.012146	-1.555826
Br	1.952286	0.0	0.0
H	0.376643	-0.81744	-1.949208
H	-0.251722	0.964968	0.428177
C	-0.763156	-1.050883	0.678923
N	-0.797637	-2.063314	1.309059
C	0.147208	1.304021	-2.24465
H	-0.142896	1.272215	-3.297939
H	1.22071	1.473134	-2.180787
H	-0.375734	2.140629	-1.772957
C	-1.625012	-0.313726	-2.03526
N	-2.703983	-0.533328	-2.450008
H	-1.96024	0.0	0.0
