14

C	0.0	0.0	0.0
C	-0.242105	-0.025244	-1.569389
Br	1.948472	0.0	0.0
H	0.475339	0.707614	-1.95344
H	-0.300751	0.961926	0.405165
C	-0.65803	-1.076013	0.725356
N	-0.690324	-2.042402	1.418559
C	-1.580027	0.315228	-2.242412
H	-2.332856	-0.444069	-2.054787
H	-1.387949	0.395897	-3.324431
H	-1.964902	1.261219	-1.865406
C	0.198912	-1.325721	-2.092647
N	0.482377	-2.369627	-2.551568
H	-2.085256	0.0	0.0
