15

C	-0.436137	-0.063951	-1.448937
C	0.0	0.0	0.0
F	-1.78903	-0.545175	-1.52427
H	1.095037	0.0	0.0
H	0.157401	-0.829204	-1.958299
N	-0.303791	1.167599	-2.122845
H	-0.816785	1.900655	-1.64774
H	-0.627343	1.087151	-3.076147
C	-0.399226	-1.256342	0.773822
H	0.021892	-2.126527	0.263207
H	0.044313	-1.218938	1.771147
H	-1.480434	-1.376001	0.8533
C	-0.512811	1.199526	0.638807
N	-0.940188	2.179116	1.130734
H	2.7707	0.0	0.0
