15

C	-0.274918	0.017969	-1.487079
C	0.0	0.0	0.0
F	-1.643741	0.145919	-1.777523
H	1.097556	0.0	0.0
H	-0.001451	-0.966275	-1.896083
N	0.432234	1.117295	-2.073746
H	0.521541	0.976785	-3.072801
H	1.370531	1.120211	-1.667441
C	-0.517463	-1.252939	0.695234
H	-1.600708	-1.355998	0.591682
H	-0.263739	-1.22641	1.756895
H	-0.030176	-2.129349	0.260901
C	-0.490873	1.208863	0.641737
N	-0.874845	2.155261	1.223501
H	2.789706	0.0	0.0
