15

C	-0.583095	0.065354	-1.404161
C	0.0	0.0	0.0
F	-0.098667	1.184003	-2.069049
H	1.096393	0.0	0.0
H	-1.669422	0.250943	-1.342907
N	-0.255564	-1.082961	-2.197748
H	-0.410957	-1.935076	-1.685649
H	-0.821533	-1.087474	-3.033683
C	-0.406936	-1.278571	0.739215
H	0.153831	-2.12197	0.328961
H	-1.482349	-1.482501	0.685536
H	-0.120718	-1.198626	1.789278
C	-0.47492	1.167745	0.732402
N	-0.884081	2.089704	1.335888
H	2.811261	0.0	0.0
