15

C	-0.585161	0.062701	-1.405212
C	0.0	0.0	0.0
F	-0.111387	1.18841	-2.063431
H	1.094883	0.0	0.0
H	-1.676518	0.228063	-1.34315
N	-0.237036	-1.083832	-2.197531
H	-0.822129	-1.116353	-3.020526
H	-0.372627	-1.932556	-1.671005
C	-0.403415	-1.272514	0.747453
H	-1.479415	-1.477292	0.702236
H	-0.109391	-1.184998	1.794112
H	0.156883	-2.119723	0.342493
C	-0.472004	1.172413	0.729275
N	-0.885109	2.105178	1.314188
H	2.79801	0.0	0.0
