15

C	-0.458784	-0.014863	-1.461909
C	0.0	0.0	0.0
F	-0.193644	-1.279432	-1.967986
H	1.096199	0.0	0.0
H	0.148816	0.696735	-2.029102
N	-1.853393	0.26123	-1.727475
H	-2.0213	1.247775	-1.575873
H	-2.42576	-0.24561	-1.060021
C	-0.465974	-1.211877	0.802856
H	-0.070568	-1.142325	1.818592
H	-0.05543	-2.111079	0.343456
H	-1.556948	-1.302372	0.861968
C	-0.464047	1.242231	0.599624
N	-0.874626	2.242169	1.064235
H	2.797086	0.0	0.0
