15

C	-0.467933	0.021126	-1.457692
C	0.0	0.0	0.0
F	-0.067469	-1.166682	-2.046282
H	1.097443	0.0	0.0
H	0.03957	0.835608	-1.981107
N	-1.893624	0.131193	-1.706982
H	-2.221528	1.012928	-1.328344
H	-2.359425	-0.609211	-1.19142
C	-0.442537	-1.243867	0.767192
H	0.033052	-1.238149	1.749788
H	-1.527339	-1.310745	0.905553
H	-0.088997	-2.126335	0.231605
C	-0.48185	1.215456	0.637793
N	-0.892883	2.204996	1.125394
H	2.79801	0.0	0.0
