15

C	-0.436822	-0.025758	-1.461578
C	0.0	0.0	0.0
F	-0.166146	-1.284479	-1.98757
H	1.095369	0.0	0.0
H	0.199832	0.662623	-2.033575
N	-1.85347	0.200015	-1.626811
H	-2.15234	0.957756	-1.02723
H	-2.053643	0.454242	-2.586512
C	-0.490617	-1.210943	0.790006
H	-0.066857	-2.10798	0.338413
H	-0.123399	-1.14512	1.816797
H	-1.58043	-1.292441	0.795299
C	-0.450017	1.246276	0.600421
N	-0.845683	2.252583	1.064736
H	2.799991	0.0	0.0
