15

C	-0.450874	0.074867	-1.463398
C	0.0	0.0	0.0
F	-0.222387	-1.171754	-2.031248
H	1.094936	0.0	0.0
H	0.186838	0.791068	-1.990428
N	-1.831699	0.415992	-1.718682
H	-1.947152	1.41324	-1.589546
H	-2.425364	-0.046232	-1.038954
C	-0.471796	-1.257662	0.725386
H	-0.046092	-2.126471	0.223814
H	-0.097068	-1.242583	1.750989
H	-1.562782	-1.359513	0.757074
C	-0.460805	1.204433	0.674089
N	-0.855031	2.173844	1.211737
H	2.79572	0.0	0.0
