15
Coordinates from ORCA-job run
  C   -0.73113415922309     -0.17154197182938      0.18520024432782
  C   0.39764792168036     -0.69928140919479     -0.68993967794133
  Br  -2.31448403029480     -1.41490653640049     -0.13025760320377
  H   0.67689595475910     -1.70019216310042     -0.34430672443947
  H   0.00442091882362     -0.80055720403220     -1.70224773124557
  N   -0.34831401989962     -0.15932246750905      1.55368342636798
  H   -0.03224318564097     -1.06895139161866      1.86758278790513
  H   -1.10704040368405      0.15143537135557      2.14788474689633
  N   -1.18798178348051      1.12118614698015     -0.27533891734905
  H   -0.58243207720894      1.82570966503493      0.13380396944034
  H   -2.13670350176895      1.29751867700400      0.02994481390389
  C   1.60932263389035      0.23052980335123     -0.68646123018679
  H   2.41161438847782     -0.19967213065312     -1.29027795258913
  H   1.35312227257792      1.19792470338816     -1.12256591009608
  H   1.98730907099175      0.38912090722407      0.32429575820969
