15
Coordinates from ORCA-job run
  C   -0.78147427201701     -0.13157378201206      0.24689064931830
  C   0.31386314112780     -0.63496089166886     -0.69434548478143
  Br  -2.32517832489026     -1.47251688380137     -0.01041460488092
  H   -0.06829366670361     -0.61643757357642     -1.72022247018185
  H   0.50949436288608     -1.68338069753623     -0.45614966095720
  N   -0.51307669066569     -0.17233970897770      1.65709008126474
  H   -0.24717510028344     -1.10220852602868      1.95318245726057
  H   0.22591598932376      0.48761871827450      1.87086380264944
  N   -1.16000053218546      1.18745784876530     -0.06802645754186
  H   -1.43479301796582      1.28858312809024     -1.03566209547708
  H   -1.90372065517598      1.49954793371187      0.54330592016748
  C   1.59758038643668      0.18584641176650     -0.58943043087874
  H   2.03298301972278      0.11718467421921      0.41004095108873
  H   2.34163910815076     -0.19138460141551     -1.29472463096716
  H   1.41423625223941      1.23756395018921     -0.81039802608302
