15
Coordinates from ORCA-job run
  C   -0.70178607922437     -0.19591538528315      0.23275358083919
  C   0.39972363563436      0.35938532813146     -0.66976803956760
  Br  -1.22434520849448     -1.98857873453124     -0.46384087898549
  H   -0.00368138990159      0.43166983120999     -1.68370257193999
  H   0.57248137488299      1.39112446725609     -0.32825990529595
  N   -0.21091775447310     -0.36345095972627      1.56368804850913
  H   0.32293676336242      0.44828550414504      1.85230901778784
  H   -0.98952772092090     -0.50620921372234      2.19569178842666
  N   -1.94109570056781      0.56413736453154      0.21469228189730
  H   -1.73192437920093      1.51885232910315      0.49383680749137
  H   -2.34116337082760      0.58193111080123     -0.71694844174051
  C   1.71300712006473     -0.41333156108582     -0.66943754812015
  H   2.12148491413008     -0.50090496605295      0.33763199266831
  H   1.56705218312209     -1.42087516418896     -1.05919219542831
  H   2.44875561241410      0.09388004941223     -1.29845393654180
