15
Coordinates from ORCA-job run
  C   -0.57109388458845     -0.19103774002463      0.38846727746650
  C   0.89223656703923     -0.39497454824863      0.02585185488108
  Br  -1.66674767013479     -1.47661658775273     -0.75893153842025
  H   1.46431839406078      0.13027043421210      0.80085670880838
  H   1.10386820900194     -1.45965101931418      0.13319293790824
  N   -0.80437661016713     -0.64620976310691      1.73729982099744
  H   -1.79652153510501     -0.73627527107209      1.92123867555512
  H   -0.41987618551766      0.05230587098929      2.36672725223189
  N   -0.97550542785257      1.15512660331458      0.17718498532346
  H   -0.86046973267857      1.44285207210597     -0.78655553186448
  H   -1.94408493499484      1.28905163111298      0.44124052154141
  C   1.30599715326409      0.11414522459919     -1.34872670341742
  H   1.24511953383414      1.20321969009074     -1.41061634747597
  H   2.34283996143833     -0.16047163641082     -1.55315060182843
  H   0.68529616240049     -0.32173496049487     -2.13407931170698
