15
Coordinates from ORCA-job run
  C   -0.70483763405620      0.02062524016277      0.12810356648058
  C   0.46269571368887      0.28516398841547     -0.81066856882962
  Br  -1.44602316135285     -1.82642046749394     -0.32879436980200
  H   0.69253696061968      1.35251246421225     -0.70233700438695
  H   0.09727741189107      0.13450061243201     -1.82733804649760
  N   -0.30181983651527      0.08794550595255      1.48949766109901
  H   -1.08789970024869     -0.06714196361035      2.10903917426125
  H   0.42062364162115     -0.58641148144356      1.70888365646697
  N   -1.79120482201904      0.91666355727170     -0.18472610660946
  H   -1.54477097712345      1.83387848060160      0.17573526979002
  H   -2.64880683749360      0.61355147397961      0.26130372125892
  C   1.71724963785404     -0.53746297954978     -0.54752897208978
  H   2.17853309193781     -0.27533862756426      0.40752589476508
  H   2.46004281471839     -0.34638522270580     -1.32470167225651
  H   1.49640369647810     -1.60668058066029     -0.55399420364992
