15
Coordinates from ORCA-job run
  C   -0.63888469583945      0.16732579327994      0.25666255631883
  C   0.46194450210877      0.34220932532523     -0.77284678286153
  Br  -1.48528932697481     -1.81708344237719     -0.24901765626716
  H   0.76493958369754      1.39173239723416     -0.68269354513798
  H   0.02676381959095      0.20241416467979     -1.76499284036271
  N   -0.17487980999044      0.10777397580651      1.57029157923752
  H   0.45569874066307     -0.66840791265415      1.71019541679565
  H   -0.92359077493792      0.05630767769135      2.24886268495539
  N   -1.66710060606692      1.10006063225590      0.09631954541105
  H   -2.00223387378193      1.11155447658202     -0.85704854146516
  H   -2.44899727283848      0.92813540157073      0.71563359705184
  C   1.67175028590238     -0.56384422608016     -0.59468227832278
  H   2.19991364491309     -0.34174844458863      0.33529210149649
  H   2.37813776019908     -0.40233744393224     -1.41128176975271
  H   1.38082802335505     -1.61509237479326     -0.60269406709675
