15
Coordinates from ORCA-job run
  C   -0.64060576963717     -0.12782954626000      0.40637025015009
  C   0.84286305214598     -0.31265016087731      0.07923181353223
  Br  -1.64676354713365     -1.48739713264521     -0.76698207070428
  H   1.37225643764776      0.32785503090713      0.79556399656579
  H   1.12447591042695     -1.34694056730030      0.30144873714460
  N   -0.86556589198239     -0.34758431499357      1.77936722165012
  H   -1.85068003591249     -0.26099556810186      1.99491702194046
  H   -0.51329257078823     -1.24258716940328      2.09069812613937
  N   -1.24161433970166      1.13565498880583      0.07780461350389
  H   -0.76303621713660      1.86419637045385      0.59739610200633
  H   -1.18888138696663      1.32490267478032     -0.91357227462031
  C   1.25512346052954      0.04773960949563     -1.34029806818093
  H   1.04352776720833      1.09625430735072     -1.56190327777740
  H   2.33022498968517     -0.09858929245622     -1.46486432162783
  H   0.74196814161510     -0.57302922975573     -2.07517786972212
