15
Coordinates from ORCA-job run
  C   -0.67350597573158     -0.28185759288646      0.34001515665097
  C   0.83053278705252     -0.33842977079883      0.06506749007073
  Br  -1.56898412740299     -1.57208108022152     -0.88892407277666
  H   1.17081096096696     -1.35797043909327      0.26247165604372
  H   1.29874688513566      0.31057181761583      0.82014916067546
  N   -0.91575546959503     -0.72507258314016      1.67645115535521
  H   -0.24622768149103     -0.31845336933365      2.31812871444139
  H   -1.85785731868902     -0.47493061983303      1.95166597656714
  N   -1.32785512033054      0.98667530866521      0.07567856947315
  H   -0.86248250233674      1.71025973152738      0.61628999659253
  H   -1.28704565879529      1.23197326530617     -0.90604673470232
  C   1.26841975239306      0.11873341624937     -1.31879204578895
  H   0.83333786710168     -0.50771792727248     -2.09801653684712
  H   2.35543975785815      0.05934889179847     -1.40561237184228
  H   0.98242584386418      1.15595095141697     -1.50752611391298
