15
Coordinates from ORCA-job run
  C   -0.80410222917137     -0.31160881086997      0.26270313503193
  C   0.35315860605937     -0.64108198969076     -0.68490961647394
  Br  -2.26078270071649     -1.65478580161804     -0.23593062901349
  H   0.68695255282176     -1.66171571254357     -0.47650886491620
  H   -0.03957384567160     -0.64031976768341     -1.70385735284935
  N   -0.43174213953011     -0.48588035980968      1.60439446498977
  H   -0.97262819312403      0.06777498666304      2.24948606732885
  H   0.55450807900625     -0.50911207762385      1.79642303196592
  N   -1.45897563155733      0.96393812200872      0.08575929820383
  H   -0.79097999272794      1.70910154887880      0.25079395253861
  H   -1.85551613145825      1.05560951995682     -0.84123052243269
  C   1.52270365315224      0.33864204441335     -0.58564094501767
  H   2.00599371246923      0.32623060682843      0.39403868334673
  H   1.20628781534149      1.36318551872976     -0.79356091281149
  H   2.28569644510678      0.08002217236037     -1.32295978989082
