15
Coordinates from ORCA-job run
  C   -0.69532770560912     -0.22766554641832      0.33682846851310
  C   0.79428747854141     -0.41865750407064      0.04389452449670
  Br  -1.72052944916866     -1.37727849483837     -0.93114078625550
  H   1.32754967874754      0.15404464409164      0.81741590635008
  H   1.03585649267964     -1.47279460335909      0.20120402832080
  N   -0.97082348870913     -0.69615729325832      1.65777705313336
  H   -1.88024305453487     -0.36268172375158      1.95365798881073
  H   -0.25795156255378     -0.38634182608822      2.30672334624887
  N   -1.22528821704723      1.10746210480553      0.12676105616922
  H   -0.68503935535445      1.76224352300114      0.68525531669196
  H   -1.17111193028624      1.38291184221480     -0.84629399150265
  C   1.26437285834553      0.04532660028414     -1.32683800498646
  H   1.07790391903693      1.11139787172895     -1.47508337858623
  H   2.33998038640236     -0.11469623427703     -1.42761086019397
  H   0.76536394951005     -0.50711336006462     -2.12355066721000
