12

C	0.0	0.0	0.0
C	-0.563931	0.043962	-1.405703
Cl	1.791688	0.0	0.0
H	-0.238189	-0.848721	-1.956339
H	-0.341682	0.883544	0.538323
H	-1.654122	-0.004552	-1.210678
C	-0.406491	-1.20849	0.725529
N	-0.565835	-2.209263	1.31969
N	-0.206227	1.30669	-2.045574
H	0.558218	1.180428	-2.694431
H	-1.009399	1.647917	-2.556928
H	-3.097795	0.0	0.0
