12

C	0.0	0.0	0.0
C	-0.451195	0.521525	-1.41288
Cl	1.785927	0.0	0.0
H	0.317244	0.167341	-2.109126
H	-0.371597	0.620386	0.813106
H	-0.361206	1.613396	-1.363954
C	-0.403322	-1.390813	0.200861
N	-0.604435	-2.542084	0.311359
N	-1.745646	0.142316	-1.899561
H	-2.489045	0.244895	-1.157087
H	-1.739531	-0.854994	-2.090247
H	-3.515805	0.0	0.0
