12

C	0.0	0.0	0.0
C	-0.38318	0.019496	-1.499951
Cl	1.789995	0.0	0.0
H	0.247953	-0.70959	-2.017047
H	-0.366185	0.88907	0.504733
H	-1.429976	-0.26777	-1.543625
C	-0.473079	-1.201462	0.691166
N	-0.530134	-2.245414	1.236521
N	-0.233309	1.323343	-2.126915
H	-0.952321	1.921955	-1.732484
H	0.66789	1.719561	-1.884737
H	-2.58948	0.0	0.0
