14

C	0.0	0.0	0.0
C	-0.390965	-0.057055	-1.553534
Br	2.023603	0.0	0.0
H	0.541298	0.01361	-2.124098
C	-0.349858	1.306374	0.561092
N	-0.483973	2.386656	1.005542
N	-0.417591	-1.050962	0.85159
H	-1.442941	-0.958483	0.908351
H	-0.19132	-1.94765	0.432971
C	-1.214877	1.054615	-2.033538
N	-1.67062	1.992616	-2.575794
C	-0.962319	-1.361508	-1.87677
N	-1.2964	-2.442396	-2.191495
Cl	-3.153357	0.0	0.0
