14

C	0.0	0.0	0.0
C	-0.537937	0.027279	-1.448891
Br	1.953738	0.0	0.0
H	-1.645567	0.0463	-1.303046
C	-0.348645	1.268209	0.674632
N	-0.54657	2.257384	1.279815
N	-0.495094	-1.186739	0.623257
H	-1.522425	-1.10617	0.597795
H	-0.198545	-1.211721	1.592939
C	-0.158469	-1.181988	-2.176429
N	0.129081	-2.127398	-2.810909
C	-0.122214	1.22023	-2.181514
N	0.19871	2.174749	-2.786137
Cl	-3.40599	0.0	0.0
