14

C	0.0	0.0	0.0
C	-0.325181	0.141345	-1.559534
Br	1.951122	0.0	0.0
H	0.529235	-0.318951	-2.068548
C	-0.425922	1.180736	0.752958
N	-0.590702	2.181945	1.345525
N	-0.447477	-1.199696	0.621284
H	-1.475906	-1.126948	0.642089
H	-0.177706	-2.000934	0.059276
C	-0.34561	1.533373	-2.001238
N	-0.305346	2.640385	-2.389723
C	-1.469348	-0.614715	-2.09139
N	-2.052979	-1.32925	-2.822508
Cl	-3.235418	0.0	0.0
