14

C	0.0	0.0	0.0
C	-0.523502	-0.409996	-1.413374
Br	1.957338	0.0	0.0
H	-1.630922	-0.320478	-1.283144
C	-0.378844	1.40036	0.240342
N	-0.592077	2.535462	0.455826
N	-0.475011	-0.824102	1.063259
H	-1.498214	-0.724789	1.067554
H	-0.230582	-1.792523	0.88046
C	-0.184339	-1.801892	-1.691863
N	0.059605	-2.932645	-1.897811
C	-0.066057	0.468409	-2.483825
N	0.289127	1.178366	-3.350363
Cl	-3.377727	0.0	0.0
