14

C	0.0	0.0	0.0
C	-0.540678	0.22383	-1.42995
Br	1.957087	0.0	0.0
H	-1.649249	0.207235	-1.283502
C	-0.351269	1.161975	0.842418
N	-0.556331	2.060091	1.574136
N	-0.486864	-1.264723	0.45646
H	-1.514248	-1.193889	0.435885
H	-0.1971	-1.41362	1.41674
C	-0.142251	-0.86468	-2.319782
N	0.167999	-1.713793	-3.069195
C	-0.147895	1.517515	-1.981413
N	0.140739	2.564941	-2.428376
Cl	-3.400975	0.0	0.0
