15

C	0.0	0.0	0.0
C	-0.239593	0.056406	-1.510824
F	1.340187	0.0	0.0
H	0.380119	0.876221	-1.869435
H	0.124914	-0.892269	-1.896797
N	-0.391594	1.260586	0.741144
O	-0.687944	1.232615	1.921896
O	-0.220148	2.273278	0.06592
N	-0.382737	-1.3057	0.64739
O	-0.281517	-1.379865	1.86541
O	-0.587449	-2.245499	-0.111906
N	-1.570518	0.266816	-2.139827
O	-2.099384	-0.716629	-2.648843
O	-1.944506	1.425634	-2.276481
F	-2.178664	0.0	0.0
