15

C	0.0	0.0	0.0
C	-0.238398	-0.079338	-1.509399
F	1.339816	0.0	0.0
H	0.148051	0.853432	-1.912904
H	0.363824	-0.919691	-1.850423
N	-0.38512	1.316757	0.626142
O	-0.583606	2.244001	-0.148974
O	-0.288896	1.411382	1.842553
N	-0.39188	-1.248924	0.760347
O	-0.232072	-2.27265	0.098044
O	-0.673695	-1.203138	1.944058
N	-1.571052	-0.274069	-2.140075
O	-2.088122	0.714477	-2.65254
O	-1.954846	-1.429419	-2.279514
F	-2.178989	0.0	0.0
