19

C	-0.382877	0.023233	-1.477274
C	0.0	0.0	0.0
F	-0.028878	-1.200603	-2.060647
H	1.097914	0.0	0.0
C	-1.852687	0.132823	-1.638752
N	-3.016328	0.234136	-1.756799
C	0.3339	1.113982	-2.251237
H	0.161666	0.961809	-3.318707
H	1.400752	1.039348	-2.027096
H	-0.030173	2.103426	-1.970115
C	-0.526195	-1.253059	0.685695
H	-1.622422	-1.258788	0.727125
H	-0.142975	-1.289624	1.708734
H	-0.187816	-2.152032	0.170189
C	-0.46574	1.267549	0.712213
H	-0.00197	2.162226	0.292716
H	-1.555186	1.381253	0.676179
H	-0.164395	1.215523	1.761557
Br	3.673913	0.0	0.0
