19

C	-0.382344	-0.091931	-1.478143
C	0.0	0.0	0.0
F	-1.76237	-0.372494	-1.60028
H	1.097793	0.0	0.0
C	-0.194833	1.206572	-2.158546
N	-0.077473	2.241831	-2.699595
C	0.391201	-1.165063	-2.222955
H	1.462259	-1.004243	-2.071482
H	0.148857	-1.135879	-3.287575
H	0.118797	-2.14532	-1.829775
C	-0.463001	-1.243141	0.758537
H	-1.552636	-1.336721	0.748972
H	-0.026134	-2.157318	0.353442
H	-0.128315	-1.165121	1.79566
C	-0.530564	1.265982	0.661794
H	-0.258626	1.265763	1.720073
H	-1.621879	1.323656	0.585683
H	-0.10012	2.16347	0.213669
Br	3.616053	0.0	0.0
