19

C	-0.386269	-0.096552	-1.477524
C	0.0	0.0	0.0
F	-1.754318	-0.429249	-1.594716
H	1.097815	0.0	0.0
C	-0.250633	1.211102	-2.154063
N	-0.169197	2.245032	-2.70534
C	0.426115	-1.13234	-2.232956
H	1.490001	-0.911228	-2.110608
H	0.224591	-2.122722	-1.823016
H	0.153004	-1.127136	-3.290649
C	-0.466838	-1.237614	0.765076
H	-1.558005	-1.288588	0.816035
H	-0.093519	-2.162702	0.32314
H	-0.070551	-1.188292	1.781932
C	-0.524853	1.268556	0.662122
H	-1.614645	1.338641	0.5737
H	-0.266161	1.260117	1.723782
H	-0.079296	2.163324	0.223727
Br	3.621767	0.0	0.0
