17

C	-0.42078	-0.025992	-1.45744
C	0.0	0.0	0.0
Cl	-0.07353	1.555817	-2.215073
H	1.093966	0.0	0.0
H	-0.358963	0.926855	0.451129
C	0.24896	-1.109882	-2.267367
H	-0.022556	-2.093044	-1.88275
H	-0.04794	-1.05347	-3.31469
H	1.328082	-0.968045	-2.16832
N	-1.94381	-0.179434	-1.504229
O	-2.407071	-1.159582	-2.085866
O	-2.607514	0.658306	-0.903294
C	-0.502169	-1.205974	0.78921
H	-1.594606	-1.252995	0.834332
H	-0.125778	-1.133603	1.811746
H	-0.125273	-2.144139	0.37787
Br	3.655993	0.0	0.0
