17

C	-0.431648	0.053609	-1.459058
C	0.0	0.0	0.0
Cl	-2.146288	0.57164	-1.601711
H	1.093574	0.0	0.0
H	-0.307581	0.957142	0.434319
C	0.446257	0.979614	-2.270676
H	0.172974	0.953573	-3.327272
H	0.312472	1.994632	-1.892473
H	1.489865	0.692309	-2.133992
N	-0.347717	-1.35998	-2.036588
O	-1.312565	-2.108215	-1.914016
O	0.73565	-1.669918	-2.524266
C	-0.555117	-1.156596	0.815782
H	-0.135005	-2.10754	0.48345
H	-1.644233	-1.219364	0.756509
H	-0.265908	-1.023139	1.860466
Br	3.636955	0.0	0.0
