17

C	-0.530779	-0.003829	-1.424083
C	0.0	0.0	0.0
Cl	0.108155	-1.380115	-2.338071
H	1.091242	0.0	0.0
H	-0.32856	0.940096	0.452007
C	-2.047646	-0.00295	-1.531908
H	-2.351052	0.110021	-2.575366
H	-2.454664	0.821035	-0.944047
H	-2.442075	-0.947831	-1.159938
N	-0.072807	1.297094	-2.105019
O	0.575821	1.26213	-3.1383
O	-0.467751	2.316399	-1.541467
C	-0.488064	-1.179288	0.834692
H	-1.568319	-1.163614	1.00714
H	0.010572	-1.144009	1.805307
H	-0.218898	-2.128252	0.367868
Br	3.643789	0.0	0.0
