17

C	-0.583009	-0.052578	-1.40507
C	0.0	0.0	0.0
Cl	0.318841	-1.21435	-2.403874
H	1.091394	0.0	0.0
H	-0.306717	-0.933143	0.486806
C	-2.052239	-0.425013	-1.447711
H	-2.641301	0.242615	-0.819998
H	-2.434519	-0.375194	-2.468222
H	-2.150746	-1.449051	-1.083446
N	-0.402484	1.329993	-2.031309
O	0.712137	1.653269	-2.410749
O	-1.397992	2.057846	-2.028052
C	-0.474691	1.202632	0.813294
H	-0.084936	1.103931	1.828592
H	-1.562497	1.296792	0.868621
H	-0.066357	2.129794	0.406447
Br	3.672333	0.0	0.0
