12
Coordinates from ORCA-job run
  C   -0.41666279920056      0.17420619113902      0.08930773708114
  C   0.94075650433633      0.28886388321023      0.06709525783132
  H   1.33267831781938      1.24183247786121      0.40721374506191
  N   -1.11852553687639     -1.04306206418325     -0.21765728164306
  O   -2.26971794391926     -1.18380106393245      0.17475340360488
  O   -0.46577270749219     -1.90443196690512     -0.82487504762567
  N   -1.20369913131240      1.34542987169002      0.44174946945214
  O   -0.70139148752668      2.13345372569852      1.24356136916892
  O   -2.28510824227332      1.48781965479097     -0.11972297893068
  N   1.83925418858916     -0.62821226472194     -0.29883166898626
  H   1.52863560296583     -1.50529002229034     -0.68531884696014
  H   2.81755323489011     -0.40580842235688     -0.27827515805449
