12
Coordinates from ORCA-job run
  C   -0.44632782840520     -0.07309381352843      0.08484828649981
  C   0.84673482004075     -0.50184273831168      0.06580166054458
  H   1.00234049272585     -1.52537713455624      0.39075973590377
  N   -1.48814853295898     -1.03325612678343      0.41366572350072
  O   -1.19035986899819     -1.92968533731562      1.20356719659155
  O   -2.56839184845815     -0.90973411308227     -0.15450513708083
  N   -0.84171402515303      1.27925877944807     -0.20394259104140
  O   -1.93127691618236      1.67910391234070      0.18593522587032
  O   -0.00070252119443      1.97357481538559     -0.79335032859138
  N   1.93765262436608      0.18542070756701     -0.28040057801007
  H   1.84367662689438      1.11686013436062     -0.65284431334565
  H   2.83651697732328     -0.26022908552432     -0.26053488084141
