12
Coordinates from ORCA-job run
  C   -0.39368590149253      0.19068000066488      0.02170011782894
  C   0.93411292458536      0.20909349748097      0.29611461912876
  H   1.30186774772673      1.10031151853860      0.79638070961116
  N   -1.21537440782156      1.34068643098797      0.36668628327029
  O   -1.14033510120700      1.76753661222655      1.51904204900801
  O   -1.85636647612799      1.84545559346842     -0.55275494033434
  N   -1.10412791670088     -0.91601656385756     -0.54887190233640
  O   -0.41631546671011     -1.81742345764162     -1.04452541166934
  O   -2.32972275817980     -0.89527173446369     -0.51580592942420
  N   1.83485701114094     -0.76053196558446      0.05994826657929
  H   2.81167054251741     -0.54681098020900      0.15493987927811
  H   1.57541980226943     -1.51770895161106     -0.55285374094029
