12
Coordinates from ORCA-job run
  C   -0.43112542198988     -0.07247636838896      0.07259456059839
  C   0.86719180959598     -0.39708215718293      0.29148675600705
  H   1.04062250984968     -1.33205482923390      0.81715817685588
  N   -0.89044032780435      1.12284330719780     -0.56856031727146
  O   -2.09801600813301      1.33481308302154     -0.60173406033289
  O   -0.02045414294430      1.86540644159470     -1.04165164678852
  N   -1.47375142483103     -1.02012200326617      0.43899715407188
  O   -1.51650872570791     -1.38062658185075      1.61579820683995
  O   -2.15651340045734     -1.46473544609210     -0.48066499143541
  N   1.96118646591580      0.32655345711239     -0.00148851500600
  H   2.86175400351615     -0.11388841578178      0.05999076389164
  H   1.85605466299021      1.12936951287017     -0.60192608743051
