12
Coordinates from ORCA-job run
  C   -0.44118268234357     -0.09285870878900      0.09281068551279
  C   0.88093962679424     -0.41667740700308      0.15238370050913
  H   1.10697333243088     -1.36214977553083      0.63453760040251
  N   -1.41313379244197     -1.07158769283014      0.55489680995353
  O   -1.06550999845104     -1.80801118811551      1.47847532780141
  O   -2.48569753492054     -1.12475903740326     -0.03806762611037
  N   -0.93275321402511      1.16176549006578     -0.40964916762865
  O   -2.05904014665304      1.52868251508192     -0.09979509811905
  O   -0.13437966337779      1.82090734379374     -1.09144411931778
  N   1.92365010183609      0.29219728466907     -0.28657999199642
  H   1.76684719004093      1.14488709661883     -0.79988743082062
  H   2.85328678111091     -0.07239592055752     -0.18768069018648
