12
Coordinates from ORCA-job run
  C   -0.41708857004650      0.17018923528461      0.09722983778708
  C   0.94081528885343      0.28054807549067      0.09050625472594
  H   1.33279483218901      1.21926390019254      0.46825114252282
  N   -1.12064172571670     -1.03020145610248     -0.26720393649218
  O   -2.27791739387509     -1.17971154219346      0.10368805718165
  O   -0.46358553282680     -1.87161652865045     -0.89725976664323
  N   -1.20236913547196      1.33470797847111      0.47615266665605
  O   -2.27616235474582      1.50074289852503     -0.09318004524386
  O   -0.70472377240183      2.09459336911131      1.30741932612162
  N   1.84020842927948     -0.62804221497007     -0.29471737464232
  H   2.81808357815145     -0.40433990096772     -0.26807282404718
  H   1.52958635661135     -1.48513381419109     -0.72381333792639
