12
Coordinates from ORCA-job run
  C   -0.44935440193585     -0.08772235051057      0.04933268182806
  C   0.84473119643937     -0.50859448806044     -0.01885537963902
  H   0.99344312867506     -1.57709863794197      0.09816584554194
  N   -1.47626285034360     -1.06205391223353      0.38313857871482
  O   -1.28998908144219     -2.21902178922997      0.00479269605888
  O   -2.42575771780789     -0.67322198903117      1.05559600085560
  N   -0.85894697792643      1.26996052783054     -0.19057966743560
  O   -2.02719308724443      1.49952259366085     -0.47635795201597
  O   0.04033677895524      2.12191376693117     -0.14327991994188
  N   1.94006067533168      0.22453016585121     -0.23106991129446
  H   2.84133359450925     -0.21629972746640     -0.24751065497681
  H   1.86659874278979      1.22808584020028     -0.28237231769556
