12
Coordinates from ORCA-job run
  C   -0.40337786822184      0.17966461052905      0.05242186157173
  C   0.94418298734317      0.31167481975790      0.04611561556507
  H   1.31278851356865      1.29920509135636      0.30812804494940
  N   -1.24959955686576      1.28755646799796      0.46428921299112
  O   -0.87455561826761      2.42369177304888      0.18185437925413
  O   -2.21119133587185      0.99453116173118      1.16854490575696
  N   -1.09944721122654     -0.99793412964101     -0.40861530008729
  O   -2.26074647258438     -0.88069339644700     -0.77403436112322
  O   -0.45685905096693     -2.05364878872832     -0.37702840946801
  N   1.87487296532893     -0.60701913324490     -0.26617492402864
  H   1.59233800270550     -1.57119096038553     -0.33404976563953
  H   2.83159464505868     -0.38483751597455     -0.05945125974172
