12
Coordinates from ORCA-job run
  C   -0.45215501440664     -0.08077644422141      0.02529451213255
  C   0.83427647276113     -0.41836383353137      0.32028024720027
  H   0.95488022065495     -1.32654878255219      0.90182600123224
  N   -1.51394660303074     -1.00038357068807      0.40275224126400
  O   -1.34000437327671     -1.66456550979910      1.42480533331402
  O   -2.48377327731394     -1.07791393210257     -0.34462900146144
  N   -0.82277938954015      1.14069657753843     -0.63828004973907
  O   -1.97034455223456      1.55349548689189     -0.53167673331208
  O   0.09125863688432      1.73046496479054     -1.23253743908415
  N   1.95288217753319      0.23900071910715      0.00492755583645
  H   2.84461268466090     -0.14056707406921      0.26529549855948
  H   1.90409301730826      1.04546139863590     -0.59705816594227
