12
Coordinates from ORCA-job run
  C   -0.41827506445217      0.18659983937721     -0.04323693210246
  C   0.92476154242092      0.30994509158049      0.14996140535265
  H   1.28326691915714      1.32427907551263      0.29157051656829
  N   -1.06718210088210     -1.05804574636617     -0.35667004204848
  O   -2.17643665076065     -1.03859213565130     -0.87468533603458
  O   -0.41074350624689     -2.08348917013798     -0.12385532783417
  N   -1.24587690715868      1.37652848761747      0.07528333031278
  O   -0.73491931648745      2.44575349325223     -0.25932709645297
  O   -2.37126618574523      1.23634636209720      0.54299101216853
  N   1.84705941995227     -0.65521701682773      0.16392383516736
  H   1.56107665498368     -1.61943005513021      0.10361941875877
  H   2.80953519521919     -0.42467822532383      0.32942521614427
