12
Coordinates from ORCA-job run
  C   -0.42074120365435      0.17058759845605      0.07483045904366
  C   0.93007470892617      0.32955359164868     -0.00463908718925
  H   1.29165672093593      1.33622962755375      0.17788307735593
  N   -1.24550353658086      1.35222992682054      0.27073839752171
  O   -0.75673138536682      2.26911314865733      0.93158032647491
  O   -2.34442355879012      1.36950739501909     -0.27421949229877
  N   -1.08042675227457     -1.10338664649910     -0.02652511533795
  O   -2.21526551177873     -1.22447912548227      0.41691564154097
  O   -0.40887181080723     -2.02223755853076     -0.51782636631834
  N   1.85547329600806     -0.59939183082930     -0.25576130058043
  H   1.57036221016111     -1.53505256183648     -0.49738202887163
  H   2.82439682322142     -0.34167356497750     -0.29659451134082
