12
Coordinates from ORCA-job run
  C   -0.45611753908890     -0.05250901630970      0.03345394008227
  C   0.81075438044928     -0.39680558162386      0.39788412267586
  H   0.88412196338773     -1.19951336713038      1.12433821478280
  N   -1.56224053342181     -0.84815073881215      0.54211812001122
  O   -1.42319797589123     -1.34353675631325      1.66085752440381
  O   -2.52883797752414     -1.00787406948544     -0.19612871798310
  N   -0.76286895615714      1.05526827883580     -0.83117318979005
  O   0.18189747506731      1.49442932383292     -1.50287443946396
  O   -1.89180814760138      1.52905345724242     -0.81610145191718
  N   1.96135728983688      0.14328488951214     -0.01049974683638
  H   1.95442960805836      0.84489966440357     -0.73356013920750
  H   2.83251041288504     -0.21854608415207      0.33168576324220
