12
Coordinates from ORCA-job run
  C   -0.44980017937735     -0.08636019397842     -0.04844359260051
  C   0.82894510790957     -0.51407997614614      0.14712431503239
  H   0.94698041673867     -1.58512901211733      0.27528040672219
  N   -1.52708316346431     -1.05796156410243      0.05420523229435
  O   -2.59404561881682     -0.67001228376420      0.51898058648675
  O   -1.27021174215289     -2.21245004233760     -0.28838083572980
  N   -0.79650049565502      1.27762487912548     -0.34538142914636
  O   -1.87683658233771      1.51775130122054     -0.86922282148168
  O   0.07351331584935      2.12369677962876     -0.09285014792003
  N   1.94641953709188      0.21576137302353      0.17796152396934
  H   1.88811062649344      1.22049860887667      0.13057451433899
  H   2.83050877772119     -0.23033986942883      0.34015224803434
