12
Coordinates from ORCA-job run
  C   -0.44968213009225     -0.09322474723566      0.03007397388773
  C   0.85087566032051     -0.41307631428604      0.27994259598052
  H   1.00719980824470     -1.34829201096912      0.80757907863790
  N   -0.86523545867711      1.15227655085349     -0.55678195573239
  O   0.02037929915698      1.79936323143830     -1.13433091703541
  O   -2.02249302452177      1.52431558020672     -0.41007112415061
  N   -1.47819003758649     -1.06192145471525      0.37510520669819
  O   -2.45919325668175     -1.12805254085820     -0.35853167782420
  O   -1.26302675410161     -1.77843720866008      1.35311562975075
  N   1.94521213988053      0.28845859985028     -0.02467013206628
  H   1.86237399925338      1.13052591161637     -0.57164858592773
  H   2.85177975480489     -0.07193559724081      0.21021790778152
