12
Coordinates from ORCA-job run
  C   -0.44108115525872     -0.09930384101649      0.08138362389083
  C   0.87848140637664     -0.43763205456431      0.10452082776221
  H   1.10231737614554     -1.41164933230644      0.52722586608526
  N   -0.92614734899632      1.19009960102267     -0.32822836663502
  O   -2.04594113346265      1.54416074170898      0.01834498709861
  O   -0.12862494991172      1.88821012876183     -0.97143161825215
  N   -1.41670750441969     -1.09321776411166      0.50189333023219
  O   -1.06592652310519     -1.87980948952736      1.38186297310412
  O   -2.49546124061449     -1.10627327243715     -0.08181363911070
  N   1.92001290009732      0.27369519788110     -0.33358419593692
  H   1.76744875452799      1.18867781337944     -0.72738943496538
  H   2.85362941862128     -0.05795772879062     -0.17378435327304
