12
Coordinates from ORCA-job run
  C   -0.41232211080194      0.18256891533310      0.09411530019235
  C   0.94867261490597      0.24621108436236      0.10850497407443
  H   1.36672087283871      1.15970526863839      0.51871422041948
  N   -1.16258195847281      1.36086233781717      0.49949441113954
  O   -0.65132107593846      2.07737439198710      1.36051796490814
  O   -2.22317118835370      1.57983645843614     -0.07678199751220
  N   -1.15125082792152     -0.98330075594058     -0.31077580571231
  O   -2.31763425247758     -1.10320201252303      0.04165754506381
  O   -0.51469222414511     -1.82925990315644     -0.95562363592314
  N   1.82211967894920     -0.67998210741284     -0.29353343192500
  H   1.48889628488924     -1.51714233482995     -0.74435654574159
  H   2.80656418652802     -0.49267134271142     -0.24093299898351
