12
Coordinates from ORCA-job run
  C   -0.42653780264038      0.16810480716982     -0.03855657165853
  C   0.92060744570422      0.35026735638086      0.05361495027044
  H   1.25260816225367      1.38327779749884      0.03988984204596
  N   -1.05102427706343     -1.12238149865943     -0.14893301937588
  O   -0.34735950308640     -2.09192007868370      0.16990892942441
  O   -2.18944220484747     -1.19894506601475     -0.59343110671083
  N   -1.28468783911490      1.34261758796674     -0.02608902535875
  O   -0.83035403691989      2.36949560750359     -0.53135576495233
  O   -2.37442671055852      1.23899366100219      0.52772224556229
  N   1.87320682063659     -0.58016418548152      0.14687704763135
  H   1.61857171063854     -1.55297433577387      0.20998000366214
  H   2.83783823499796     -0.30737165290879      0.19137246945973
