12
Coordinates from ORCA-job run
  C   -0.41920665021481      0.17712340675656      0.06787480171898
  C   0.93678493214938      0.30656687169364      0.03575286133310
  H   1.31772255438628      1.28644421168605      0.30441134581558
  N   -1.21984695045824      1.36155168000989      0.33688170194174
  O   -2.30153239607895      1.45311949267253     -0.23431548529238
  O   -0.72758449500405      2.20839461464759      1.08306216020660
  N   -1.10588819212544     -1.06838949285064     -0.14162442453985
  O   -0.44084558829115     -1.96937387742583     -0.67361170952830
  O   -2.25710250301117     -1.19010113909224      0.25748135589634
  N   1.84572766696408     -0.61420968416808     -0.29370540524468
  H   1.54671337354384     -1.54243802528727     -0.54750078600257
  H   2.82305824814024     -0.40868805864220     -0.19470641630456
