12
Coordinates from ORCA-job run
  C   -0.54763946573658      0.26143870431713      0.06819143647490
  C   0.75258953508910     -0.40182444065115      0.35968054958937
  H   1.09910550558875     -0.29619397868993      1.38893538187919
  N   -1.21877078317443     -0.89370712356603      0.07975658918485
  O   -2.31983776164068     -1.35358209352707      0.00696327386560
  O   -0.02136402660188     -1.69594904564087      0.28736863627075
  N   -1.08649389823617      1.57541276428467      0.06582410531315
  O   -0.28607478945923      2.47519066325670      0.31758956371549
  O   -2.28399402495862      1.69219636848472     -0.18911176570170
  N   1.79116334415107     -0.22330241633777     -0.55297555509714
  H   2.61751294342579     -0.75721336305856     -0.32482844859591
  H   1.50380342155287     -0.38346603887182     -1.50839376689857
