12
Coordinates from ORCA-job run
  C   -0.41014847572668      0.18892529177254      0.08805273527401
  C   0.95099258119250      0.24860636650925      0.08440429302194
  H   1.37740093125535      1.17737434449223      0.44911684515670
  N   -1.15331377545718      1.38360288194308      0.45669137924825
  O   -2.22019409413498      1.58277459313705     -0.11516718750302
  O   -0.63019197862151      2.13223378383044      1.28258148482141
  N   -1.15681562396357     -0.99183585694719     -0.25344617023572
  O   -2.31778104456101     -1.09308039298747      0.12214508553712
  O   -0.53225273867963     -1.86633631247304     -0.87132543995613
  N   1.81615428835242     -0.69647502202820     -0.29082709918463
  H   1.47483384597689     -1.55183348360552     -0.69947859310110
  H   2.80231608436739     -0.51495619364317     -0.25274733307884
