12
Coordinates from ORCA-job run
  C   -0.44354551600538     -0.08705249915197      0.08560336649647
  C   0.85813835939225     -0.48589447997798      0.02825102318452
  H   1.04350720956536     -1.51341689003196      0.32370448183273
  N   -1.45584805109899     -1.07969622793128      0.41137346956750
  O   -2.54855745395611     -0.97150125758733     -0.13549635081801
  O   -1.12244618315017     -1.98388007428447      1.17789277156108
  N   -0.87489716434165      1.26324674534844     -0.15493694184263
  O   -1.96855172196021      1.62389188323526      0.26106385011937
  O   -0.05852936372016      1.99617974690108     -0.73236638087344
  N   1.92335263327610      0.22716600229947     -0.34408383916903
  H   2.84083078729087     -0.17448490526862     -0.28171826361360
  H   1.80654646470809      1.18344195644936     -0.63928718644495
