12
Coordinates from ORCA-job run
  C   -0.45129627822810     -0.08847218639890      0.02112791211490
  C   0.83927813931623     -0.41407018249144      0.31220584188434
  H   0.97376802080988     -1.34296881778293      0.85672681882686
  N   -1.49551655701602     -1.04766017711921      0.34550075550886
  O   -2.45409937165271     -1.11740810336715     -0.41675519586026
  O   -1.31395984799969     -1.75354324658135      1.33795421019514
  N   -0.84058701731701      1.14932958305508     -0.59920206469130
  O   -1.99931507705439      1.53070305437030     -0.49414377004506
  O   0.06627514474782      1.78142830487731     -1.16017843866173
  N   1.94675254016326      0.27663210030369      0.03120720389183
  H   1.88502543089950      1.11031900565059     -0.53124722450423
  H   2.84367487333123     -0.08728933451599      0.29580395134065
