12
Coordinates from ORCA-job run
  C   -0.42339390062022     -0.13956127925241      0.10057804050990
  C   0.88731240850552     -0.45873806603465      0.16852066253745
  H   1.13055167790748     -1.42936369682097      0.58735207686182
  N   -1.46623845838453     -1.06180648944434      0.48570738928471
  O   -1.12038153662677     -2.12567599393553      0.99523326474449
  O   -2.62076026310141     -0.72815649288187      0.22596649517705
  N   -0.86536523840996      1.17572622471142     -0.32906304044536
  O   -0.52966042904397      1.52748073081243     -1.46350435894559
  O   -1.49372247827216      1.85369138920169      0.48000356714512
  N   1.91341545088206      0.33505893850165     -0.20342000879291
  H   2.83885745677144     -0.05463981624070     -0.21570272832980
  H   1.74938531039253      1.10698455138330     -0.83067135974687
