12
Coordinates from ORCA-job run
  C   -0.42649923081795      0.17052149390160      0.03089157649105
  C   0.89959762717330      0.21968187333353      0.33982500306236
  H   1.20153712083004      1.05383332992864      0.96472569094522
  N   -1.03628255465914     -0.91247411773192     -0.69300244086557
  O   -2.24676289606523     -1.07761145628938     -0.61173173464887
  O   -0.25970980829839     -1.65088103217989     -1.31609161828870
  N   -1.27581450059449      1.27291446254020      0.45379593973551
  O   -0.97300219814184      1.83760401611937      1.50529921579115
  O   -2.19906637109048      1.59061156962565     -0.28891267291311
  N   1.86039010977914     -0.63743223992504     -0.01324329485679
  H   2.80722272375522     -0.47443617698410      0.27640967458185
  H   1.64838997812981     -1.39233172233866     -0.64596533903411
