12
Coordinates from ORCA-job run
  C   -0.42541310718494      0.16208460484508      0.06701046011468
  C   0.90508738972486      0.36566216139895     -0.14274933868446
  H   1.21903998395244      1.40405508522699     -0.16794839370089
  N   -1.26567877896353      1.31482340469971      0.35089796314605
  O   -2.20212532807532      1.15242399228496      1.12657364471757
  O   -0.94348855645516      2.38155651348777     -0.17290926803281
  N   -1.04908824715727     -1.13356832781221      0.02532663842997
  O   -2.25735491239374     -1.20812236314731     -0.15802179902815
  O   -0.28494235164075     -2.10445124847694      0.12468912262776
  N   1.85689622773421     -0.54892429659616     -0.34582710067110
  H   2.81110697127392     -0.25844758348574     -0.45586949805785
  H   1.63496070918529     -1.52709194242510     -0.25017243086077
