12
Coordinates from ORCA-job run
  C   -0.57697041481966     -0.10424373020760      0.11548523731829
  C   0.79104726173632      0.48869169060544      0.24487767387187
  H   1.16443094088186      0.50515528788473      1.27049843874582
  N   -1.19913993934329     -1.36152320886489      0.30912501957092
  O   -2.42012591780965     -1.42813831609732      0.18307765530896
  O   -0.42617525570116     -2.28363277577478      0.57920078157619
  N   -1.14531845999119      1.09116698988340     -0.05138931868600
  O   0.13390638495497      1.79524892214841     -0.02623032114512
  O   -2.20154928224866      1.63866782431547     -0.16670291977888
  N   1.81835771955067      0.19754955732347     -0.66118105091636
  H   2.56400643478548     -0.34809347472110     -0.26053964829821
  H   1.49853052800432     -0.19084876649524     -1.53522154756748
