12
Coordinates from ORCA-job run
  C   -0.44516555791953     -0.10418853161820      0.04628483261864
  C   0.86969342028186     -0.36591558562711      0.28776540211075
  H   1.06699146239979     -1.24566601578874      0.89158600265748
  N   -0.91304925844298      1.07089761521496     -0.63650774615340
  O   -2.08045782110083      1.41457764275145     -0.49913776295154
  O   -0.06010632888830      1.69656720614101     -1.28279948647122
  N   -1.43552105172955     -1.06897426509985      0.49934671750228
  O   -1.18352766014540     -1.67856800469936      1.53918285533874
  O   -2.42367699431042     -1.23776509852102     -0.20775669120805
  N   1.93736591914536      0.31885179244383     -0.12989908542369
  H   1.81470376561155      1.14143889012099     -0.69848922982376
  H   2.85275010509845      0.06074435468202      0.19042419180376
