12
Coordinates from ORCA-job run
  C   -0.42285187455303      0.17658764498138     -0.04353453899963
  C   0.92465679198980      0.33324426568759      0.08339214143600
  H   1.27237569634826      1.36050918414472      0.11909881718090
  N   -1.06413963084975     -1.09904895151878     -0.21664480444369
  O   -0.38232962153446     -2.09111332836609      0.07927631450538
  O   -2.19380420207732     -1.14020157382188     -0.68699279609860
  N   -1.26349968316730      1.36270155901963      0.00232874946962
  O   -2.36645324366985      1.25201053264321      0.52776392503792
  O   -0.78315979395169      2.40340446238084     -0.44748702072895
  N   1.86217601431483     -0.61509169998092      0.14705274887444
  H   2.82658315916456     -0.35845290276496      0.25200300401953
  H   1.59044638798593     -1.58454919240473      0.18474345974709
