12
Coordinates from ORCA-job run
  C   -0.43265681304423      0.15432095342028      0.02809058167542
  C   0.90620045803881      0.32708878787141      0.21205042787366
  H   1.19995890426586      1.29026090196110      0.61635132660102
  N   -1.31448814198924      1.28612474688629      0.26688237807341
  O   -2.30270493642503      1.39229011973303     -0.45223023476835
  O   -0.97505130151649      2.08135543717994      1.14355187643879
  N   -1.02557541240065     -1.08601405124493     -0.39436851549639
  O   -2.21571916866732     -1.28113658089313     -0.18300109730152
  O   -0.25122178332257     -1.90909003143575     -0.90390453650706
  N   1.88948844811719     -0.54492859645808     -0.02268800548858
  H   2.84258865024864     -0.28176782026327      0.14851985007053
  H   1.68018109669504     -1.42850386675690     -0.45925405117095
