12
Coordinates from ORCA-job run
  C   -0.42887608192510      0.16430553479491      0.03012007752843
  C   0.91027676861253      0.28612835407826      0.24946774240900
  H   1.22210653829260      1.21067701146025      0.72423285005145
  N   -1.04684980447237     -1.02725932866058     -0.48602359219304
  O   -0.28550640307102     -1.83614058905350     -1.03618935086508
  O   -2.24586237532326     -1.20177999291156     -0.30976449361357
  N   -1.28442382473424      1.30162979664529      0.33117680382088
  O   -0.94050514690871      2.02442429476064      1.26684172127880
  O   -2.25526598156485      1.48520340620575     -0.39578560822969
  N   1.87398037812880     -0.59555687091701     -0.02675026209484
  H   2.83024001192254     -0.37163927060825      0.17901992102009
  H   1.64868592104308     -1.44099234579420     -0.52634580911243
