12
Coordinates from ORCA-job run
  C   -0.43896794960972     -0.09761782332783     -0.00146806619464
  C   0.85099315437327     -0.49741157874406      0.14840455879682
  H   1.01146722951428     -1.56640642852989      0.24745085438077
  N   -1.49876356325575     -1.08862294416382      0.08532916201639
  O   -2.53438946964709     -0.74376244133024      0.64660970267457
  O   -1.27493003960338     -2.19802715228833     -0.40061981321390
  N   -0.83647292976811      1.24951468403875     -0.31144977186957
  O   -1.95046944194572      1.44311424209087     -0.78154071575281
  O   0.00914541485765      2.12755188968150     -0.09011469951629
  N   1.94541598575130      0.27100192835926      0.23188591798347
  H   1.86967323928819      1.26200730623635      0.06399025650398
  H   2.84929837004508     -0.16234168202256      0.16252261419119
