12
Coordinates from ORCA-job run
  C   -0.43078894928596     -0.15880995616722      0.03518981629249
  C   0.87700100699100     -0.17259690800740      0.41692486710203
  H   1.13098434142853     -0.89575812231799      1.18499097961827
  N   -0.98214496618288      0.79911852379347     -0.88532998084977
  O   -2.19092583089148      0.99358367627450     -0.89119212494487
  O   -0.16070727534403      1.41418587704753     -1.58067160100360
  N   -1.32218244302736     -1.16728442108283      0.58642568046436
  O   -2.21553868632203     -1.58822551062236     -0.14148888710264
  O   -1.08262783645304     -1.55858481167710      1.72904807034857
  N   1.87102129432246      0.60440428976773     -0.01970941410767
  H   1.70676647123819      1.24776104215771     -0.77747589848401
  H   2.79814287352660      0.48220632083395      0.34428849266684
