12
Coordinates from ORCA-job run
  C   -0.38912505236698      0.23366184837876     -0.07589928023360
  C   0.83754290740357      0.12235067408417      0.50640991028094
  H   1.14377659365741      0.96854435322586      1.11271522586777
  N   -1.10827304914775      1.49032367188968      0.06295814893964
  O   -1.79864374474410      1.85227624801172     -0.88434977191821
  O   -0.93098808014081      2.12164925538947      1.10512987871293
  N   -1.01525267210581     -0.82340357955294     -0.82362561831539
  O   -0.26454021593784     -1.73348991460999     -1.20414750271141
  O   -2.22806149641892     -0.79961845347558     -0.98966371926431
  N   1.69169591488059     -0.90154819995459      0.43924946261463
  H   1.48778706393830     -1.68386751137832     -0.16201831676923
  H   2.57508183098233     -0.84787839200826      0.91224158279623
