12
Coordinates from ORCA-job run
  C   -0.43675879881825     -0.11905099677543      0.07053531852758
  C   0.86558626555704     -0.48805414749557      0.09172934262885
  H   1.02998182647955     -1.55048461320489      0.24501170920410
  N   -1.48846244783961     -1.07451115874570      0.32868332339802
  O   -1.20090666356255     -2.27006091917330      0.32536998964964
  O   -2.58718857685860     -0.60581495360041      0.62740916806035
  N   -0.85031871760951      1.19823808433030     -0.36376692888305
  O   -0.12635497925825      2.13701085652710     -0.01367384258988
  O   -1.78959844516183      1.27812441280151     -1.14730892257979
  N   1.93633450802570      0.29296636729437     -0.15338709499671
  H   1.81909680824506      1.29352146084053     -0.11740999330468
  H   2.82758922080124     -0.09088439279851      0.10680793088558
