12
Coordinates from ORCA-job run
  C   -0.41327264851501      0.19158753811180      0.06467893284903
  C   0.94702604213848      0.26550131076379      0.07726267951739
  H   1.35881579086796      1.21712187335107      0.39712657906104
  N   -1.14525337717480     -0.94328592459878     -0.43015033861405
  O   -2.31706704274197     -0.80146775872690     -0.75569591112616
  O   -0.49879559593500     -1.99461202463763     -0.54598009421838
  N   -1.17160823488991      1.31972293708104      0.58205888707146
  O   -0.67790347539810      2.43793620507308      0.43321345608874
  O   -2.21959183825699      1.07259162159579      1.16998644468541
  N   1.82666660976193     -0.67568591257264     -0.27337988423746
  H   1.50143697242927     -1.59843771636960     -0.51391165692468
  H   2.81054679771412     -0.49097214907101     -0.20420909415234
