18

C	0.0	0.0	0.0
C	-0.365163	-0.110394	-1.496542
F	1.407972	0.0	0.0
H	0.131213	-1.039604	-1.819308
N	-0.477399	1.214651	0.578135
H	-0.257226	1.232922	1.568992
H	-1.4933	1.191723	0.494636
N	-0.458024	-1.169454	0.683365
H	0.031692	-1.989175	0.347001
H	-0.333289	-1.086272	1.683944
C	0.235663	1.040505	-2.29187
H	-0.190017	1.987238	-1.953337
H	-0.006734	0.902582	-3.347939
H	1.317642	1.090739	-2.17064
N	-1.773121	-0.224022	-1.799555
H	-2.227788	0.680915	-1.761204
H	-2.274745	-0.778862	-1.112371
Cl	-4.472167	0.0	0.0
