18

C	0.0	0.0	0.0
C	-0.3859	0.032851	-1.485781
F	1.404975	0.0	0.0
H	0.198368	0.874509	-1.889472
N	-0.469236	1.173861	0.660333
H	-0.125256	2.002674	0.190498
H	-0.157955	1.185934	1.623906
N	-0.42528	-1.213673	0.637294
H	-1.442881	-1.201375	0.659855
H	-0.097251	-1.221085	1.597601
C	-1.86225	0.299194	-1.731168
H	-2.199146	1.239935	-1.299159
H	-2.036642	0.333237	-2.812843
H	-2.516416	-0.465486	-1.309377
N	0.092442	-1.199965	-2.131909
H	-0.64075	-1.531568	-2.747514
H	0.198394	-1.901038	-1.406832
Cl	-4.914852	0.0	0.0
