18

C	0.0	0.0	0.0
C	-0.381568	0.01165	-1.48083
F	1.423335	0.0	0.0
H	-1.467895	0.144151	-1.487723
N	-0.440428	1.138369	0.732579
H	-1.454155	1.045912	0.79701
H	-0.250141	1.948641	0.154756
N	-0.457695	-1.16683	0.662378
H	-0.312142	-1.045511	1.651135
H	0.060502	-1.96915	0.349136
C	-0.013106	-1.288452	-2.190781
H	1.050721	-1.510363	-2.052548
H	-0.610338	-2.123237	-1.817235
H	-0.204451	-1.198547	-3.264074
N	0.249006	1.200678	-2.06911
H	-0.137181	1.361764	-2.990717
H	1.241247	1.019602	-2.171049
Cl	-3.819134	0.0	0.0
