18

C	0.0	0.0	0.0
C	-0.358577	-0.05467	-1.496474
F	1.417872	0.0	0.0
H	0.097688	0.849948	-1.924498
N	-0.459114	1.212774	0.587997
H	-0.211707	1.260035	1.568867
H	-0.0715	2.012738	0.10344
N	-0.436203	-1.174411	0.692074
H	-1.453873	-1.152101	0.700972
H	-0.12135	-1.135633	1.65584
C	-1.849633	-0.039504	-1.769404
H	-2.368558	0.772435	-1.265773
H	-2.004705	0.033873	-2.84877
H	-2.338694	-0.953685	-1.427088
N	0.262058	-1.19617	-2.169661
H	-0.181649	-2.031141	-1.801134
H	1.229872	-1.24461	-1.87229
Cl	-4.858328	0.0	0.0
