18

C	0.0	0.0	0.0
C	-0.469697	0.481388	-1.365876
F	1.451802	0.0	0.0
H	-1.559037	0.550835	-1.268993
N	-0.393713	0.938057	0.995517
H	0.120138	0.761088	1.850159
H	-0.186485	1.867538	0.649905
N	-0.433349	-1.339415	0.248737
H	-0.180216	-1.58128	1.202097
H	-1.456338	-1.282595	0.2294
C	-0.095485	-0.49777	-2.471441
H	0.990293	-0.632511	-2.501416
H	-0.430128	-0.10804	-3.437986
H	-0.554728	-1.471769	-2.306527
N	0.056393	1.836928	-1.578253
H	-0.498366	2.292705	-2.291732
H	1.008225	1.766485	-1.920238
Cl	-3.837739	0.0	0.0
