18

C	0.0	0.0	0.0
C	-0.373765	0.020168	-1.489147
F	1.44006	0.0	0.0
H	-1.467847	-0.001168	-1.504678
N	-0.458184	1.16171	0.662478
H	-0.973111	0.893521	1.48881
H	-1.062208	1.698072	0.056886
N	-0.393828	-1.171403	0.73041
H	3.1e-05	-1.999028	0.302096
H	-1.412332	-1.220799	0.682587
C	0.175419	-1.188586	-2.246435
H	1.264136	-1.233866	-2.157166
H	-0.25111	-2.128105	-1.885378
H	-0.083564	-1.106171	-3.306892
N	0.058905	1.303598	-2.049633
H	-0.188072	1.340356	-3.031874
H	1.068578	1.360742	-1.974531
Cl	-3.656042	0.0	0.0
