17

C	-0.454626	0.02266	-1.469983
C	0.0	0.0	0.0
Cl	-0.039739	-1.545784	-2.269745
H	1.101205	0.0	0.0
C	-1.910292	0.171657	-1.550212
N	-3.071399	0.338318	-1.612414
C	0.266543	1.131555	-2.223082
H	-0.00482	1.117376	-3.280342
H	1.341868	0.97756	-2.106022
H	-0.009789	2.086078	-1.776362
N	-0.581413	-1.143892	0.707105
H	-0.169301	-1.133387	1.635867
H	-0.247094	-1.996748	0.269959
N	-0.444081	1.245157	0.599006
H	0.244594	1.556183	1.273721
H	-1.332196	1.08653	1.06469
Cl	3.451829	0.0	0.0
