17

C	-0.452327	0.026026	-1.47552
C	0.0	0.0	0.0
Cl	0.06641	-1.476208	-2.309708
H	1.094792	0.0	0.0
C	-1.918495	0.062054	-1.512887
N	-3.092067	0.123018	-1.474568
C	0.160404	1.211133	-2.21151
H	-0.198171	2.136281	-1.763167
H	1.24477	1.14993	-2.088762
H	-0.096326	1.176072	-3.271958
N	-0.46001	-1.210463	0.653049
H	-1.405071	-1.093398	1.004264
H	0.156595	-1.420952	1.428219
N	-0.420917	1.27286	0.590521
H	0.21459	1.498888	1.347735
H	-1.358395	1.188328	0.972455
Cl	3.433445	0.0	0.0
