17

C	-0.564475	0.058406	-1.438701
C	0.0	0.0	0.0
Cl	0.228897	1.403024	-2.316805
H	1.098088	0.0	0.0
C	-0.267673	-1.181015	-2.160885
N	-0.110133	-2.203411	-2.718394
C	-2.069568	0.292308	-1.443611
H	-2.262076	1.244007	-0.949635
H	-2.44741	0.32813	-2.466729
H	-2.556881	-0.514743	-0.893717
N	-0.529172	-1.221811	0.636749
H	-0.164297	-2.02758	0.133998
H	-0.079705	-1.262346	1.547958
N	-0.444504	1.170107	0.730319
H	-1.203095	0.913312	1.349762
H	0.32858	1.538775	1.267401
Cl	3.42911	0.0	0.0
