17

C	-0.455347	0.048948	-1.470618
C	0.0	0.0	0.0
Cl	-0.105278	-1.525907	-2.290364
H	1.101187	0.0	0.0
C	-1.90405	0.256676	-1.545718
N	-3.05864	0.466731	-1.604493
C	0.307494	1.137908	-2.211375
H	0.074333	2.096879	-1.749191
H	1.375914	0.937944	-2.102177
H	0.029807	1.151349	-3.267134
N	-0.591889	-1.144828	0.693698
H	-0.167793	-1.161525	1.617055
H	-0.283714	-1.996981	0.236533
N	-0.432142	1.243401	0.613628
H	-1.313077	1.085653	1.091742
H	0.26871	1.550626	1.276033
Cl	3.449829	0.0	0.0
