17

C	-0.411254	-0.019338	-1.483279
C	0.0	0.0	0.0
Cl	-2.187648	-0.347763	-1.642843
H	1.102764	0.0	0.0
C	-0.185626	1.289255	-2.100493
N	-0.006371	2.340463	-2.594665
C	0.365432	-1.099636	-2.218289
H	1.433733	-0.895721	-2.101744
H	0.134003	-2.054451	-1.747299
H	0.092242	-1.123338	-3.274677
N	-0.413235	-1.237319	0.623739
H	0.270731	-1.496098	1.323262
H	-1.317906	-1.099962	1.059452
N	-0.574026	1.161113	0.685093
H	-0.154592	1.171078	1.610175
H	-0.241582	2.008639	0.232225
Cl	3.419773	0.0	0.0
