17

C	-0.57859	0.004466	-1.430475
C	0.0	0.0	0.0
Cl	0.086725	1.398067	-2.345211
H	1.093369	0.0	0.0
C	-0.196225	-1.215552	-2.146433
N	0.067859	-2.168331	-2.780616
C	-2.097336	0.123761	-1.412714
H	-2.521312	-0.738366	-0.892404
H	-2.360892	1.048208	-0.897774
H	-2.491691	0.150183	-2.429639
N	-0.42121	-1.256554	0.617634
H	-1.209798	-1.123152	1.238021
H	0.353464	-1.628641	1.151947
N	-0.422873	1.224193	0.68336
H	0.395488	1.649552	1.102569
H	-1.079693	1.011842	1.423465
Cl	3.379722	0.0	0.0
