17

C	-0.471795	0.050659	-1.464762
C	0.0	0.0	0.0
Cl	0.132294	-1.400557	-2.328341
H	1.099462	0.0	0.0
C	-1.936615	0.015373	-1.514591
N	-3.11084	-0.005131	-1.550241
C	0.079226	1.283635	-2.172156
H	-0.151892	1.249193	-3.237812
H	1.163791	1.29532	-2.034
H	-0.366686	2.183881	-1.744728
N	-0.504867	-1.177632	0.653441
H	-1.415652	-0.994721	1.059307
H	0.143761	-1.480047	1.366857
N	-0.494956	1.238441	0.646638
H	-0.40726	1.081892	1.64563
H	0.169124	1.97986	0.439467
Cl	3.430726	0.0	0.0
