15

C	-0.668639	-0.001528	-1.352767
C	0.0	0.0	0.0
Br	0.062082	1.610554	-2.314413
H	1.08804	0.0	0.0
H	-0.318308	0.893886	0.538952
N	-0.243333	-1.158083	-2.254764
O	0.885874	-1.588516	-2.117693
O	-1.075171	-1.516554	-3.086474
N	-2.066162	-0.02116	-1.254535
H	-2.498441	-0.118962	-2.163411
H	-2.406856	0.798236	-0.770848
N	-0.482134	-1.150575	0.815044
O	-0.629279	-2.232417	0.254068
O	-0.675808	-0.936957	2.010363
Br	3.46483	0.0	0.0
