15

C	-0.322428	-0.145998	-1.471552
C	0.0	0.0	0.0
Br	-2.24684	-0.527069	-1.800446
H	1.091098	0.0	0.0
H	-0.435068	0.895628	0.424669
N	-0.185699	1.298339	-2.109223
O	-0.528353	2.267198	-1.444805
O	0.237877	1.324345	-3.258076
N	0.482574	-1.075888	-2.100001
H	0.473987	-0.973523	-3.105716
H	1.42961	-1.058522	-1.717866
N	-0.487066	-1.154089	0.789694
O	-1.305002	-0.907638	1.680437
O	-0.041716	-2.265946	0.524277
Br	3.406249	0.0	0.0
