15

C	-0.407613	-0.046335	-1.459608
C	0.0	0.0	0.0
Br	0.229358	-1.62784	-2.350487
H	1.089628	0.0	0.0
H	-0.348491	0.937459	0.435959
N	-1.935599	0.065443	-1.574482
O	-2.599289	-0.796643	-2.121774
O	-2.374213	1.099726	-1.072384
N	0.11651	1.097186	-2.166884
H	1.131984	1.024591	-2.14141
H	-0.14622	1.930852	-1.649673
N	-0.528737	-1.07061	0.88196
O	-0.241833	-0.968191	2.070546
O	-1.218104	-1.964357	0.388835
Br	3.416711	0.0	0.0
