17

C	-0.473745	-0.019541	-1.449851
C	0.0	0.0	0.0
Br	0.232139	1.502903	-2.421942
H	1.089116	0.0	0.0
N	0.094901	-1.289429	-2.148069
O	1.293104	-1.483582	-2.022042
O	-0.712921	-1.980486	-2.765247
C	-1.916537	-0.054485	-1.637402
N	-3.083833	-0.1009	-1.777485
C	-0.593677	-1.150113	0.787187
H	-0.219897	-1.088746	1.811603
H	-0.242107	-2.096984	0.372066
H	-1.687493	-1.138457	0.803783
N	-0.45012	1.290516	0.62223
O	-1.666102	1.475469	0.734293
O	0.423419	2.039617	1.049139
F	2.522488	0.0	0.0
