17

C	-0.214919	-0.028017	-1.48521
C	0.0	0.0	0.0
Br	-2.068001	-0.019174	-2.211496
H	1.09364	0.0	0.0
N	0.472951	1.176156	-2.151197
O	0.444784	2.227633	-1.530131
O	0.947993	0.991502	-3.263673
C	0.397702	-1.238051	-2.025502
N	0.807181	-2.253191	-2.45378
C	-0.51895	-1.226264	0.722986
H	-0.279685	-1.115848	1.783064
H	-1.600281	-1.355742	0.604818
H	0.005173	-2.111811	0.36045
N	-0.550854	1.196988	0.683902
O	-1.700425	1.556079	0.418506
O	0.153666	1.702645	1.553311
F	2.485674	0.0	0.0
