17

C	-0.428506	-0.002826	-1.469982
C	0.0	0.0	0.0
Br	0.34947	-1.522257	-2.379532
H	1.091348	0.0	0.0
N	-1.969048	-0.094133	-1.605872
O	-2.479004	-1.203617	-1.471559
O	-2.539407	0.986094	-1.465952
C	-0.019498	1.192404	-2.1924
N	0.33317	2.13316	-2.803264
C	-0.576221	-1.122077	0.831189
H	-1.662386	-1.078372	0.934335
H	-0.290593	-2.080449	0.39803
H	-0.129511	-1.054368	1.825035
N	-0.432098	1.332311	0.568839
O	0.357583	2.264765	0.440014
O	-1.423781	1.330076	1.341395
F	2.505309	0.0	0.0
