17

C	-0.538119	-0.04185	-1.40704
C	0.0	0.0	0.0
Br	-2.503237	0.152236	-1.487249
H	1.093959	0.0	0.0
N	0.106848	1.028658	-2.346102
O	-0.584222	1.912277	-2.81788
O	1.296147	0.826317	-2.533223
C	-0.228833	-1.322042	-2.033985
N	-0.022408	-2.35783	-2.551102
C	-0.395709	-1.200896	0.830949
H	-1.475826	-1.292549	0.976453
H	0.087407	-1.107862	1.802197
H	-0.003742	-2.101254	0.355506
N	-0.399277	1.262174	0.642802
O	-0.735005	1.244626	1.829094
O	-0.313283	2.288758	-0.036504
F	2.456004	0.0	0.0
