17

C	-0.373669	0.085944	-1.462099
C	0.0	0.0	0.0
Br	-0.009038	-1.613164	-2.363959
H	1.092716	0.0	0.0
N	-1.875667	0.335063	-1.731188
O	-2.179045	0.924845	-2.757469
O	-2.651274	-0.131835	-0.910423
C	0.384605	1.101158	-2.185771
N	0.990398	1.864928	-2.84142
C	-0.397778	-1.202628	0.832367
H	0.133322	-1.113934	1.778855
H	-1.47164	-1.269367	1.015608
H	-0.046487	-2.111228	0.346468
N	-0.437737	1.245253	0.648165
O	-0.342795	1.325366	1.87019
O	-0.857821	2.16311	-0.071002
F	2.468067	0.0	0.0
