17

C	-0.510544	-0.074015	-1.415948
C	0.0	0.0	0.0
Br	-2.48142	-0.065818	-1.532155
H	1.09279	0.0	0.0
N	0.049756	1.062996	-2.338306
O	1.267488	1.068462	-2.388745
O	-0.726797	1.779416	-2.941852
C	-0.063127	-1.30965	-2.049196
N	0.257495	-2.30694	-2.583415
C	-0.380934	-1.201129	0.839278
H	0.1179	-1.109122	1.802232
H	-0.001764	-2.103737	0.357459
H	-1.459621	-1.289191	0.997887
N	-0.431641	1.25562	0.626596
O	-0.527386	2.253213	-0.094907
O	-0.609893	1.269253	1.846019
F	2.453321	0.0	0.0
