13
Coordinates from ORCA-job run
  C   0.35180276357182     -0.11860660497652     -0.31436696526144
  C   -1.13720681304572     -0.20585316757160     -0.08130619381955
  F   0.85335698921253     -1.22714373817598     -0.85132908914675
  H   -1.49302996233760      0.73847097183308      0.33186292083230
  H   -1.63048027927826     -0.36641027923941     -1.04285701194374
  N   0.72313063560407      1.04219266330929     -1.22662550249618
  O   -0.18890056967764      1.73750466396248     -1.65589778270850
  O   1.92138611459627      1.14637528966711     -1.45000123777573
  N   1.07522565517085      0.17470502976045      0.99366278225961
  O   0.75618101627260      1.24220323951802      1.50239356852282
  O   1.86316377117805     -0.66118193139907      1.40003166394045
  C   -1.43044826903109     -1.30901090576167      0.82990716001239
  N   -1.66518105223588     -2.19224523092618      1.56552568758431
