13
Coordinates from ORCA-job run
  C   0.50323799421646     -0.15993090192348     -0.37181619314358
  C   -0.80078260658822     -0.90132092273236     -0.18425038851519
  F   1.31679460870066     -0.86038706366846     -1.16688372728699
  H   -1.29176457776589     -0.97007258150362     -1.15793689617848
  H   -0.53719328928779     -1.91274817541536      0.14172202956304
  N   0.34349586089518      1.21485438819808     -0.99274590326266
  O   -0.79402055125582      1.57555085434153     -1.26875110793695
  O   1.39467076337170      1.80882773786476     -1.18685295423799
  N   1.19390690712855      0.05922595693828      0.96520811171822
  O   1.98050893592927     -0.81117601147618      1.30393397563701
  O   0.84046037565621      1.05545251450291      1.58155190753672
  C   -1.69769002789485     -0.28171093216289      0.78393229296992
  N   -2.45162439310546      0.18343513703680      1.55288885313691
