13
Coordinates from ORCA-job run
  C   0.40739870575097     -0.20481058964464     -0.15171576236210
  C   -0.87753188681557     -0.43332841297320      0.60813620779096
  F   0.77672913672397     -1.25711968718482     -0.86794769981834
  H   -0.70539492983448     -1.25508726276380      1.31054118479906
  H   -1.12988556366538      0.46538894978276      1.16960488945615
  N   0.32619688417947      1.00310712730854     -1.08222792601507
  O   1.15662431734432      1.02225088406138     -1.97963096779117
  O   -0.52861428101977      1.83888012368948     -0.82000688660535
  N   1.52841823984854      0.14397770692708      0.82710822959225
  O   1.28013499830930      1.09044447715878      1.56424678918411
  O   2.53752759377410     -0.53969882653440      0.78057163882200
  C   -1.95481123472287     -0.78896229213737     -0.30996238803904
  N   -2.81679197987259     -1.08404219768978     -1.04871730901345
