13
Coordinates from ORCA-job run
  C   0.08705687287240      0.46961934720765     -0.09242362130513
  C   -0.95462158238372     -0.61392664614856     -0.23288064622677
  F   -0.43747801330094      1.64728423869421      0.23443028090886
  H   -0.46868180802119     -1.54414311051680     -0.52896256501042
  H   -1.65154816337512     -0.32524445690646     -1.02323198500711
  N   1.12200513266733      0.07579617032523      0.95335960663198
  O   1.74026740444083     -0.94355761379242      0.67249900901626
  O   1.21965350079621      0.78195500987358      1.94156208034397
  N   0.88936596365100      0.66373316117468     -1.37176506932685
  O   0.60242833221317     -0.04110632251098     -2.33116594362466
  O   1.74357960600668      1.53694280877414     -1.30519984610752
  C   -1.66427611004876     -0.78429485177249      1.03219285388232
  N   -2.22975113551788     -0.92405773440180      2.05058584582507
