13
Coordinates from ORCA-job run
  C   0.34339950959986     -0.22834174471706     -0.24374866742314
  C   -0.78999239582240     -0.37386953565942      0.74349535103685
  F   0.43748510673209     -1.25739148125165     -1.07568139738377
  H   -0.57530159344024     -1.24978430948177      1.36421825165744
  H   -0.83005554256831      0.50988139872259      1.37995397009064
  N   0.23979994735296      1.04631352220887     -1.07536034042860
  O   -0.55122004667663      1.89740884888189     -0.69171053245408
  O   0.98979216923681      1.08679863827201     -2.04081279187822
  N   1.65970528587930     -0.08162226388491      0.51465220407609
  O   1.70447688725802      0.89164907224900      1.25715174868277
  O   2.51076109000749     -0.93382930713987      0.32331488633769
  C   -2.05869810595670     -0.56675954500990      0.04837510381080
  N   -3.07915231160223     -0.74145329318978     -0.50284778612447
