13
Coordinates from ORCA-job run
  C   0.12074563765491      0.46579900127252      0.01425386982516
  C   -1.03660379223945     -0.49253394073292     -0.13532584567412
  F   -0.19251479910577      1.54842083172086      0.71045247505322
  H   -1.83100312672431      0.02496811803893     -0.68204437316519
  H   -0.71590746212277     -1.35754679381695     -0.71403059424279
  N   1.33319992384437     -0.19485664411865      0.67123292473564
  O   1.43232140453225     -1.40607522196609      0.52567240225628
  O   2.09753343605789      0.56673199338616      1.24542764144027
  N   0.62472094887002      0.89626998044162     -1.36347043882561
  O   0.83831321904955     -0.02625367676516     -2.14087794742481
  O   0.77732255160969      2.09332189176128     -1.54468105769054
  C   -1.52592062627695     -0.90092315504133      1.17774526927062
  N   -1.92320731514943     -1.21532238418029      2.23564567444184
