13
Coordinates from ORCA-job run
  C   0.28317160741416     -0.13135712468377     -0.37253783298647
  C   -1.15286348273723     -0.07886703145793      0.09007917674486
  F   0.56607718087679     -1.24339158542003     -1.04411801267435
  H   -1.80227497376949     -0.11200974913898     -0.78802994167965
  H   -1.32931098560030      0.86292377713175      0.60998874542599
  N   0.64337966755957      1.04980459900635     -1.26412712342720
  O   1.78894061206320      1.02855507744349     -1.69292273078608
  O   -0.22868753271229      1.88198653946346     -1.47973253577067
  N   1.22682324659808     -0.01425006604746      0.81795837020908
  O   1.11545441869174      1.03999182291027      1.43126135575372
  O   1.96937653859617     -0.95431123589362      1.04094510063666
  C   -1.43025460485108     -1.21159503578514      0.96943048660742
  N   -1.64983169212937     -2.11747998752838      1.68180494194665
