13
Coordinates from ORCA-job run
  C   0.34246200120120     -0.05681057299181     -0.33227938948085
  C   -1.11326305672972     -0.29643374937842     -0.01021280580010
  F   0.88440303146461     -1.04227969184623     -1.03358982719736
  H   -1.49653521841742      0.54100637890074      0.57159421032371
  H   -1.65842664868236     -0.35034740088062     -0.95783902009589
  N   0.48807895736169      1.24605250893621     -1.11779581449009
  O   -0.00451410060837      2.22471232770394     -0.56959731083641
  O   1.06586768264437      1.18512731206920     -2.19031803944216
  N   1.18766523242070      0.15996075412630      0.92102748649616
  O   0.59072865717984      0.51193812707225      1.92980364928988
  O   2.38899988559603     -0.01105463488247      0.77029380739295
  C   -1.27277779332526     -1.54916755991625      0.72141263363141
  N   -1.40068863010530     -2.56170379891284      1.29950042020879
