13
Coordinates from ORCA-job run
  C   0.10335755747805      0.47211949979796     -0.05562152218094
  C   -1.00127941719019     -0.54596129476750     -0.20430556712806
  F   -0.32987010849381      1.63426798278528      0.42423803048574
  H   -1.74579984971019     -0.15172023434853     -0.89998647504817
  H   -0.59061952463277     -1.46319651402041     -0.62748248880520
  N   1.20010227345951     -0.06665421405892      0.85408235017334
  O   1.41764984324284      0.53631120005358      1.89029305034529
  O   1.73815454794140     -1.08056622404631      0.42697452225790
  N   0.80587063545905      0.75389946185961     -1.37672555364792
  O   1.70601167669851      1.57916488653490     -1.30447573700718
  O   0.40529751973846      0.15733864458863     -2.36822901725375
  C   -1.61089190141332     -0.80694570019008      1.09694081270594
  N   -2.09598325257755     -1.01705749418823      2.14429759510302
