13
Coordinates from ORCA-job run
  C   0.40910568253521     -0.20590387692008     -0.45378545488327
  C   -0.94989744378805     -0.76433524033279     -0.09705192724418
  F   0.98419480171213     -0.96753116420486     -1.38853466104153
  H   -1.58290922407090     -0.70247738887792     -0.98547261236360
  H   -0.79609847783310     -1.82121456784956      0.14386338419474
  N   0.36775362718110      1.21165825494893     -0.99141991523724
  O   -0.72901568610443      1.75301298624349     -1.05778260654628
  O   1.45325425443406      1.65450588728418     -1.33925855735973
  N   1.31176059607863     -0.16876526188216      0.76988593009807
  O   1.23044638267159      0.84107483565661      1.45597770495034
  O   1.97414831338750     -1.17577125104239      0.96644423759857
  C   -1.58618536741860     -0.08553996165727      1.02529874998519
  N   -2.08755745878515      0.43228674863381      1.95083572784893
