13
Coordinates from ORCA-job run
  C   0.47204646050211     -0.26897987106353     -0.34813826584345
  C   -0.91499095255674     -0.80230945254520     -0.07101517681414
  F   1.12306343090423     -1.09542668790098     -1.17128711570527
  H   -0.80824841415232     -1.76234902738347      0.43964954532660
  H   -1.37967008294163     -0.98064109965592     -1.04627632368001
  N   0.40329259598727      1.10821094834407     -0.98834328474910
  O   0.27760159196868      2.04081043453316     -0.20585551964727
  O   0.42309954358288      1.13068267971669     -2.20901148439736
  N   1.32698108963161     -0.11050429379374      0.89517581396747
  O   0.83140406685541     -0.45150654799576      1.96197801616718
  O   2.45602720334340      0.30954780089365      0.68426943438370
  C   -1.74773881395782      0.09475694926361      0.72114056263725
  N   -2.46486771916708      0.78870816758739      1.33771379835437
