15

C	-0.339737	0.338373	-1.438586
C	0.0	0.0	0.0
Br	-2.324646	0.637589	-1.646019
H	1.10889	0.0	0.0
N	0.34723	1.509314	-1.923063
H	0.073753	2.294033	-1.337171
H	1.339981	1.327548	-1.728575
C	-0.041548	-0.809161	-2.301326
N	0.198796	-1.705163	-3.021681
N	-0.451665	-1.305744	0.418875
H	-1.325286	-1.263193	0.926606
H	0.266885	-1.71712	1.005085
C	-0.378115	1.09849	0.885412
N	-0.64075	1.959241	1.644643
H	2.614518	0.0	0.0
