15

C	-0.579149	-0.011611	-1.415303
C	0.0	0.0	0.0
Br	0.507059	-1.360178	-2.501624
H	1.097232	0.0	0.0
N	-1.950273	-0.371274	-1.391273
H	-2.011981	-1.210808	-0.819508
H	-2.297433	-0.55887	-2.32429
C	-0.381598	1.254142	-2.120163
N	-0.233792	2.269155	-2.693612
N	-0.380375	-1.24998	0.67146
H	0.498433	-1.704124	0.915201
H	-0.880625	-1.057533	1.529015
C	-0.479447	1.169888	0.714076
N	-0.842084	2.094965	1.345834
H	2.592316	0.0	0.0
