15

C	-0.244968	0.467782	-1.42743
C	0.0	0.0	0.0
Br	-2.195892	0.841766	-1.751601
H	1.110974	0.0	0.0
N	0.513133	1.648731	-1.762393
H	0.21966	2.39541	-1.138079
H	1.482101	1.41018	-1.503741
C	0.093953	-0.61115	-2.362132
N	0.370773	-1.43756	-3.149882
N	-0.466455	-1.336077	0.276875
H	0.241186	-1.817885	0.821382
H	-1.347175	-1.341463	0.773213
C	-0.420605	1.020937	0.950888
N	-0.744983	1.823628	1.748924
H	2.617086	0.0	0.0
