18

C	-0.335625	-0.019603	-1.477514
C	0.0	0.0	0.0
Cl	-2.163776	0.128449	-1.734242
H	1.097646	0.0	0.0
H	-0.337921	0.952392	0.424455
C	0.311129	1.176847	-2.150512
H	0.105468	1.186955	-3.224925
H	1.391029	1.109682	-1.968871
H	-0.057255	2.108687	-1.713426
C	0.109194	-1.311414	-2.138234
H	1.177003	-1.436271	-1.924445
H	-0.437401	-2.170488	-1.746084
H	-0.048547	-1.268254	-3.219477
C	-0.514348	-1.167179	0.827845
H	-1.598868	-1.29019	0.745358
H	-0.265805	-1.00325	1.880154
H	-0.030772	-2.101435	0.533384
H	3.048708	0.0	0.0
