18

C	-0.473034	0.080598	-1.449892
C	0.0	0.0	0.0
Cl	-0.182372	-1.552734	-2.207064
H	1.094856	0.0	0.0
H	-0.353702	-0.936981	0.444149
C	-1.963677	0.346416	-1.592308
H	-2.201593	1.34219	-1.208295
H	-2.268192	0.297893	-2.642043
H	-2.540048	-0.391543	-1.031107
C	0.368158	1.080689	-2.229954
H	1.427771	0.859535	-2.072712
H	0.121962	1.054125	-3.295776
H	0.17047	2.090281	-1.856456
C	-0.456647	1.179025	0.859044
H	0.062841	1.126181	1.818751
H	-0.178419	2.136071	0.409667
H	-1.53395	1.188428	1.05213
H	3.118034	0.0	0.0
