17

C	0.0	0.0	0.0
C	-0.511972	-0.041944	-1.439945
F	1.358711	0.0	0.0
H	-1.55511	-0.365418	-1.405476
C	-0.458855	1.112795	0.835565
N	-0.62036	2.010058	1.577301
N	-0.358807	-1.30936	0.730046
O	-0.620281	-2.289	0.04717
O	-0.211814	-1.283525	1.944828
C	0.369355	-0.856309	-2.377317
H	1.35779	-0.402907	-2.472142
H	-0.109175	-0.884072	-3.357045
H	0.470593	-1.873986	-2.008535
N	-0.534381	1.343768	-2.009166
O	-1.279813	1.520677	-2.966714
O	0.252267	2.175645	-1.553905
Cl	-3.263193	0.0	0.0
