17

C	0.0	0.0	0.0
C	-0.249383	0.257845	-1.520546
F	1.365076	0.0	0.0
H	0.575746	-0.285042	-1.985912
C	-0.480409	1.029563	0.918221
N	-0.502926	1.946693	1.657552
N	-0.302937	-1.390989	0.53899
O	-0.006622	-2.312368	-0.211463
O	-0.626464	-1.475331	1.71533
C	-0.130364	1.752482	-1.760562
H	0.747059	2.144167	-1.240867
H	-1.026606	2.24377	-1.390676
H	-0.030992	1.955966	-2.826503
N	-1.430457	-0.297309	-2.303587
O	-1.493503	-1.515157	-2.404358
O	-2.100744	0.509483	-2.936485
Cl	-2.951838	0.0	0.0
