19

C	-0.454348	0.007943	-1.457311
C	0.0	0.0	0.0
F	-1.840357	-0.188662	-1.525361
H	1.088318	0.0	0.0
C	-0.105356	1.342781	-2.094049
H	0.961162	1.541653	-1.957822
H	-0.322872	1.288279	-3.163198
H	-0.693143	2.147322	-1.658145
C	0.214013	-1.126808	-2.215062
H	1.296272	-1.086026	-2.070788
H	-0.148797	-2.093442	-1.870541
H	-0.024112	-1.017423	-3.275981
N	-0.492334	-1.217301	0.722855
O	0.076606	-2.269911	0.457826
O	-1.432019	-1.085484	1.503048
N	-0.470778	1.155618	0.826697
O	-1.468101	1.782866	0.473169
O	0.178242	1.362283	1.848604
Br	3.388229	0.0	0.0
