19

C	-0.528375	-0.006578	-1.442795
C	0.0	0.0	0.0
F	0.216639	-0.996548	-2.089212
H	1.088502	0.0	0.0
C	-1.979904	-0.421147	-1.579535
H	-2.100014	-1.452075	-1.239034
H	-2.635796	0.22893	-1.003632
H	-2.258005	-0.38188	-2.635503
C	-0.185477	1.306195	-2.12267
H	0.857975	1.560826	-1.92083
H	-0.839406	2.11003	-1.78887
H	-0.307405	1.16662	-3.199349
N	-0.470923	-1.225906	0.722676
O	-1.422821	-1.110261	1.495834
O	0.096582	-2.270739	0.429567
N	-0.468186	1.155669	0.822097
O	0.187026	1.378374	1.836479
O	-1.475732	1.776312	0.473184
Br	3.393939	0.0	0.0
