19

C	-0.52282	0.00365	-1.444017
C	0.0	0.0	0.0
F	0.180326	1.036361	-2.072286
H	1.08852	0.0	0.0
C	-0.113277	-1.278634	-2.142934
H	-0.726659	-2.118826	-1.824093
H	0.94047	-1.482156	-1.939131
H	-0.238808	-1.127738	-3.21765
C	-1.989867	0.354243	-1.584391
H	-2.61797	-0.334623	-1.023997
H	-2.159971	1.371847	-1.226647
H	-2.25958	0.319276	-2.642488
N	-0.45207	-1.162613	0.820412
O	0.179337	-1.349642	1.854862
O	-1.414499	-1.833887	0.446802
N	-0.487504	1.21416	0.725895
O	0.064615	2.269576	0.443353
O	-1.441845	1.080407	1.493926
Br	3.408884	0.0	0.0
