19

C	-0.529249	-0.014711	-1.443885
C	0.0	0.0	0.0
F	-0.206146	1.273649	-1.908809
H	1.09078	0.0	0.0
C	0.264488	-0.995408	-2.282806
H	-0.012451	-2.020763	-2.041757
H	1.332849	-0.855273	-2.102085
H	0.044202	-0.799442	-3.335453
C	-2.030675	-0.152374	-1.600538
H	-2.384902	-1.098119	-1.192294
H	-2.542662	0.668496	-1.098509
H	-2.265519	-0.113687	-2.667392
N	-0.401483	-1.170992	0.838426
O	-0.79363	-2.191374	0.273481
O	-0.24016	-1.046267	2.047089
N	-0.502648	1.217404	0.708095
O	-1.67987	1.193069	1.073788
O	0.272528	2.153474	0.841622
Br	3.401816	0.0	0.0
