19

C	-0.53057	0.034421	-1.44693
C	0.0	0.0	0.0
F	-0.366664	-1.273424	-1.91999
H	1.088171	0.0	0.0
C	-1.998813	0.397271	-1.568714
H	-2.168334	1.426533	-1.243985
H	-2.287687	0.319798	-2.619489
H	-2.616216	-0.275291	-0.977599
C	0.362682	0.91579	-2.299305
H	1.408493	0.639831	-2.149867
H	0.244372	1.967539	-2.041853
H	0.083573	0.765631	-3.345675
N	-0.472836	-1.168221	0.80526
O	0.235718	-1.458408	1.764862
O	-1.524004	-1.72638	0.498272
N	-0.460647	1.219057	0.734385
O	0.052309	2.278555	0.387861
O	-1.335472	1.092022	1.589926
Br	3.422886	0.0	0.0
