19

C	-0.426077	-0.019594	-1.469283
C	0.0	0.0	0.0
F	-1.798164	-0.277345	-1.567889
H	1.090068	0.0	0.0
C	-0.167528	1.360209	-2.055507
H	-0.388622	1.334894	-3.124669
H	0.878142	1.641292	-1.909275
H	-0.813843	2.106192	-1.591368
C	0.336254	-1.07533	-2.24816
H	0.109782	-0.953977	-3.310267
H	1.408527	-0.94793	-2.086265
H	0.044307	-2.072214	-1.929881
N	-0.439374	-1.159254	0.841763
O	-0.620693	-2.238557	0.289901
O	-0.517078	-0.952396	2.049746
N	-0.527481	1.222591	0.671749
O	0.270295	2.120848	0.917911
O	-1.741873	1.262635	0.861887
Br	3.389551	0.0	0.0
