19

C	-0.481938	0.04429	-1.457301
C	0.0	0.0	0.0
F	0.170678	1.131205	-2.03765
H	1.104726	0.0	0.0
C	0.043672	-1.201575	-2.151408
H	-0.484894	-2.099867	-1.826608
H	1.110476	-1.31499	-1.945793
H	-0.105081	-1.078542	-3.226633
C	-1.969547	0.251182	-1.666381
H	-2.289	1.190238	-1.217715
H	-2.155902	0.298301	-2.742716
H	-2.548346	-0.5679	-1.239936
N	-0.501312	-1.245433	0.651862
O	0.283231	-2.180889	0.770533
O	-1.690484	-1.259436	0.980107
N	-0.432666	1.131592	0.875836
O	-0.3163	0.945166	2.083621
O	-0.800049	2.175694	0.343726
Br	3.389589	0.0	0.0
