19

C	-0.331495	-0.102743	-1.484813
C	0.0	0.0	0.0
F	-1.593142	-0.611823	-1.71577
H	1.095996	0.0	0.0
N	-0.450222	1.336975	-2.081189
O	0.589981	1.838772	-2.49775
O	-1.54671	1.888577	-2.052173
N	0.622891	-0.873257	-2.153334
H	1.56252	-0.680773	-1.809274
H	0.579556	-0.767969	-3.157115
C	-0.464906	-1.275632	0.698534
H	-1.555196	-1.312175	0.777683
H	-0.122046	-2.159097	0.158441
H	-0.036369	-1.30482	1.703496
C	-0.529477	1.246625	0.691568
H	-0.078889	2.154258	0.285056
H	-1.617016	1.326015	0.607016
H	-0.263165	1.199339	1.750291
Br	3.58117	0.0	0.0
