19

C	-0.516997	0.005186	-1.430716
C	0.0	0.0	0.0
F	0.090486	1.014749	-2.123367
H	1.094742	0.0	0.0
N	-0.050845	-1.283686	-2.140091
O	1.079256	-1.28396	-2.598555
O	-0.838445	-2.234619	-2.157241
N	-1.926755	0.091482	-1.60144
H	-2.297407	-0.811605	-1.862562
H	-2.36712	0.401803	-0.748353
C	-0.462835	-1.231753	0.770989
H	-0.113647	-1.151535	1.803071
H	-0.039174	-2.148398	0.35745
H	-1.554179	-1.330455	0.783248
C	-0.426484	1.29168	0.699938
H	-1.497577	1.317122	0.938635
H	0.123096	1.371605	1.64023
H	-0.175936	2.164592	0.095584
Br	3.641718	0.0	0.0
