19

C	-0.29222	-0.19995	-1.487221
C	0.0	0.0	0.0
F	-0.347762	-1.540573	-1.770571
H	1.09748	0.0	0.0
N	-1.711962	0.309456	-1.794084
O	-2.640331	-0.421024	-1.464922
O	-1.834668	1.438551	-2.268143
N	0.60294	0.428847	-2.382433
H	0.30103	1.366877	-2.596942
H	1.536361	0.434403	-1.974617
C	-0.542972	-1.093826	0.903891
H	-0.17478	-2.072258	0.596404
H	-0.200317	-0.911404	1.926601
H	-1.637374	-1.114206	0.899215
C	-0.427307	1.389894	0.464309
H	-0.008381	1.572175	1.456007
H	-1.517144	1.48441	0.527605
H	-0.048987	2.171179	-0.197822
Br	3.564231	0.0	0.0
