19

C	-0.340689	-0.172238	-1.480738
C	0.0	0.0	0.0
F	-1.58346	-0.726543	-1.641844
H	1.100211	0.0	0.0
N	-0.420243	1.211173	-2.125925
O	-1.529935	1.707829	-2.288433
O	0.653834	1.742372	-2.378526
N	0.589282	-0.924352	-2.263037
H	1.528323	-0.584072	-2.048555
H	0.548734	-1.885072	-1.941865
C	-0.438304	-1.244991	0.76944
H	-1.52696	-1.308833	0.850166
H	-0.009073	-1.207095	1.773454
H	-0.070558	-2.161301	0.3
C	-0.554436	1.266192	0.636317
H	-1.644704	1.315971	0.550085
H	-0.287895	1.281502	1.695995
H	-0.124704	2.161408	0.182464
Br	3.583478	0.0	0.0
