19

C	-0.493357	-0.031399	-1.428217
C	0.0	0.0	0.0
F	0.101109	1.007217	-2.141502
H	1.09275	0.0	0.0
N	-0.048045	-1.262678	-2.226507
O	0.730446	-2.059577	-1.721594
O	-0.514301	-1.332361	-3.365281
N	-1.902034	-0.006618	-1.553785
H	-2.146995	0.052258	-2.536759
H	-2.271196	0.792892	-1.052279
C	-0.51748	-1.163213	0.840969
H	-0.146377	-1.046587	1.8627
H	-0.153129	-2.118687	0.467395
H	-1.611426	-1.181827	0.865559
C	-0.407389	1.334255	0.638888
H	-0.148422	2.178484	-0.001404
H	0.150037	1.449112	1.569447
H	-1.475262	1.37561	0.884298
Br	3.646767	0.0	0.0
