14

C	-0.30815	-0.093314	-1.50948
C	0.0	0.0	0.0
F	-0.04985	1.163239	-2.057959
H	1.096953	0.0	0.0
H	-1.369295	-0.296101	-1.704388
C	0.619249	-1.105031	-2.14596
H	0.339809	-2.119528	-1.849707
H	1.626736	-0.889912	-1.775768
H	0.563299	-1.027361	-3.23388
C	-0.472499	-1.199735	0.669073
N	-0.857799	-2.188882	1.175004
C	-0.567619	1.192026	0.604425
N	-1.028573	2.156713	1.094047
F	2.524185	0.0	0.0
