14

C	-0.209268	0.000649	-1.510475
C	0.0	0.0	0.0
F	-1.566718	0.056086	-1.858991
H	1.097271	0.0	0.0
H	0.173374	-0.956394	-1.877751
C	0.546563	1.148137	-2.138281
H	0.530142	1.071879	-3.227482
H	0.098823	2.100283	-1.843764
H	1.569524	1.085197	-1.756546
C	-0.537258	-1.190229	0.632317
N	-0.950394	-2.174786	1.123857
C	-0.500247	1.212646	0.624224
N	-0.885431	2.210572	1.112359
F	2.513028	0.0	0.0
