14

C	-0.331503	0.003381	-1.498444
C	0.0	0.0	0.0
F	0.087795	-1.215534	-2.022285
H	1.096272	0.0	0.0
H	0.293757	0.778662	-1.951924
C	-1.794576	0.17244	-1.843358
H	-1.931471	0.126938	-2.92694
H	-2.375216	-0.63145	-1.384474
H	-2.167747	1.131857	-1.479504
C	-0.565577	-1.154898	0.669962
N	-1.020612	-2.100835	1.200386
C	-0.456613	1.235218	0.608745
N	-0.8281	2.254318	1.064283
F	2.468424	0.0	0.0
