14

C	-0.309092	-0.102892	-1.508243
C	0.0	0.0	0.0
F	-0.058877	1.151086	-2.0642
H	1.096936	0.0	0.0
H	-1.369239	-0.31333	-1.69803
C	0.622505	-1.111577	-2.142036
H	0.566841	-1.038522	-3.230735
H	1.629041	-0.888996	-1.773694
H	0.347588	-2.126134	-1.840977
C	-0.472124	-1.196133	0.67644
N	-0.86093	-2.179306	1.191481
C	-0.56865	1.194303	0.597508
N	-1.027301	2.162603	1.081078
F	2.525696	0.0	0.0
