14

C	-0.304496	-0.085946	-1.510154
C	0.0	0.0	0.0
F	-0.036831	1.170618	-2.053334
H	1.097062	0.0	0.0
H	-1.365779	-0.281774	-1.708116
C	0.619649	-1.097236	-2.150605
H	0.573897	-1.010421	-3.238324
H	0.332642	-2.112286	-1.863276
H	1.626109	-0.888541	-1.775163
C	-0.47462	-1.201771	0.662954
N	-0.859467	-2.192108	1.167196
C	-0.566189	1.18958	0.608267
N	-1.019024	2.154927	1.103211
F	2.525094	0.0	0.0
