17

C	0.033611	0.003527	0.013252
C	-0.546291	-0.257769	-1.382906
F	1.436525	0.044391	-0.08379
H	-1.644019	-0.15619	-1.278219
C	-0.457857	1.303759	0.610197
H	-0.02395	1.444176	1.602309
H	-0.150108	2.128019	-0.03658
H	-1.548799	1.269754	0.667825
C	-0.26435	-1.130513	0.909404
N	-0.41606	-2.033259	1.644527
C	-0.200103	-1.643694	-1.929985
H	0.879574	-1.810544	-1.926699
H	-0.569225	-1.740262	-2.952491
H	-0.687325	-2.407337	-1.321546
C	-0.059641	0.78404	-2.286137
N	0.345003	1.596823	-3.031639
Cl	-3.717652	0.041554	-0.410616
