17

C	0.035307	0.005539	0.012975
C	-0.540646	-0.24706	-1.386422
F	1.438096	0.056544	-0.081745
H	-1.639373	-0.155883	-1.282787
C	-0.465599	1.296979	0.621164
H	-0.161174	2.129402	-0.016658
H	-1.556495	1.255842	0.675174
H	-0.034959	1.430153	1.615689
C	-0.256608	-1.138547	0.8982
N	-0.404568	-2.049467	1.623944
C	-0.180371	-1.624105	-1.946724
H	-0.548064	-1.714525	-2.970308
H	-0.659693	-2.39879	-1.34599
H	0.900943	-1.779866	-1.944618
C	-0.062136	0.807981	-2.278734
N	0.332844	1.631197	-3.017934
Cl	-3.716611	0.035335	-0.419338
