16

C	-0.591223	-0.031747	-1.423672
C	0.0	0.0	0.0
Br	0.167303	-1.442266	-2.505297
H	1.092096	0.0	0.0
C	-2.037916	-0.214073	-1.341295
N	-3.185896	-0.402217	-1.171811
N	-0.306939	1.296359	-2.123597
O	-1.278794	1.93567	-2.515307
O	0.864822	1.60788	-2.223999
N	-0.402028	-1.227207	0.660781
H	-1.275068	-1.121217	1.159944
H	0.326233	-1.51138	1.299954
N	-0.433534	1.266163	0.574201
H	-1.264468	1.154982	1.141092
H	0.314631	1.64148	1.143051
Cl	3.334872	0.0	0.0
