16

C	-0.558472	0.003092	-1.429964
C	0.0	0.0	0.0
Br	-2.515976	0.11458	-1.383218
H	1.093903	0.0	0.0
C	-0.085761	1.124319	-2.224604
N	0.244076	2.028284	-2.897557
N	-0.15104	-1.297173	-2.141097
O	-0.948614	-2.218823	-2.20088
O	1.003453	-1.286834	-2.544618
N	-0.39042	-1.236444	0.642309
H	0.31164	-1.481695	1.328797
H	-1.297107	-1.165007	1.086112
N	-0.376341	1.270061	0.598925
H	-1.247536	1.200498	1.10702
H	0.361455	1.560382	1.225754
Cl	3.294293	0.0	0.0
