16

C	-0.530199	0.016507	-1.447937
C	0.0	0.0	0.0
Br	-2.47809	-0.025481	-1.490318
H	1.098635	0.0	0.0
C	-0.104338	1.201747	-2.180378
N	0.179362	2.20237	-2.729803
N	0.016381	-1.218214	-2.179152
O	1.13594	-1.061627	-2.649013
O	-0.658223	-2.233535	-2.193661
N	-0.429012	-1.20753	0.647029
H	0.300584	-1.535753	1.264598
H	-1.290484	-1.053711	1.155502
N	-0.504768	1.201739	0.681311
H	-0.113035	2.021149	0.221535
H	-0.06384	1.184016	1.597153
Cl	3.326759	0.0	0.0
