14
Coordinates from ORCA-job run
  C   -0.77074204910016     -0.14421785328191     -0.07407919404414
  C   0.65984334449759      0.17109228445996     -0.50770274990195
  Cl  -0.87612524590435     -1.96144910991681      0.25744754514485
  H   0.65897455007430      1.23103975900076     -0.77974672129360
  H   0.85035372295563     -0.40502868709406     -1.41965061989249
  C   -1.09310707180824      0.50388720807844      1.20207796454758
  N   -1.34827700280625      1.04716708245911      2.21144458543194
  N   -1.69632617455085      0.28424976484227     -1.06181439572874
  H   -1.48157253969364     -0.13753082289335     -1.95732781897967
  H   -2.65075860953190      0.06186091918008     -0.80680164026974
  C   1.72806474078246     -0.11331474591219      0.53810271748851
  H   2.70829602959016      0.16813469420351      0.14840602045345
  H   1.75908805712081     -1.17051168601997      0.80175820141500
  H   1.55228824837444      0.46462119289416      1.44788610562901
