14
Coordinates from ORCA-job run
  C   -0.76414520770799     -0.27380779287311      0.04170258543846
  C   0.62042959733970      0.01623411349807      0.62500434615748
  Cl  -0.86882016903870     -1.99103786458239     -0.48267182657816
  H   0.58496329510835      1.03654294303616      1.02690930524198
  H   0.76991353925220     -0.65281743417124      1.47625727162170
  C   -1.77927769918695     -0.10706743050095      1.10169165472439
  N   -2.56897228914821      0.09990046335787      1.94752279600268
  N   -1.00894204628057      0.54995841170679     -1.11745995598957
  H   -1.93578675552963      0.37600825163929     -1.48905300042870
  H   -0.94289102143672      1.52829487530747     -0.85581343744342
  C   1.75475708546985     -0.11891886695925     -0.38226118004767
  H   1.61462584298020      0.55182894645342     -1.22891297915870
  H   2.70350953387647      0.12270009526390      0.10169680687098
  H   1.81963629430199     -1.13781871117602     -0.76461238641144
