14
Coordinates from ORCA-job run
  C   -0.78300807318165     -0.08594247024063     -0.05253339383935
  C   0.68552443461122     -0.19907743266939     -0.45941716068293
  Cl  -1.12762465134201     -1.40574335287050      1.19894237438397
  H   0.82680048808677      0.53265470944649     -1.26080691030809
  H   0.81934778554674     -1.19597093239169     -0.89312337307932
  C   -1.04476730426178      1.18225378712618      0.63680758798243
  N   -1.23011553244052      2.21154188842359      1.17097522656364
  N   -1.62450701679517     -0.18267991147676     -1.19151076634776
  H   -2.60491891239991     -0.13531763195594     -0.94241335133467
  H   -1.44719649138512     -1.04481175660652     -1.69320150086992
  C   1.68597546306673      0.03473669514973      0.66301262251456
  H   2.70199041261867     -0.03966872330534      0.27045511936279
  H   1.56748044217892      1.03039955633740      1.09547897885028
  H   1.57501895569712     -0.70237442496663      1.45833454680438
