14
Coordinates from ORCA-job run
  C   -0.81809217305256     -0.24875315310252      0.03206724947647
  C   0.57666152925660      0.05940478160547     -0.52564421286260
  Cl  -0.87841164145818     -1.99477706173045      0.47685100301613
  H   0.71289668127470     -0.58411816476086     -1.40149274111260
  H   0.53830214990467      1.09464235364541     -0.88539238588684
  C   -1.05571102056357      0.53610526199471      1.25114328045776
  N   -1.23473468449150      1.21756826563657      2.19059501972535
  N   -1.91547077499014     -0.00649717370526     -0.87879288441505
  H   -1.74251425111245     -0.49599978914479     -1.75022071334817
  H   -1.98862362894625      0.98756402419354     -1.06786613046002
  C   1.72818447269357     -0.11149569272001      0.45608630648738
  H   1.80498827455784     -1.14310379434127      0.80025017216760
  H   1.60263392409833      0.53426148202427      1.32786940302542
  H   2.67089114282892      0.15619866040520     -0.02545336627084
