14
Coordinates from ORCA-job run
  C   -0.78237621473025     -0.24323134803114      0.13175653953383
  C   0.61769552911767      0.07381078688428      0.66107553196700
  Cl  -0.81171394010559     -2.03550361162142     -0.34956134549282
  H   0.85319592118563     -0.65574882613737      1.43865933207184
  H   0.54952571167578      1.05811196153791      1.13465040511884
  C   -1.76490427962563     -0.12709410350488      1.21474868116127
  N   -2.53263927115079     -0.01096662578674      2.09587914114058
  N   -1.15423657542952      0.61935950865223     -0.93003293610013
  H   -0.52643343129762      0.51761106503317     -1.71697209502710
  H   -2.10339088498705      0.44830153446219     -1.23793914552886
  C   1.69804256213355      0.08364034518538     -0.41327459547930
  H   2.67644245733921      0.21265127456301      0.05308121798591
  H   1.56427992807401      0.91371869884316     -1.11013738788772
  H   1.71651248780057     -0.85366066007979     -0.97193334346333
