14
Coordinates from ORCA-job run
  C   -0.77786461077461     -0.19432444304844     -0.01586446701010
  C   0.69079196545725     -0.30748983912556     -0.41657659979725
  Cl  -1.16656361770827     -1.42574194824342      1.23471008122367
  H   0.84401721750180      0.38848652470859     -1.25071068299114
  H   0.81857719491519     -1.32012510211279     -0.80756359793182
  C   -1.04294069390309      1.12323889643801      0.59491704334378
  N   -1.25665771800904      2.20397692141089      1.00553555731510
  N   -1.61365402405325     -0.47265905273495     -1.16038826445412
  H   -2.59389010482651     -0.39335224399694     -0.91328415751424
  H   -1.41065520679622      0.19537128356558     -1.89650602174727
  C   1.68240399563786     -0.00580824473277      0.69794071606103
  H   1.56366203933377      1.01278297102595      1.07362361508516
  H   2.70251964738709     -0.10730776127941      0.32249936766725
  H   1.56125391583803     -0.69704796187474      1.53266741074996
