14
Coordinates from ORCA-job run
  C   -0.84818455859403     -0.12286291816859      0.04700008987424
  C   0.60698972886086     -0.25540587037947     -0.41909984684412
  Cl  -1.17892715831012     -1.42055270701085      1.25309015799330
  H   0.70267229886657     -1.25166977962352     -0.86430467423416
  H   0.73521222073680      0.47560703301565     -1.22647501353593
  C   -1.04394718636569      1.17212811807501      0.71309936153049
  N   -1.15073881263013      2.23444933113270      1.20199591826597
  N   -1.84416323622191     -0.25003267989370     -0.99430013841811
  H   -1.76020431139888      0.52527298701128     -1.64331375373845
  H   -1.69514722335896     -1.11829568197450     -1.49712008802371
  C   1.66335259032417     -0.03913301225579      0.65620899717064
  H   1.57508776012132     -0.77891992467605      1.45210900482475
  H   1.57808892162341      0.95545408465457      1.09904212559691
  H   2.66090896634658     -0.12703897990675      0.22106785953818
