19

C	0.0	0.0	0.0
C	-0.466356	-0.089663	-1.456935
F	1.398205	0.0	0.0
H	-1.559026	-0.177857	-1.337088
C	-0.463053	1.245323	0.727656
H	-1.556987	1.236197	0.623406
H	0.015448	2.118003	0.276102
H	-0.157046	1.190814	1.776534
C	-0.407792	-1.213433	0.738587
N	-0.559383	-2.229211	1.307797
C	0.155287	-1.30314	-2.144744
H	-0.223773	-1.389794	-3.16793
H	1.245849	-1.214195	-2.195307
H	-0.086346	-2.231118	-1.62039
C	-0.107362	1.18684	-2.215873
H	-0.305572	1.052171	-3.28405
H	0.954338	1.435015	-2.102569
H	-0.704826	2.034291	-1.875391
F	-2.787594	0.0	0.0
