19

C	0.0	0.0	0.0
C	-0.416315	-0.010555	-1.509121
F	1.398935	0.0	0.0
H	0.551462	-0.016694	-2.027097
C	-0.513007	1.151566	0.835461
H	-1.608623	1.041361	0.808491
H	-0.182684	2.101779	0.411756
H	-0.121076	1.06024	1.852537
C	-0.367546	-1.262546	0.679808
N	-0.516642	-2.288883	1.231262
C	-1.205749	1.2289	-1.929222
H	-1.408321	1.172476	-3.00456
H	-0.659878	2.159821	-1.747432
H	-2.144071	1.196139	-1.366518
C	-1.207464	-1.258073	-1.90393
H	-0.657923	-2.181313	-1.694095
H	-1.422788	-1.228228	-2.97832
H	-2.13862	-1.217407	-1.327232
F	-2.92929	0.0	0.0
