19

C	0.0	0.0	0.0
C	-0.417861	-0.22546	-1.490381
F	1.398257	0.0	0.0
H	0.549427	-0.307657	-2.002953
C	-0.512443	1.258432	0.664884
H	-0.184516	2.138722	0.109041
H	-1.608291	1.146066	0.657448
H	-0.116669	1.312446	1.683016
C	-0.365799	-1.152635	0.855106
N	-0.505213	-2.081426	1.559774
C	-1.209664	0.939928	-2.082598
H	-1.411784	0.732197	-3.139353
H	-2.149211	0.983645	-1.523083
H	-0.666928	1.88895	-2.033856
C	-1.208813	-1.51784	-1.70193
H	-1.426923	-1.641078	-2.768768
H	-2.137794	-1.398886	-1.133451
H	-0.653749	-2.399394	-1.36793
F	-2.931329	0.0	0.0
