19

C	0.0	0.0	0.0
C	-0.415516	-0.151516	-1.502359
F	1.398532	0.0	0.0
H	0.553164	-0.210888	-2.015994
C	-0.518202	1.221252	0.722895
H	-0.131744	1.225439	1.74587
H	-1.613813	1.105328	0.700192
H	-0.187266	2.129346	0.214895
C	-0.365141	-1.195773	0.794349
N	-0.516888	-2.154025	1.455673
C	-1.206752	1.040742	-2.041931
H	-0.669747	1.989323	-1.943891
H	-1.401067	0.881867	-3.108275
H	-2.149654	1.052056	-1.485063
C	-1.210367	-1.429093	-1.77916
H	-2.142813	-1.330156	-1.211986
H	-1.422041	-1.502532	-2.852
H	-0.667039	-2.330324	-1.481075
F	-2.927829	0.0	0.0
