14

C	-0.577582	-0.009772	-1.388626
C	0.0	0.0	0.0
Br	0.113247	1.562343	-2.317976
H	1.089229	0.0	0.0
H	-0.297052	0.918161	0.510258
N	-0.118635	-1.215557	-2.228962
O	-0.866325	-1.534057	-3.147106
O	0.956131	-1.707761	-1.947412
C	-2.03527	0.046074	-1.444143
N	-3.204751	0.172972	-1.431579
N	-0.539797	-1.115049	0.779751
O	-1.024089	-2.075044	0.164775
O	-0.447223	-1.046092	2.002742
F	2.471911	0.0	0.0
