14

C	-0.514335	0.187138	-1.400426
C	0.0	0.0	0.0
Br	-2.46179	0.47726	-1.500398
H	1.101383	0.0	0.0
H	-0.368294	-0.944687	0.397551
N	0.200065	1.351313	-2.145006
O	-0.394265	2.397114	-2.328317
O	1.344944	1.073203	-2.472429
C	-0.239401	-1.021345	-2.169087
N	-0.084279	-2.013741	-2.778869
N	-0.461483	1.052761	0.899126
O	-0.334171	2.218569	0.518727
O	-0.897875	0.717469	2.002775
F	2.459277	0.0	0.0
