14

C	-0.484137	-0.060073	-1.408562
C	0.0	0.0	0.0
Br	-2.448678	-0.202254	-1.58997
H	1.106715	0.0	0.0
H	-0.277439	-0.915308	0.523842
N	-0.008476	1.146196	-2.270707
O	-0.567387	1.299701	-3.347693
O	0.937224	1.774561	-1.831788
C	0.073854	-1.239924	-2.062355
N	0.491307	-2.201733	-2.593081
N	-0.558343	1.114172	0.754596
O	-0.508584	1.027546	1.982362
O	-1.01229	2.085395	0.141664
F	2.44909	0.0	0.0
