17

C	-0.362984	0.136373	-1.476666
C	0.0	0.0	0.0
Cl	-0.376329	-1.541491	-2.33325
H	1.098625	0.0	0.0
H	-1.401375	0.447128	-1.624526
N	0.528131	1.042023	-2.089256
H	0.412597	1.085615	-3.092098
H	1.491524	0.814427	-1.849434
C	-0.547152	-1.237128	0.690828
H	-1.633323	-1.316994	0.563145
H	-0.08866	-2.146345	0.305414
H	-0.33194	-1.178272	1.761202
C	-0.466071	1.271488	0.711262
H	-0.095095	2.159657	0.199157
H	-1.561876	1.319121	0.756778
H	-0.081154	1.282555	1.734286
Cl	3.525908	0.0	0.0
