17

C	-0.477234	-0.036428	-1.442341
C	0.0	0.0	0.0
Cl	0.179201	1.424281	-2.365095
H	1.094969	0.0	0.0
H	-0.007925	-0.876207	-1.955749
N	-1.898011	-0.139192	-1.563748
H	-2.334314	0.680166	-1.159346
H	-2.16247	-0.178951	-2.540201
C	-0.429666	-1.296223	0.69031
H	-1.515911	-1.361982	0.794974
H	0.033023	-1.347143	1.679457
H	-0.085784	-2.167982	0.126098
C	-0.491311	1.216066	0.776951
H	-0.204398	2.147017	0.285358
H	-1.579707	1.205888	0.918811
H	-0.031269	1.213307	1.768044
Cl	3.576877	0.0	0.0
