15

C	-0.237346	0.278058	-1.453194
C	0.0	0.0	0.0
F	0.007983	-0.798471	-2.203044
H	1.101102	0.0	0.0
N	-1.662245	0.716209	-1.832157
O	-2.555698	0.441164	-1.04147
O	-1.784515	1.241404	-2.934415
N	0.645045	1.419214	-1.938697
O	1.420822	1.189365	-2.848299
O	0.446822	2.479859	-1.36073
C	-0.493352	-1.309952	0.371978
N	-0.849123	-2.38553	0.685624
C	-0.47034	1.031438	0.900551
N	-0.818983	1.830529	1.689119
F	2.398891	0.0	0.0
