15

C	-0.264681	-0.143843	-1.465647
C	0.0	0.0	0.0
F	0.08922	0.95187	-2.137334
H	1.106374	0.0	0.0
N	0.478932	-1.334295	-2.05224
O	0.140205	-2.415081	-1.584413
O	1.285928	-1.11718	-2.938268
N	-1.733442	-0.404225	-1.858203
O	-2.588735	-0.180008	-1.010358
O	-1.915841	-0.749518	-3.020993
C	-0.48742	-1.088196	0.819499
N	-0.845072	-1.94851	1.536127
C	-0.455645	1.288984	0.483423
N	-0.768702	2.340283	0.905561
F	2.399135	0.0	0.0
