15

C	-0.55794	0.068667	-1.387104
C	0.0	0.0	0.0
F	-1.904064	0.082669	-1.445875
H	1.107156	0.0	0.0
N	-0.058202	1.32063	-2.098714
O	1.064587	1.246928	-2.57617
O	-0.819998	2.278136	-2.102262
N	-0.109421	-1.086003	-2.272466
O	0.714978	-1.87023	-1.828172
O	-0.645326	-1.107726	-3.376235
C	-0.460577	-1.208149	0.663811
N	-0.813151	-2.184141	1.216504
C	-0.415104	1.176883	0.746921
N	-0.700683	2.134159	1.36723
F	2.392558	0.0	0.0
