15

C	-0.379831	0.202905	-1.43862
C	0.0	0.0	0.0
F	-1.621334	0.688927	-1.645583
H	1.103827	0.0	0.0
N	0.545195	1.203783	-2.126061
O	0.831134	0.980711	-3.297003
O	0.826348	2.192077	-1.467163
N	-0.250644	-1.10173	-2.207451
O	0.8502	-1.627766	-2.154874
O	-1.249294	-1.499815	-2.79209
C	-0.486686	-1.270864	0.501081
N	-0.84828	-2.310471	0.91558
C	-0.463808	1.090829	0.836824
N	-0.823907	1.948185	1.556171
F	2.394033	0.0	0.0
