15

C	-0.238428	-0.0104	-1.479654
C	0.0	0.0	0.0
F	0.029845	-1.206006	-2.008604
H	1.106587	0.0	0.0
N	-1.669031	0.32237	-1.936962
O	-1.800697	0.558046	-3.134365
O	-2.554978	0.260672	-1.094682
N	0.621939	1.033026	-2.178018
O	0.385662	2.183232	-1.830837
O	1.42093	0.646198	-3.011054
C	-0.496438	-1.211438	0.616698
N	-0.855368	-2.20456	1.133348
C	-0.461908	1.189084	0.683188
N	-0.795082	2.135616	1.295755
F	2.397975	0.0	0.0
