15

C	-0.455772	0.276177	-1.40093
C	0.0	0.0	0.0
F	-1.752832	0.633465	-1.520858
H	1.106713	0.0	0.0
N	0.318042	1.416087	-2.051198
O	0.427555	1.366822	-3.27188
O	0.665515	2.32313	-1.310292
N	-0.224719	-0.945973	-2.276226
O	0.939481	-1.302021	-2.369214
O	-1.213557	-1.454729	-2.786378
C	-0.446361	-1.31607	0.422226
N	-0.766634	-2.394519	0.765372
C	-0.468641	1.012977	0.928156
N	-0.833326	1.803495	1.718287
F	2.392234	0.0	0.0
