15

C	-0.411805	-0.008185	-1.442343
C	0.0	0.0	0.0
F	-1.695155	-0.356799	-1.673961
H	1.107687	0.0	0.0
N	-0.183349	1.365479	-2.0543
O	0.983086	1.7212	-2.111542
O	-1.179987	1.983334	-2.402467
N	0.408565	-0.985234	-2.27487
O	0.842733	-1.968761	-1.695575
O	0.467253	-0.738504	-3.475459
C	-0.47827	-1.179353	0.696684
N	-0.858948	-2.115444	1.297555
C	-0.464515	1.208014	0.656907
N	-0.799445	2.201003	1.191547
F	2.3933	0.0	0.0
