13
Coordinates from ORCA-job run
  C   -0.25891541158368     -0.33493214661894      0.06968020625971
  C   0.92284063205242      0.57517943700296      0.40656895615518
  F   0.30903449871250     -1.43476569499164     -0.64487861952021
  H   0.54733944733984      1.41858297551751      0.98743458988037
  H   1.63292254258216      0.01704463936825      1.02122760259265
  N   -0.85330900639645     -0.80182244814080      1.27526705240415
  H   -0.28809570047954     -1.54320225053571      1.66886058115119
  H   -1.78547149481223     -1.15775563843719      1.10727914094864
  N   -1.21263417389406      0.34129971479880     -0.72840540513296
  H   -1.93847449951727     -0.30058873755521     -1.02505626564237
  H   -0.77230657577447      0.71937933922045     -1.55828963386284
  C   1.59704669648959      1.05402985984084     -0.79711309098327
  N   2.10002304528120      1.44655095053067     -1.78157511425026
