13
Coordinates from ORCA-job run
  C   -0.10279354350906     -0.46183282316416     -0.05908591639582
  C   0.92278388526855      0.56875986241257      0.41290124675624
  F   0.57794703243639     -1.45848969031027     -0.73573597114715
  H   0.44310785570779      1.27692956277298      1.09539068423993
  H   1.67379523496579      0.02480677311293      0.98755692409428
  N   -0.65022731119637     -1.12653728078923      1.11128028230366
  H   -1.47165176445003     -0.63497723163877      1.43929307613569
  H   -0.91729405211123     -2.06935173757704      0.85419070995168
  N   -1.00716529611541      0.13189018930156     -0.99321725309381
  H   -1.78673643512097     -0.47914032291774     -1.19717409402498
  H   -1.33833626595894      1.03864840948315     -0.69628898422584
  C   1.56070002799176      1.29541639581258     -0.68183211635271
  N   2.09387063209173      1.89487789350143     -1.53727858824119
