13
Coordinates from ORCA-job run
  C   -0.14998712765922     -0.41311372958952     -0.18452028606582
  C   0.74162292517388      0.81596345357329     -0.36086251323058
  F   0.55996627221752     -1.51812697650250     -0.61982647394352
  H   1.05696303302431      0.82863664850644     -1.40514812517039
  H   0.15370356461543      1.72273806676527     -0.18911665088939
  N   -0.43654145726132     -0.62208793035752      1.20012422560281
  H   -0.69066479640285      0.22906722093528      1.68075976105593
  H   -1.14927769123056     -1.32749186580669      1.33090104281735
  N   -1.26064068326618     -0.30565274521045     -1.11519669267611
  H   -2.03719887721961      0.17346505468183     -0.67774381744794
  H   -1.55907327212840     -1.23854861447111     -1.37395825417272
  C   1.91096345241915      0.81444912446472      0.51438037993957
  N   2.86116465771786      0.84270229301095      1.20120740418081
