13
Coordinates from ORCA-job run
  C   -0.26343796170758     -0.33389549482456      0.07499604350611
  C   0.97711022057380      0.51376964090217      0.35897420938712
  F   0.20219278518381     -1.41495135499332     -0.73529050130177
  H   1.71558077533916     -0.10992544939173      0.86799463877275
  H   0.68992247941703      1.32644136021363      1.02734898748898
  N   -0.77799577348390     -0.84413695767952      1.30005674943515
  H   -0.25022008578873     -1.65932879303053      1.58354534370991
  H   -1.75408667339933     -1.09324001642662      1.21226988939476
  N   -1.25309930641931      0.41256527673498     -0.60905430561782
  H   -1.99035625761545     -0.20471226645895     -0.92912281253387
  H   -0.85492377788852      0.86800488700818     -1.42109014617514
  C   1.56360067935662      1.05005574541476     -0.86636240817081
  N   1.99771289643240      1.48835342253153     -1.86426568789536
