13
Coordinates from ORCA-job run
  C   -0.25535301224540     -0.33486206734842      0.08179896429857
  C   0.92440378840020      0.59224297809920      0.37632154557168
  F   0.30949863179531     -1.44751448809061     -0.61527086301786
  H   1.64860918254586      0.05461158961964      0.99273526847734
  H   0.55197286061958      1.44667047222322      0.94284577014573
  N   -0.82551898421205     -0.77633105284269      1.30842261932855
  H   -1.75688159316762     -1.14496351228109      1.16505314029125
  H   -0.24710208408765     -1.50240392006445      1.71127443422665
  N   -1.22797350698647      0.31379262473341     -0.71645075465166
  H   -0.80414945723246      0.67571641802848     -1.56181692241038
  H   -1.95208789095002     -0.34171367035989     -0.98595868536566
  C   1.57496301325363      1.04655541185011     -0.84961338057125
  N   2.05861905226709      1.41919921643308     -1.85134113632296
