13
Coordinates from ORCA-job run
  C   -0.21138749217816     -0.47716776430826     -0.16840571387528
  C   1.19126327714081      0.12500848232667     -0.25777236231899
  F   -0.10594910450321     -1.74911370729074     -0.75514351663474
  H   1.50174637590506      0.06857518290005     -1.30206677154335
  H   1.88938161157251     -0.46337238779175      0.34457947497810
  N   -0.62678178714123     -0.56652920498216      1.18848230502788
  H   0.01221335441195     -1.12791126126543      1.73835656850582
  H   -1.55574422686700     -0.96483640430627      1.25022241269827
  N   -1.12304730567328      0.25251886448405     -1.00262009159689
  H   -1.43900767189985      1.08392255915876     -0.51880120779796
  H   -1.92021941626989     -0.33182522872263     -1.22300243193136
  C   1.19740644918825      1.51485925947538      0.18458277032961
  N   1.19012593631403      2.63887161032234      0.51958856415890
