13
Coordinates from ORCA-job run
  C   -0.12891589676332     -0.54811190327259     -0.00335886063755
  C   0.88056801288060      0.54715321044753      0.39111075088849
  F   0.59794164726152     -1.48242759527435     -0.72160518566933
  H   1.68962799811763      0.08136037446259      0.95797045399327
  H   0.39749801803499      1.29366428094818      1.02907873973857
  N   -0.60742133290604     -1.17125346075775      1.18682464732029
  H   -1.40184144447857     -1.75584857842853      0.95702795413149
  H   -0.87363277373066     -0.49868550774377      1.89229429436505
  N   -1.19028866369954     -0.15356922766802     -0.89028850376988
  H   -1.76795183333209      0.56194051880933     -0.46888040953058
  H   -0.82387334399380      0.18500251189134     -1.77246015759621
  C   1.41575749105635      1.20951061932561     -0.79276119293838
  N   1.81153212155291      1.73126475726042     -1.76595253029521
