13
Coordinates from ORCA-job run
  C   -0.39646238188588     -0.04595370434108     -0.03248891090355
  C   1.02963244676533      0.30880893439591     -0.46199178058304
  F   -1.11388126126492      1.16180026496833     -0.01508664335387
  H   1.03453653205530      0.68439314666572     -1.48959408323519
  H   1.62625113395670     -0.60517406744110     -0.42721226587546
  N   -0.94655843300479     -0.97641773805400     -0.95690358771660
  H   -1.91260094455832     -1.16615174884989     -0.71699318358836
  H   -0.90924954536817     -0.62237835810418     -1.90491329829525
  N   -0.42395270370657     -0.54766682534251      1.31294114326616
  H   -0.55520090273727     -1.54956326396388      1.32079304222421
  H   -1.14550697136445     -0.08354304743887      1.84617841801914
  C   1.61604243950812      1.31045327177604      0.42119183770551
  N   2.09795059160493      2.13239313572953      1.10407931233632
