13
Coordinates from ORCA-job run
  C   -0.11585228800934     -0.58341876795714     -0.20031610608485
  C   1.20699954008000      0.17792412090450     -0.31595100278243
  F   0.07969403971782     -1.82537253980102     -0.76947388435420
  H   1.46435987610195      0.24887158168829     -1.37385337297177
  H   1.97316044455266     -0.39191449453736      0.21206203509812
  N   -0.39987050749018     -0.83994044967351      1.19067103919208
  H   -1.22435356551426     -1.42511719211856      1.26520403457271
  H   -0.57526664461108      0.02790379669474      1.68316454177519
  N   -1.11169431388180      0.06077720934452     -1.02230012340363
  H   -1.33870639355070      0.97628937150939     -0.65244582443764
  H   -1.95563322316150     -0.50089670963133     -1.03246899509212
  C   1.08246092366541      1.51057810902883      0.26335582207865
  N   0.91470211210101      2.56431596454864      0.75235183640988
