13
Coordinates from ORCA-job run
  C   -0.27666914850359     -0.41281691861179     -0.07564923859973
  C   1.11805029502534      0.15075287397599     -0.34113448876931
  F   -0.21475374538748     -1.72815744976469     -0.65320283848082
  H   1.85984320136920     -0.50916844734478      0.11668985853645
  H   1.30454874624825      0.13933006025408     -1.41836063260650
  N   -0.53257899298683     -0.49710923877653      1.31314463883306
  H   0.11090978795113     -1.14526813844363      1.74784248983271
  H   -1.47794261843172     -0.81005475260441      1.49576653210761
  N   -1.26694026641693      0.36240551356838     -0.72381624401712
  H   -1.14603010790060      0.31458392351235     -1.72693336835676
  H   -2.19829581081322      0.03800370944732     -0.49521170930615
  C   1.27431290876902      1.50592686646155      0.17618903642481
  N   1.44554575107744      2.59157199832613      0.58467596440177
