13
Coordinates from ORCA-job run
  C   -0.16994084596193     -0.41251442507354     -0.16708103935691
  C   0.79354911573930      0.75302285566302     -0.38802398889294
  F   0.47835239336460     -1.57742844989635     -0.53407197964244
  H   0.25959296401061      1.70035544203922     -0.26511887683141
  H   1.12123864193124      0.69918786973124     -1.42716919763565
  N   -0.48480173172365     -0.53744376496872      1.22293981110005
  H   -1.22282595601511     -1.21261116952109      1.37420405533973
  H   -0.72952573223283      0.34702282160494      1.64563943769894
  N   -1.25885208084031     -0.28776364057408     -1.12067031280318
  H   -1.63019980770267     -1.21092751808935     -1.31189201049861
  H   -1.99840559897023      0.28373166031337     -0.73239305798681
  C   1.95098310034684      0.72371596139831      0.50266552476087
  N   2.89383553805414      0.73265235737300      1.19997163474833
