13
Coordinates from ORCA-job run
  C   -0.44903454104180      0.09999616870466     -0.11799805032047
  C   1.03108698036275      0.31079567227358     -0.43503368486823
  F   -1.09850244349083      1.30959207302992     -0.26962826123211
  H   1.54332311676825     -0.65598705971801     -0.46618319634012
  H   1.08275981079446      0.73741751588588     -1.43781632816282
  N   -1.01619888469465     -0.74875991919378     -1.15063948879763
  H   -0.85979987725189     -1.72321060856882     -0.92533110059135
  H   -2.01549465541404     -0.58505492932005     -1.19364069901219
  N   -0.61110574419575     -0.27637927440844      1.25485148887908
  H   -0.01206050183614     -1.04916631091599      1.51125411646242
  H   -1.57569962257351     -0.50704458400307      1.45650288171956
  C   1.70352493789168      1.19113953584137      0.51664483189185
  N   2.27620142468146      1.89666172039273      1.25801749037198
