13
Coordinates from ORCA-job run
  C   -0.17539650721519     -0.42007183439194     -0.15074564000817
  C   0.83442486067709      0.70132783391865     -0.39407550247743
  F   0.45728317475742     -1.62307759332172     -0.41318018218701
  H   1.22004519398442      0.56394963715279     -1.40528035293423
  H   0.32124630161411      1.66748788598683     -0.37183356596362
  N   -0.56799273772437     -0.44409304112946      1.22252865653747
  H   -1.36571702053439     -1.04617468953659      1.37495869843931
  H   -0.74009014085918      0.47604385325016      1.60099105726268
  N   -1.21092311546233     -0.32719023901670     -1.16584635620305
  H   -1.57159035023461     -1.25623763307737     -1.34763140804401
  H   -1.96910855253401      0.25712799286607     -0.83784888623090
  C   1.93662942167349      0.70789940587788      0.56471165728787
  N   2.83118947185753      0.74400842142141      1.32225182452109
