13
Coordinates from ORCA-job run
  C   -0.50649167896376     -0.04173900049446      0.01417812602226
  C   0.85230398500280      0.48857757535161     -0.47774583732770
  F   -1.19317370863649      1.10007104213442      0.46332329431276
  H   1.40239957435335     -0.32914285037262     -0.94850009938849
  H   0.66987247213545      1.26506610289071     -1.22453357004274
  N   -1.34008317812580     -0.61000131550197     -1.00092034264312
  H   -1.52543738272416      0.05708564014543     -1.73776826004778
  H   -0.91729843049277     -1.44581093235985     -1.38044357347822
  N   -0.32568235038318     -1.01231702343071      1.02325089954587
  H   -1.23185052336638     -1.33916186288262      1.33407515896094
  H   0.19553749176453     -0.64354612467928      1.80841569641084
  C   1.65012600344468      1.04612900215430      0.61120720820969
  N   2.26977772599171      1.46478974704505      1.51546129946569
