13
Coordinates from ORCA-job run
  C   -0.34712285030425     -0.23854915603136      0.28717920607516
  C   1.07966714903401      0.18079052355175     -0.11426951053090
  F   -0.55621530132501      0.35739465542873      1.54105332523557
  H   1.33448299049728     -0.30020430480315     -1.06113631133801
  H   1.79186743332554     -0.15579255509422      0.64482672056143
  N   -1.41058080582654      0.23377134590907     -0.54159434378310
  H   -1.32351065297252     -0.13928628029313     -1.47699890888246
  H   -1.42694260170155      1.24513765790990     -0.56831164110347
  N   -0.42034366882392     -1.65182959948280      0.32984407086225
  H   0.24376885229211     -2.03511583394758      0.98982316371212
  H   -1.35927655829647     -1.92118401406794      0.59701042552941
  C   1.17619265134198      1.62983215908037     -0.25381507365342
  N   1.21701336275933      2.79603540184038     -0.37361112268458
