13
Coordinates from ORCA-job run
  C   -0.29120754222524     -0.51959616181695     -0.12626801105174
  C   1.07791199777697      0.14044109837122     -0.37200368380628
  F   -0.12256720794905     -1.81765202108300     -0.64802070868215
  H   1.85173167723236     -0.51044323449043      0.04248088629122
  H   1.26558816629717      0.22482085967260     -1.44656209970619
  N   -0.67680969230842     -0.69902762300014      1.23771659018367
  H   -0.80444436619029      0.19713958032977      1.68903558229524
  H   0.00835551117387     -1.24719896573441      1.74015188989241
  N   -1.31115391075061      0.20882732500419     -0.77291261812480
  H   -2.20379156392901     -0.23861297293354     -0.60848694222731
  H   -1.14184201117056      0.30057253059321     -1.76518705030378
  C   1.15179286624644      1.45551480453576      0.25423150384904
  N   1.19743607579640      2.50521478055172      0.77582466139066
