13
Coordinates from ORCA-job run
  C   -0.18630469452696     -0.50487160815939     -0.10145766626743
  C   1.13839339738764      0.19208907034673     -0.41394399872443
  F   -0.06579417278130     -1.79156146197502     -0.65260849707057
  H   1.93775829356378     -0.45096876608036     -0.04293026103250
  H   1.25599037865795      0.30399533743830     -1.49559220409174
  N   -0.32386174427376     -0.70767974603907      1.31247497861037
  H   -0.66213450575163      0.14067546730074      1.74937858946557
  H   -0.97994081811288     -1.45983907394602      1.48327010551341
  N   -1.27057713943911      0.20737024219615     -0.68320186872381
  H   -1.16889170944730      0.28701882671313     -1.68776252062115
  H   -2.14927622384175     -0.25022014768535     -0.47369260206052
  C   1.21208421779794      1.49641993126860      0.23469047895979
  N   1.26355472076738      2.53857192862157      0.77037546604299
