13
Coordinates from ORCA-job run
  C   -0.28454491026089     -0.28815256788428     -0.15973671866140
  C   0.91012889053688      0.63053812490966     -0.42712679513380
  F   0.20149978619660     -1.60286664491493     -0.30347961024056
  H   0.55068087898645      1.66039660812665     -0.46930062096574
  H   1.31094247195111      0.36770033595916     -1.40712380903914
  N   -0.82225865091181     -0.05971368393569      1.13165986921252
  H   -0.11231165035967     -0.12736391766993      1.85118712429439
  H   -1.55452971323786     -0.73205526651312      1.32570901192083
  N   -1.26995868298327     -0.11086160312451     -1.19466468890330
  H   -1.54946231541445     -1.01201216641189     -1.55610441153778
  H   -2.07182253485524      0.38471953614125     -0.83094410026638
  C   1.94684369538642      0.50390254309491      0.59430360068630
  N   2.74679273496573      0.38576870222270      1.44462114863408
