13
Coordinates from ORCA-job run
  C   -0.28254889615376     -0.42267614102997     -0.01526694756347
  C   0.97709122716148      0.42419371666850      0.24169501944201
  F   0.12023777076041     -1.38290517539517     -0.95994722351153
  H   1.78555793815080     -0.24383402405374      0.54826368248506
  H   0.77343667381645      1.12493097716176      1.05433473903317
  N   -0.75033163235833     -1.17222964717205      1.11061649896577
  H   -1.06353137336792     -0.55200935755756      1.84450261993657
  H   -0.03404371082569     -1.79571354329089      1.45775980036289
  N   -1.34398138645569      0.39003928658201     -0.46902701865660
  H   -1.09746930834970      0.89091361655934     -1.31312774369072
  H   -2.15614421235279     -0.19019776722549     -0.63731285941581
  C   1.39041377297960      1.16643923434154     -0.94647177020664
  N   1.68031313699515      1.76204882441174     -1.91501879718069
