13
Coordinates from ORCA-job run
  C   -0.33875164367427     -0.36065062319202     -0.12379189571969
  C   0.80261737957753      0.63445803691285     -0.40705995840022
  F   0.22923037254242     -1.62667482804008     -0.33832157053104
  H   0.41368328714537      1.65130802801625     -0.31997068232532
  H   1.17036850114510      0.49322422002764     -1.42759870769524
  N   -0.84563216159519     -0.39191685009570      1.21163845501714
  H   -1.25585737709511      0.49914462298380      1.45586435694439
  H   -0.11506662560259     -0.63157303688590      1.86953614301937
  N   -1.41980956928856     -0.08664312307358     -0.99585772903034
  H   -1.13946186336385     -0.16155595012084     -1.96504323963567
  H   -2.16588412888057     -0.74444867915540     -0.80562113271602
  C   1.90348586340419      0.44437754100594      0.53136029643211
  N   2.76107796568551      0.28095064161704      1.31486566464054
