13
Coordinates from ORCA-job run
  C   -0.49079163555986     -0.06188907442871     -0.12397722550716
  C   0.98416012008773      0.28197997630847     -0.40551597147538
  F   -1.18375783847247      1.14237093450347     -0.32663152320822
  H   1.58010063126698     -0.62986952191706     -0.32664956202970
  H   1.08457741897754      0.67142444462051     -1.42282800388334
  N   -0.90350447855112     -1.09015535020449     -1.00522011825266
  H   -1.87358454935710     -1.31078038745238     -0.81605527005108
  H   -0.80084275355371     -0.81014126933317     -1.97195702573186
  N   -0.81187879624714     -0.46657322536266      1.20807444695853
  H   -0.57749242756736      0.25974488989236      1.87252614548825
  H   -0.33016183046008     -1.32342973854820      1.44396892998898
  C   1.47618415095877      1.27706042666788      0.54130401690948
  N   1.84699198847781      2.06025789525396      1.33196116079414
