13
Coordinates from ORCA-job run
  C   -0.29795346991239     -0.51155769505867     -0.14246245912258
  C   1.08163535855500      0.13578726575922     -0.36236199806325
  F   -0.14408927708420     -1.79773644444096     -0.69678386472815
  H   1.27680083593442      0.24766077174079     -1.43306918658824
  H   1.84430111372598     -0.53653653055795      0.03833119502553
  N   -0.69485439245601     -0.72114905221455      1.21405285693355
  H   -0.02245157100526     -1.29531417174224      1.70456686974042
  H   -0.80863647479191      0.16440759365096      1.68941996189496
  N   -1.30336100316731      0.24793134338744     -0.77609770047312
  H   -2.20337106659303     -0.19014457946651     -0.62727828868489
  H   -1.12723649088839      0.36114324657890     -1.76498622081840
  C   1.16987347371435      1.43186630031840      0.30086259133737
  N   1.23034296396873      2.46364195204517      0.85580624354681
