13
Coordinates from ORCA-job run
  C   -0.10430589134042     -0.58949653717992     -0.18972221232312
  C   1.19516233273573      0.20489681578828     -0.34289558011609
  F   0.11094619714652     -1.83163885549926     -0.75149254733332
  H   1.42778982222794      0.26881471077962     -1.40692599067201
  H   1.98777597605712     -0.33736192196527      0.17509069897082
  N   -0.35077428363471     -0.83774204438155      1.20943144111712
  H   -0.52138153154110      0.03212265730108      1.70001457276444
  H   -1.16729337685643     -1.43004751372225      1.31026409421628
  N   -1.13482285479391      0.01943049888309     -0.99634251480374
  H   -1.95947977852532     -0.57028452000092     -0.99057578177749
  H   -1.38588671836322      0.92759711856453     -0.62389586337838
  C   1.04651231182304      1.54190767337584      0.22062368354014
  N   0.85575779506475      2.60180191805674      0.68742599979534
