14

C	0.0	0.0	0.0
C	-0.260792	-0.046813	-1.591884
Cl	1.77186	0.0	0.0
H	0.584261	-0.610408	-1.989964
H	-0.110724	1.003966	-1.873218
C	-0.508431	1.183035	0.672657
N	-0.627526	2.243463	1.168744
N	-0.430332	-1.258104	0.706279
O	-0.620728	-1.197815	1.911712
O	-0.4421	-2.276986	0.024602
N	-1.456511	-0.558331	-2.191296
H	-2.199851	-0.248629	-1.540958
H	-1.422952	-1.564424	-2.085211
F	-2.413635	0.0	0.0
