14

C	0.0	0.0	0.0
C	-0.440977	-0.472754	-1.435691
Cl	1.774959	0.0	0.0
H	-1.07117	-1.339663	-1.27298
H	0.463098	-0.770444	-1.974468
C	-0.466831	1.340598	0.329953
N	-0.585344	2.497318	0.506078
N	-0.408654	-0.966887	1.096546
O	-0.576414	-0.500706	2.213587
O	-0.416509	-2.154313	0.802023
N	-1.187197	0.48605	-2.212529
H	-1.99692	0.649666	-1.60433
H	-0.659662	1.346443	-2.306072
F	-2.398774	0.0	0.0
