14

C	0.0	0.0	0.0
C	-0.409347	-0.041522	-1.491911
Cl	1.779397	0.0	0.0
H	-0.108516	0.934934	-1.885102
H	-1.49862	-0.112117	-1.438996
C	-0.495857	1.20115	0.66168
N	-0.623256	2.261624	1.154519
N	-0.463723	-1.219548	0.767953
O	-0.534191	-1.108393	1.982904
O	-0.621224	-2.25346	0.13191
N	0.29079	-1.077343	-2.254448
H	-0.209614	-1.945409	-2.120412
H	0.227595	-0.830467	-3.233846
F	-2.457108	0.0	0.0
