14

C	0.0	0.0	0.0
C	-0.433642	-0.397555	-1.462413
Cl	1.785199	0.0	0.0
H	-1.045617	-1.286081	-1.347831
H	0.474829	-0.649769	-2.015527
C	-0.460313	1.324006	0.394088
N	-0.58205	2.469608	0.631183
N	-0.401113	-1.02385	1.042558
O	-0.560429	-0.622807	2.185887
O	-0.40728	-2.192094	0.68061
N	-1.203635	0.580725	-2.191195
H	-2.01707	0.694786	-1.574684
H	-0.702373	1.461226	-2.240645
F	-2.391468	0.0	0.0
