14

C	0.0	0.0	0.0
C	-0.395937	-0.021176	-1.552647
Cl	1.788512	0.0	0.0
H	-0.793069	0.978448	-1.728653
H	0.543943	-0.126439	-2.098519
C	-0.467604	1.189511	0.695311
N	-0.59589	2.239476	1.209722
N	-0.382449	-1.237549	0.778487
O	-0.663909	-1.105317	1.959258
O	-0.264581	-2.305079	0.185305
N	-1.34358	-0.97121	-2.060593
H	-2.14622	-0.821214	-1.434519
H	-0.987586	-1.903807	-1.899772
F	-2.389708	0.0	0.0
