14

C	0.0	0.0	0.0
C	-0.422588	0.125955	-1.48444
Cl	1.761872	0.0	0.0
H	-1.509652	0.021713	-1.429783
H	-0.155102	1.151694	-1.758228
C	-0.503569	1.111636	0.799673
N	-0.637679	2.1018	1.420185
N	-0.463185	-1.30474	0.619196
O	-0.526495	-1.341365	1.839467
O	-0.618267	-2.255516	-0.135598
N	0.298277	-0.790619	-2.369146
H	0.223336	-0.429849	-3.311844
H	-0.17938	-1.681568	-2.33946
F	-2.469033	0.0	0.0
