16

C	-0.268724	0.096535	-1.495923
C	0.0	0.0	0.0
F	-0.213041	-1.189806	-2.059653
H	1.097235	0.0	0.0
H	-1.272054	0.487121	-1.723685
N	0.734038	0.90871	-2.142031
H	1.613912	0.678721	-1.655227
H	0.517416	1.862717	-1.868141
C	-0.605036	-1.201149	0.694867
H	-1.705112	-1.191146	0.646306
H	-0.253607	-2.127344	0.238485
H	-0.31067	-1.207701	1.749793
N	-0.41033	1.295032	0.577765
H	0.31512	1.576933	1.225594
H	-1.270787	1.186931	1.105178
F	2.73607	0.0	0.0
