13

C	0.0	0.0	0.0
C	-0.474131	0.386509	-1.383716
Cl	1.831575	0.0	0.0
H	-0.138609	-0.326125	-2.135396
H	-0.317947	0.74029	0.72792
H	-1.572842	0.43519	-1.332605
N	-0.510465	-1.276244	0.305905
H	-0.629868	-1.44377	1.290624
H	-0.011083	-2.023224	-0.150725
N	0.039206	1.711277	-1.813051
O	0.081779	2.605907	-0.971206
O	0.355228	1.842675	-2.99586
Cl	-3.641645	0.0	0.0
