13

C	0.0	0.0	0.0
C	-0.512946	0.32365	-1.384125
Cl	1.831344	0.0	0.0
H	-1.608059	0.388142	-1.281571
H	-0.302368	0.783977	0.689617
H	-0.224655	-0.4267	-2.11761
N	-0.518612	-1.247754	0.391234
H	-0.021569	-2.038563	0.014927
H	-0.714183	-1.336331	1.372573
N	-0.007758	1.626027	-1.88362
O	0.338114	1.692412	-3.063735
O	0.003959	2.568032	-1.09392
Cl	-3.712207	0.0	0.0
