13

C	0.0	0.0	0.0
C	-0.472026	-0.217352	-1.428778
Cl	1.791242	0.0	0.0
H	-0.121237	-1.168348	-1.827087
H	-0.314742	0.987034	0.330862
H	-1.567061	-0.156101	-1.414658
N	-0.496585	-0.98246	0.920328
H	-0.312393	-1.911147	0.557643
H	-1.510196	-0.849276	0.947824
N	0.024437	0.832179	-2.356663
O	-0.056097	2.000418	-1.982052
O	0.465246	0.471987	-3.450264
Cl	-3.548618	0.0	0.0
