13

C	0.0	0.0	0.0
C	-0.542396	-0.062586	-1.409404
Cl	1.845563	0.0	0.0
H	-1.638363	-0.146349	-1.303089
H	-0.256568	0.985171	0.388078
H	-0.262555	0.814174	-1.98762
N	-0.522305	-0.985207	0.836826
H	-0.39644	-1.922827	0.494265
H	-0.284626	-0.875137	1.808176
N	-0.047449	-1.22922	-2.184796
O	0.28846	-1.032767	-3.351478
O	-0.027966	-2.329142	-1.631353
Cl	-3.767287	0.0	0.0
