13

C	0.0	0.0	0.0
C	-0.161069	-0.462923	-1.476547
Cl	1.840842	0.0	0.0
H	0.526852	0.101547	-2.103707
H	-0.317601	1.033919	0.115393
H	0.076947	-1.524989	-1.535589
N	-0.558995	-0.805497	1.012765
H	-1.564137	-0.586635	1.027941
H	-0.464495	-1.78498	0.77185
N	-1.462672	-0.286533	-2.186861
O	-2.04141	-1.304615	-2.55572
O	-1.774379	0.86697	-2.458633
Cl	-3.577404	0.0	0.0
