18

C	0.0	0.0	0.0
C	-0.38781	-0.091049	-1.531038
F	1.340386	0.0	0.0
H	0.124877	-0.984657	-1.875805
N	-0.134494	1.353976	0.74341
O	-0.871836	2.281577	0.387779
O	0.589461	1.310377	1.754671
N	-0.27869	-1.217198	0.837828
O	-0.450282	-1.089918	2.089291
O	-0.014227	-2.261656	0.238889
C	0.131819	1.163106	-2.234395
H	1.193149	1.308618	-2.031933
H	-0.444643	2.02385	-1.890514
H	-0.016696	1.079309	-3.314599
N	-1.805732	-0.315237	-2.195908
O	-2.266593	-1.421202	-2.262252
O	-2.321533	0.681594	-2.70053
F	-2.028949	0.0	0.0
