18

C	0.0	0.0	0.0
C	-0.301036	-0.088429	-1.54197
F	1.337098	0.0	0.0
H	-0.208716	0.951154	-1.85236
N	-0.373732	1.339034	0.605292
O	-0.703671	2.247091	-0.143658
O	-0.141807	1.45308	1.80403
N	-0.40789	-1.19904	0.831977
O	-0.816367	-1.088609	1.971646
O	-0.144698	-2.253425	0.255742
C	-1.516594	-0.705662	-2.201668
H	-1.326632	-0.723594	-3.282921
H	-2.375479	-0.096071	-1.955919
H	-1.692642	-1.716649	-1.846616
N	0.90841	-0.733076	-2.222089
O	1.787138	0.022875	-2.641601
O	0.913996	-1.951221	-2.37423
F	-2.227508	0.0	0.0
