18

C	0.0	0.0	0.0
C	-0.437164	-0.025417	-1.540215
F	1.33725	0.0	0.0
H	-0.030743	0.914819	-1.927712
N	-0.363766	1.252446	0.732151
O	-0.645071	2.260899	0.076023
O	-0.131295	1.230395	1.939206
N	-0.247836	-1.323535	1.008075
O	-1.269491	-1.566885	1.622377
O	0.797945	-1.963706	1.143287
C	-1.86481	-0.227342	-2.173067
H	-1.787049	-0.252108	-3.285182
H	-2.513695	0.579061	-1.841217
H	-2.29586	-1.140023	-1.777155
N	0.353758	-1.108045	-2.220401
O	0.957464	-0.830449	-3.252091
O	0.22983	-2.239477	-1.759137
F	-2.136913	0.0	0.0
