18

C	0.0	0.0	0.0
C	-0.5633	0.119729	-1.416001
F	1.354196	0.0	0.0
H	-1.599408	0.455199	-1.233296
N	-0.346857	1.223229	0.830117
O	-0.070878	1.16699	2.02246
O	-0.699194	2.219571	0.214406
N	-0.379508	-1.283591	0.739165
O	-1.05763	-1.255894	1.746003
O	0.149836	-2.277571	0.24205
C	-0.559764	-1.16296	-2.224663
H	-1.294139	-1.833615	-1.784902
H	0.418614	-1.642719	-2.255037
H	-0.880651	-0.918753	-3.240696
N	0.170158	1.1513	-2.231952
O	-0.550022	1.89221	-2.901491
O	1.400585	1.15812	-2.278688
F	-2.541776	0.0	0.0
