16

C	0.0	0.0	0.0
C	-0.458495	0.019782	-1.471893
Cl	1.80598	0.0	0.0
H	-1.556669	0.018126	-1.334973
N	-0.465478	1.157179	0.714494
H	-0.247299	1.972366	0.147528
H	-1.490005	1.01161	0.660101
N	-0.489612	-1.220732	0.568934
H	-1.515663	-1.080444	0.485772
H	-0.26226	-1.18538	1.558889
C	-0.043834	-1.184161	-2.205522
N	0.270484	-2.077611	-2.902106
N	-0.040578	1.251787	-2.13756
H	-0.602892	1.383525	-2.969072
H	0.928192	1.168843	-2.424855
F	-2.831992	0.0	0.0
