16

C	0.0	0.0	0.0
C	-0.359548	0.250326	-1.50729
Cl	1.781859	0.0	0.0
H	0.461926	0.861331	-1.891673
N	-0.442485	1.171072	0.726592
H	-0.142273	1.073078	1.692677
H	-1.470616	1.042709	0.686943
N	-0.50606	-1.276001	0.431795
H	-0.193991	-1.436444	1.383956
H	-1.532277	-1.066891	0.431559
C	-1.543941	1.095087	-1.782279
N	-2.258753	1.873229	-2.299481
N	-0.363942	-1.013046	-2.239939
H	-0.837967	-1.691736	-1.654543
H	-0.899461	-0.894211	-3.091591
F	-2.728251	0.0	0.0
