16

C	0.0	0.0	0.0
C	-0.222903	-0.022797	-1.574409
Cl	1.835293	0.0	0.0
H	0.55614	-0.666762	-2.000277
N	-0.481595	1.222294	0.544549
H	-0.879833	1.067236	1.459237
H	0.21832	1.94749	0.553711
N	-0.62553	-1.078109	0.671957
H	-1.645231	-0.818424	0.5859
H	-0.505111	-1.919624	0.118728
C	0.058941	1.332613	-2.0971
N	0.265529	2.385373	-2.579351
N	-1.516491	-0.553515	-1.942091
H	-2.252464	-0.229116	-1.253493
H	-1.748546	-0.242347	-2.877762
F	-3.053718	0.0	0.0
