16

C	0.0	0.0	0.0
C	-0.472098	-0.1969	-1.463482
Cl	1.783038	0.0	0.0
H	-1.566698	-0.238827	-1.315019
N	-0.508329	1.288642	0.398274
H	-1.534441	1.117683	0.348544
H	-0.263467	1.399079	1.37758
N	-0.477721	-1.03587	0.879769
H	-0.188108	-1.945082	0.532766
H	-1.502924	-0.937715	0.775541
C	-0.011635	-1.486198	-1.987382
N	0.316525	-2.535987	-2.401503
N	-0.02813	0.896757	-2.338073
H	0.028257	1.705047	-1.723231
H	-0.777932	1.084131	-2.995096
F	-2.842636	0.0	0.0
