16

C	0.0	0.0	0.0
C	-0.51148	0.029558	-1.441524
Cl	1.861569	0.0	0.0
H	-1.616397	0.066581	-1.195244
N	-0.401622	1.209013	0.609372
H	-0.138919	2.001152	0.041824
H	-0.038931	1.262247	1.549382
N	-0.519365	-1.075246	0.771106
H	-0.295676	-1.957271	0.320482
H	-1.552029	-0.864201	0.671153
C	-0.175124	-1.217746	-2.136968
N	0.082167	-2.188802	-2.749475
N	-0.070013	1.224289	-2.15401
H	0.886973	1.101103	-2.468495
H	-0.658988	1.368487	-2.965077
F	-2.842846	0.0	0.0
