16

C	0.0	0.0	0.0
C	-0.252665	0.347146	-1.539319
Cl	1.827389	0.0	0.0
H	0.536762	-0.170588	-2.089449
N	-0.501071	0.924752	0.967286
H	-1.524741	0.824427	0.857849
H	-0.227332	1.872562	0.729721
N	-0.513835	-1.321318	0.209814
H	-0.303106	-1.557568	1.175736
H	-1.536334	-1.155844	0.164183
C	-0.004177	1.789693	-1.726507
N	0.197267	2.933384	-1.901156
N	-1.516827	-0.008309	-2.148411
H	-1.478198	-1.009548	-2.301583
H	-2.259951	0.130763	-1.434815
F	-2.939497	0.0	0.0
