16

C	0.0	0.0	0.0
C	-0.258482	0.031379	-1.544315
Cl	1.767181	0.0	0.0
H	0.435367	-0.72673	-1.931928
H	-0.304205	0.895743	0.524092
N	-0.630418	-1.143517	0.657412
O	-0.640621	-1.12736	1.914528
O	-0.615062	-2.219135	-0.008619
N	0.091915	1.385426	-2.015662
H	-0.156172	1.438947	-2.999311
H	1.097574	1.506113	-1.958031
C	-1.609736	-0.326794	-2.14641
H	-1.994144	-1.242565	-1.704006
H	-1.441007	-0.497675	-3.225247
H	-2.330933	0.478009	-2.023018
H	-2.044643	0.0	0.0
