16

C	0.0	0.0	0.0
C	-0.489696	-0.086142	-1.45793
Cl	1.757412	0.0	0.0
H	-1.570631	-0.241802	-1.316667
H	-0.387131	0.87443	0.513139
N	-0.418809	-1.16743	0.860018
O	-0.541973	-2.268008	0.327871
O	-0.476467	-0.955313	2.066568
N	0.081018	-1.138569	-2.284958
H	-0.146919	-2.028066	-1.859525
H	1.092987	-1.060467	-2.295159
C	-0.266322	1.261443	-2.12411
H	-0.784857	2.051977	-1.575609
H	-0.667249	1.214369	-3.138092
H	0.798872	1.512505	-2.192259
H	-2.876306	0.0	0.0
