16

C	0.0	0.0	0.0
C	-0.236153	0.052951	-1.595555
Cl	1.758312	0.0	0.0
H	0.519987	0.733507	-2.008939
H	-0.155284	0.921867	0.547575
N	-0.260084	-1.403052	0.896081
O	-1.261637	-1.473782	1.6066
O	0.537228	-2.338767	0.743046
N	-1.534487	0.551004	-2.098441
H	-1.772219	1.380428	-1.556074
H	-2.192863	-0.138927	-1.720526
C	-0.079665	-1.359698	-2.146309
H	-0.284159	-1.342384	-3.224125
H	-0.800403	-2.041086	-1.666024
H	0.91398	-1.769427	-1.955132
H	-1.670396	0.0	0.0
