14

C	-0.507729	0.004446	-1.415206
C	0.0	0.0	0.0
F	-0.210003	1.168375	-2.067347
H	1.092768	0.0	0.0
H	-0.345561	0.922146	0.472508
C	-0.05087	-1.143435	-2.204917
N	0.332258	-2.051149	-2.842915
N	-2.051501	-0.0334	-1.406401
O	-2.613774	-0.593236	-2.341873
O	-2.603654	0.57829	-0.498552
N	-0.513069	-1.215766	0.624792
H	0.258075	-1.721045	1.039952
H	-1.186546	-0.997451	1.344833
Br	3.523703	0.0	0.0
