14

C	-0.499537	0.149641	-1.420669
C	0.0	0.0	0.0
F	-0.047927	-0.856337	-2.206065
H	1.094264	0.0	0.0
H	-0.359955	0.856164	0.572208
C	-1.96949	0.198217	-1.504576
N	-3.138926	0.269859	-1.581838
N	0.004066	1.470164	-2.014072
O	-0.361294	2.469993	-1.406047
O	0.694284	1.42064	-3.017547
N	-0.556269	-1.252558	0.516007
H	-0.729393	-1.154705	1.50718
H	0.15141	-1.970044	0.411096
Br	3.538782	0.0	0.0
