14

C	-0.472663	0.007905	-1.434844
C	0.0	0.0	0.0
F	-0.032846	1.109825	-2.086933
H	1.098588	0.0	0.0
H	-0.364004	-0.917105	0.46483
C	-0.113927	-1.198195	-2.194978
N	0.150246	-2.159263	-2.816977
N	-2.009876	0.078284	-1.430106
O	-2.541191	1.058843	-1.922817
O	-2.565484	-0.875895	-0.899591
N	-0.576841	1.173079	0.658587
H	-0.634702	0.983107	1.650481
H	0.080395	1.937213	0.551754
Br	3.520219	0.0	0.0
