14

C	-0.546661	0.013872	-1.409314
C	0.0	0.0	0.0
F	-1.914286	-0.132516	-1.383133
H	1.090998	0.0	0.0
H	-0.343826	-0.940655	0.443657
C	-0.238309	1.230911	-2.165133
N	-0.061245	2.219488	-2.772907
N	-0.020474	-1.19896	-2.172656
O	0.80024	-1.012749	-3.060676
O	-0.470696	-2.275218	-1.796226
N	-0.491868	1.190042	0.681723
H	-1.198731	0.961484	1.364731
H	0.284418	1.638934	1.147646
Br	3.506357	0.0	0.0
