14

C	-0.508428	0.052077	-1.413839
C	0.0	0.0	0.0
F	-0.212653	1.239041	-2.025004
H	1.092697	0.0	0.0
H	-0.346622	0.905064	0.503418
C	-0.04835	-1.065654	-2.243808
N	0.33809	-1.940914	-2.923562
N	-2.051714	0.010529	-1.403563
O	-2.615977	-0.547141	-2.338753
O	-2.601224	0.616923	-0.490754
N	-0.514007	-1.235987	0.583739
H	-1.172827	-1.040784	1.323222
H	0.258939	-1.762424	0.967691
Br	3.523961	0.0	0.0
