14

C	-0.501574	0.048659	-1.427443
C	0.0	0.0	0.0
F	-0.066903	-1.01997	-2.135561
H	1.094396	0.0	0.0
H	-0.356328	0.897046	0.508401
C	-1.971091	0.111639	-1.511084
N	-3.141683	0.170795	-1.574382
N	0.021089	1.312534	-2.11745
O	-0.332269	2.361777	-1.588919
O	0.717953	1.175806	-3.10819
N	-0.555926	-1.210387	0.607313
H	0.155658	-1.930196	0.567328
H	-0.741598	-1.035671	1.584908
Br	3.537562	0.0	0.0
