14

C	-0.477698	-0.006003	-1.433022
C	0.0	0.0	0.0
F	-0.038178	1.087838	-2.100396
H	1.098715	0.0	0.0
H	-0.361291	-0.913219	0.475118
C	-0.128706	-1.220896	-2.181507
N	0.125351	-2.187336	-2.798473
N	-2.014132	0.063784	-1.428352
O	-2.545809	1.035143	-1.937623
O	-2.568429	-0.884845	-0.887105
N	-0.579224	1.177835	0.648773
H	-0.639758	0.998403	1.642266
H	0.073943	1.945083	0.534658
Br	3.547551	0.0	0.0
