14

C	-0.470983	-0.031512	-1.435579
C	0.0	0.0	0.0
F	-0.026544	1.051458	-2.118652
H	1.098782	0.0	0.0
H	-0.363407	-0.905463	0.48895
C	-0.111118	-1.25889	-2.159025
N	0.14925	-2.234968	-2.755838
N	-2.007932	0.041779	-1.444616
O	-2.532579	1.004551	-1.978754
O	-2.570104	-0.896154	-0.890535
N	-0.582054	1.189253	0.624695
H	-0.633764	1.032013	1.622309
H	0.066527	1.956138	0.487015
Br	3.545546	0.0	0.0
