14

C	-0.54585	0.065633	-1.408048
C	0.0	0.0	0.0
F	-1.913583	-0.079306	-1.387566
H	1.093564	0.0	0.0
H	-0.343409	-0.956711	0.408531
C	-0.235705	1.308292	-2.119642
N	-0.06209	2.321442	-2.685853
N	-0.022196	-1.119853	-2.214077
O	0.796391	-0.903303	-3.097355
O	-0.47206	-2.207969	-1.873881
N	-0.490836	1.164504	0.724685
H	0.284392	1.590796	1.214139
H	-1.204121	0.913057	1.392698
Br	3.505004	0.0	0.0
