14

C	-0.498228	0.010044	-1.427674
C	0.0	0.0	0.0
F	-0.072437	-1.087326	-2.099717
H	1.10046	0.0	0.0
H	-0.356626	0.91025	0.484421
C	-1.966022	0.084102	-1.521177
N	-3.134556	0.15904	-1.604861
N	0.039125	1.243952	-2.15705
O	-0.294502	2.312459	-1.657444
O	0.721367	1.068478	-3.151323
N	-0.570227	-1.18741	0.640077
H	-0.656624	-1.011509	1.632542
H	0.098017	-1.942514	0.538191
Br	3.547591	0.0	0.0
