14

C	-0.487075	-0.001273	-1.441611
C	0.0	0.0	0.0
F	0.120351	-0.978974	-2.175575
H	1.091265	0.0	0.0
H	-0.35668	0.917032	0.478626
C	-1.946656	-0.203028	-1.51934
N	-3.099275	-0.422267	-1.468209
N	-0.175259	1.312807	-2.154729
O	-0.954106	1.663015	-3.04002
O	0.852886	1.880265	-1.82204
N	-0.428575	-1.168436	0.742516
H	0.14517	-1.959089	0.492674
H	-1.403788	-1.396153	0.611787
Br	3.569574	0.0	0.0
