14

C	-0.553118	0.098657	-1.399234
C	0.0	0.0	0.0
F	-0.059585	-0.878381	-2.213075
H	1.089677	0.0	0.0
H	-0.327439	-0.973974	0.37726
C	-2.025382	0.028017	-1.416967
N	-3.193364	-0.095325	-1.401771
N	-0.175449	1.419637	-2.075117
O	0.642512	2.139321	-1.520432
O	-0.711377	1.614516	-3.164252
N	-0.58914	1.088349	0.779914
H	0.120614	1.800133	0.904288
H	-0.855524	0.752782	1.693715
Br	3.569865	0.0	0.0
