14
Coordinates from ORCA-job run
  C   0.91289402409413     -0.50523585641022      0.60368033349771
  C   -0.25116171181262     -0.11997235093340     -0.30928886084573
  F   0.89525537175346      0.23351038425514      1.76784787762874
  H   -0.26031905623878     -0.87821030273450     -1.11136238867093
  H   0.83248093752556     -1.56205760150144      0.88073716971869
  C   2.19736708609473     -0.29339998485830     -0.08337339928182
  N   3.19111898507932     -0.13513911516540     -0.68709485682075
  N   -0.04712604451448      1.23818161295498     -0.79124632744622
  H   0.65798752983045      1.26477972531037     -1.51821530300517
  H   -0.90728298008214      1.60183353152857     -1.18083378940475
  C   -1.55835995043118     -0.19954326951566      0.46487594115807
  H   -1.68836180690471     -1.17958571218066      0.92935696081225
  H   -2.40454892310147     -0.03127570267418     -0.20582021659845
  H   -1.56894346129229      0.56511464192471      1.24173685925836
