14
Coordinates from ORCA-job run
  C   1.24192822971202     -0.13880017446511      0.03356008593851
  C   -0.21906475387579     -0.15017333245471     -0.41694994820583
  F   2.03213006349022     -0.63590543925876     -0.98613898933142
  H   -0.41996416849762     -1.17812383526491     -0.74237401560447
  H   1.55250118190522      0.89265551369099      0.22322407413879
  C   1.46634838506082     -0.95949146621175      1.23496787242607
  N   1.61301063108929     -1.61604753092187      2.19663529976646
  N   -0.31836837968615      0.77113380916383     -1.54631204397961
  H   -0.97516089507826      1.51396120529351     -1.34952051099425
  H   -0.61366358687217      0.29824116349692     -2.38714255149179
  C   -1.15775215382143      0.22272262781135      0.72309484579177
  H   -2.18910105379418      0.21797323555474      0.36474342807247
  H   -0.93008207848433      1.22950489037670      1.08840158753150
  H   -1.08476142114765     -0.46865066681092      1.56381086594181
