14
Coordinates from ORCA-job run
  C   1.04384344558716     -0.73719170780432     -0.09160013304718
  C   -0.31828236829429     -0.17063693078851     -0.49101188034030
  F   0.89421334472165     -2.04022257240597      0.35975243416814
  H   -0.74811307738410     -0.90136440289842     -1.19248650419302
  H   1.70889101146719     -0.76581700147407     -0.96033117722288
  C   1.67419214834988      0.06659536885284      0.96547821314849
  N   2.17001452088574      0.68689590260278      1.82902904697334
  N   -0.06443600579965      1.13337050959252     -1.09055770476046
  H   -0.87266643196645      1.73403444890224     -0.99786426931510
  H   0.15018894816380      1.04942186849117     -2.07614354911658
  C   -1.23526597147297     -0.03990797050005      0.71217201806012
  H   -0.86264745291672      0.73258063447694      1.38914857529024
  H   -1.29839542095940     -0.98344594743605      1.25559475206174
  H   -2.24253669038183      0.23568780038891      0.38982017829345
