14
Coordinates from ORCA-job run
  C   0.96783676229257     -0.51158253098743      0.49765359790754
  C   -0.30076245565844     -0.12454478658181     -0.26203433602755
  F   1.15426593609246      0.30062390862146      1.59622889769963
  H   -0.46159270271506     -0.93068289147719     -0.99863193154763
  H   0.88461926248527     -1.54269806299603      0.85803423038947
  C   2.14601890487498     -0.41393473925172     -0.37968309295389
  N   3.06448563049299     -0.37278530117610     -1.10882035002995
  N   -0.11041242287044      1.18694706968594     -0.86425217367141
  H   0.47546278816653      1.12781712631935     -1.68872848541078
  H   -1.00210155383007      1.57412688446733     -1.14514973991823
  C   -1.48139698360039     -0.08397344845198      0.69643778014850
  H   -1.58234386460560     -1.02286582827480      1.24540910751235
  H   -1.34448858925992      0.72972952249271      1.40883163804110
  H   -2.40959071186488      0.08382307761026      0.14470485786084
