14
Coordinates from ORCA-job run
  C   0.97911596550244     -0.40557156246318      0.54784440610446
  C   -0.24475712645048     -0.16665229945113     -0.32728948040455
  F   1.11525976350028      0.66134867001655      1.43011392072920
  H   -0.28154846261175     -0.99694091081094     -1.04237389641760
  H   0.85855809218716     -1.30979583571244      1.15237777544302
  C   2.20608852273402     -0.52002515232826     -0.25206691217584
  N   3.17113322040297     -0.65676236215197     -0.90458127000768
  N   -0.00938891347953      1.05356606935411     -1.08461556893416
  H   -0.04343080162774      1.85297472358570     -0.46344082430972
  H   -0.72441654984470      1.17477344532646     -1.79015762397297
  C   -1.51397812301874     -0.17480634375085      0.52563260839697
  H   -1.47118374321984      0.61864227252009      1.27480862736511
  H   -1.65368753362729     -1.12958883010138      1.04131929156675
  H   -2.38776431044680     -0.00216188403276     -0.10657105338300
