14
Coordinates from ORCA-job run
  C   0.94451667922086     -0.39736204428676      0.47796203630605
  C   -0.36275342301290     -0.17709638151953     -0.29529301123328
  F   1.13385016365557      0.65903240683138      1.35996510673666
  H   -0.46472357421759     -1.02405440703519     -0.98421644656963
  H   0.91236934241346     -1.31772479802488      1.06981005884675
  C   2.09254994796370     -0.45090299391590     -0.43896263878779
  N   2.99404957608890     -0.52689955006787     -1.18646404796916
  N   -0.36825175664227      1.04100659791711     -1.08673018261845
  H   0.33143986000635      1.00682859918204     -1.81881038095786
  H   -0.16436198244123      1.83652930794498     -0.49320492429825
  C   -1.53981086851204     -0.16919266706337      0.67101625467142
  H   -1.59187575625522     -1.09611565523594      1.24756749681949
  H   -2.46470176485728     -0.04940229765307      0.10729414704569
  H   -1.45229644341031      0.66435388292701      1.37106653200836
