14
Coordinates from ORCA-job run
  C   1.18063658078128     -0.20851606741625      0.01176153775999
  C   -0.28876442467657     -0.10091536995429     -0.36588250010477
  F   1.90040184404765     -0.65659485898471     -1.08959990308826
  H   -0.61676445888543     -1.11364403357378     -0.65038465147850
  H   1.56318885974953      0.78250799758037      0.27253679458923
  C   1.39589696513058     -1.14489607578640      1.12382369983230
  N   1.54043360691236     -1.88905476958319      2.01958137310724
  N   -0.36114053359708      0.86457041814283     -1.45591325886278
  H   -1.32851441048999      1.01683364723052     -1.71411218317557
  H   0.12088221540769      0.50115510779766     -2.26918619739080
  C   -1.11376864728057      0.38993024202207      0.81287419466545
  H   -0.76102212594666      1.37305555449335      1.13319977957567
  H   -2.16143169920359      0.48856767651429      0.51844842736214
  H   -1.06903377194920     -0.30299946848246      1.65485288720866
