14
Coordinates from ORCA-job run
  C   1.06637172835395     -0.69993755031933     -0.11459392717270
  C   -0.31965378421298     -0.17546961699292     -0.48892733569347
  F   0.96675156620662     -2.01264234867268      0.32196334829852
  H   -0.73442712452641     -0.91382871117032     -1.19150401204896
  H   1.72044896088067     -0.69504504063403     -0.99209047632161
  C   1.68349728491244      0.11096245182027      0.94495023485578
  N   2.17013056690422      0.73590498607155      1.81040834299206
  N   -0.11939636553988      1.14231758414047     -1.07782844374739
  H   0.09012405392224      1.07590510589304     -2.06584481347476
  H   -0.94895611514716      1.71124935215249     -0.97308687259377
  C   -1.22227993360424     -0.08757603958262      0.72894163678718
  H   -1.24205988098532     -1.03638091401174      1.26618811284993
  H   -2.24396828210132      0.15311422149331      0.42485245995373
  H   -0.86758267506283      0.69342651981251      1.40557174531545
