14
Coordinates from ORCA-job run
  C   0.95569495667986     -0.61356489433270      0.40369238747064
  C   -0.26394906209500     -0.04144245590157     -0.31887325240629
  F   0.98141461112239     -0.21587606662269      1.72375781137283
  H   -0.29601388077425     -0.55496532328028     -1.29540918322757
  H   0.91557392769338     -1.70817999688039      0.38809934133671
  C   2.19647450337636     -0.17602817278008     -0.25656610520279
  N   3.15284050617541      0.17569376478408     -0.83846204047776
  N   -0.11978158047678      1.40310000660780     -0.42283015876175
  H   -1.00817706102101      1.82521975186695     -0.66054752954752
  H   0.54507472481827      1.65176344758708     -1.14565676312687
  C   -1.52634421520629     -0.37729390900856      0.46094063441572
  H   -1.60624086010184     -1.45045023248757      0.64811439126789
  H   -1.51601059708628      0.14902567315213      1.41548873526197
  H   -2.41055597310423     -0.06800159270419     -0.10174826837521
