14
Coordinates from ORCA-job run
  C   1.13968872494836     -0.14926364266175     -0.01215320798211
  C   -0.34880478989092     -0.20014050720365     -0.37313171294284
  F   1.88449807620284     -0.58903051587761     -1.09939699794797
  H   -0.58314130635717     -1.25154619804182     -0.57491706496171
  H   1.44223154061962      0.88377842351528      0.19213396262797
  C   1.45977591599166     -0.99128092573973      1.14830615979971
  N   1.67279848177233     -1.66623411287219      2.08469087174591
  N   -0.64886236297259      0.55218753512116     -1.57924675540355
  H   -0.50358181844454      1.54368060424131     -1.42263437495926
  H   -0.04006276878671      0.26142357630594     -2.33445923892355
  C   -1.20177265181159      0.30119848785088      0.78071791798175
  H   -0.94760502008482      1.33730045784835      1.02778933743193
  H   -2.25031901913756      0.27326590237827      0.48375723578335
  H   -1.07384300204891     -0.30533908486443      1.67854386775035
