14
Coordinates from ORCA-job run
  C   1.01233969189760     -0.69030827856947     -0.13778586213367
  C   -0.39841412895435     -0.20827285521911     -0.50678281079192
  F   0.96318416278895     -1.96190673950770      0.40936491600627
  H   -0.78129864791627     -0.94033646513863     -1.22695196322336
  H   1.63875761443368     -0.74443299620026     -1.03427131963522
  C   1.64071514422142      0.22939183236692      0.82429404825203
  N   2.10483114817834      1.00101603577605      1.57724119524472
  N   -0.39112048057230      1.09358471761150     -1.15060457438936
  H   0.18509269107681      1.10313812083863     -1.98329488355019
  H   -0.05629803016312      1.80994210217621     -0.51667631991720
  C   -1.30701678801316     -0.18283622027127      0.71031424563259
  H   -2.31822587367901      0.07892080158944      0.39751156317095
  H   -1.32585859414259     -1.15344352471051      1.20713162166040
  H   -0.96768790915598      0.56654346925820      1.43151014367396
