13
Coordinates from ORCA-job run
  C   -0.42171052637750      0.07971357706214      0.14301167463588
  C   0.84560164298743     -0.75860343818561      0.28769645040447
  Br  -1.68335098567204     -0.82102589962138      1.66504967165495
  H   1.22788401039234     -0.67537541247953      1.30726873468881
  H   0.61096898517920     -1.81236511795365      0.12298760951541
  N   -0.20094431416052      1.42053264400065      0.45959840546119
  H   -1.02112892104541      2.00034709412748      0.33876218061750
  H   0.16074404899351      1.53716605046958      1.39573222172638
  N   -1.01754541337427     -0.08444698908372     -1.10789753302631
  H   -1.84179306687382      0.48757511797361     -1.23639622287022
  H   -1.24314219434381     -1.05043082503165     -1.29943288838468
  C   1.86976487659693     -0.32300177732103     -0.66402199851978
  N   2.71265185769796     -0.00008502395687     -1.41335830590360
