13
Coordinates from ORCA-job run
  C   -0.45271841039476     -0.06894453094285      0.25626588372652
  C   0.91983003225116     -0.74889036759816      0.30286944417154
  Br  -1.55388303418372     -1.01773150480943      1.66760309933194
  H   0.77778215948196     -1.82176951639152      0.16917541718486
  H   1.40074452985564     -0.58151240762080      1.27032359584108
  N   -0.31921185366064      1.31732061525379      0.51608343463224
  H   0.12576263598742      1.51114517977601      1.40488047784299
  H   -1.21177303114846      1.79344841549028      0.47609172100261
  N   -1.10081467150576     -0.36592733903289     -0.99240711213989
  H   -0.69165108812166      0.22289029243743     -1.71214231521661
  H   -2.09511627642762     -0.18435675223932     -0.94054038824013
  C   1.76920585752182     -0.23222058917498     -0.77019525509014
  N   2.43184315034463      0.17654850485245     -1.64800800304700
