13
Coordinates from ORCA-job run
  C   -0.52612948161676     -0.00559298077895      0.22981474250882
  C   0.81067797012560     -0.77214025754560      0.27223860333922
  Br  -1.62310604248703     -0.89901796991467      1.71064332928601
  H   0.66138035096590     -1.82236826412240      0.00603324108021
  H   1.21115645675897     -0.74765515118866      1.28753997730394
  N   -0.48241860607512      1.38044429205417      0.57885201031669
  H   0.07978920426818      1.87988571631079     -0.10250519469777
  H   -0.12047326885992      1.52523006846963      1.51172341508927
  N   -1.10419823911881     -0.10886579805266     -1.04347358093043
  H   -1.22915780892068     -1.06161801503775     -1.35589709025173
  H   -1.97491958240056      0.40401628457760     -1.08871499665976
  C   1.76772157333547     -0.15262289073081     -0.64442938396799
  N   2.52867747402477      0.37830496595931     -1.36282507241648
