13
Coordinates from ORCA-job run
  C   -0.49907192500959      0.04053654885040      0.28102165853695
  C   0.82820451509957     -0.74337308098676      0.29779001678829
  Br  -1.61444377512634     -0.90034186197463      1.71808418071909
  H   1.33370164703779     -0.62483741770715      1.26036668751634
  H   0.62296267737246     -1.80760519649243      0.16700933476766
  N   -0.26426974051487      1.39745384741606      0.54507730725694
  H   -1.12657300064932      1.92574717145166      0.52085188182398
  H   0.23641605214536      1.56197149628990      1.40717138112679
  N   -1.27889933101078     -0.04348395151079     -0.91465222268595
  H   -1.52871213255165     -0.99736614961644     -1.13809024921683
  H   -0.76408709243732      0.37834777419732     -1.68067664333924
  C   1.69407931556970     -0.27714047233239     -0.78521206555537
  N   2.35969279007500      0.09109129241525     -1.67874126773865
