13
Coordinates from ORCA-job run
  C   -0.42096776262806      0.06686886307875      0.01125362421647
  C   0.84290246944700     -0.58644501595014     -0.54751871228367
  Br  -0.89871731106015     -1.14792937667100      1.70562455031930
  H   0.66060913352531     -1.64365954804496     -0.74863208012597
  H   1.06307797525167     -0.07698957033098     -1.49089769520511
  N   -0.18556625383466      1.38578429067499      0.41441360319996
  H   -1.01617177983620      1.83571701439418      0.77724419501699
  H   0.55209752159874      1.44465332735789      1.10474787352469
  N   -1.46685912670705     -0.02098635175971     -0.92656703449033
  H   -2.29943776141641      0.46094020039302     -0.61024871274550
  H   -1.70786728104173     -0.98564673620903     -1.11248940639570
  C   1.98154898101216     -0.44751781000313      0.35290325468389
  N   2.89535119568938     -0.28678928692988      1.07116654028499
