13
Coordinates from ORCA-job run
  C   -0.33569769433094      0.22595604984941      0.13394041189283
  C   1.15959893802615      0.00145894367537     -0.08899634305109
  Br  -0.73051198705879     -0.82620933158643      1.95289348475470
  H   1.72250245320021      0.32842585062809      0.78720417766261
  H   1.44032803687570      0.62339814989905     -0.94480616582566
  N   -0.59574242228191      1.59529522194088      0.32896603460946
  H   -1.58641083924478      1.78248072367067      0.42336076706882
  H   -0.12560819839857      1.94013150437763      1.15553231762090
  N   -1.09912551987488     -0.31105717847302     -0.90890123399982
  H   -0.93284523691931     -1.30230797424338     -1.02720088813410
  H   -2.09102673644205     -0.15340618535609     -0.78503354556241
  C   1.47342582519115     -1.39212641254365     -0.38107578824115
  N   1.70311338125802     -2.51203936183854     -0.64588322879512
