13
Coordinates from ORCA-job run
  C   -0.44259934345712     -0.16592935776076      0.37673906723833
  C   0.94971139030211     -0.79346405089275      0.22441278063647
  Br  -1.38440264493997     -1.17780241208626      1.77044882065940
  H   1.47906642165009     -0.72638182325306      1.17593796999225
  H   0.84149820851630     -1.84011868967208     -0.06354796395697
  N   -0.28905964909275      1.17894131854652      0.88831305991579
  H   0.17919209109020      1.75157757166472      0.19138466040498
  H   -1.19474763138633      1.58880604884096      1.08508939303068
  N   -1.18230852425359     -0.38139691311423     -0.84815394946462
  H   -2.13722582305555     -0.05750342211412     -0.74712527417882
  H   -0.74307038017277      0.14045898056570     -1.60155793680448
  C   1.69479997556870     -0.07193891734196     -0.80718955588682
  N   2.22814590923071      0.55475166661730     -1.64475107158621
