13
Coordinates from ORCA-job run
  C   -0.41959227781279      0.12448075523378      0.23995533999904
  C   1.09667065564910      0.02669603295925     -0.01418236862876
  Br  -0.74476292464644     -0.99572231124024      1.91206415259934
  H   1.63985983757268      0.32087839076365      0.88569727071181
  H   1.33293295083577      0.73614774429099     -0.81477517721594
  N   -0.89443933715034      1.43449188718740      0.57586077297410
  H   -0.73086409557709      2.06043737455005     -0.20514074760580
  H   -0.45899335371260      1.79086929383536      1.41584787026937
  N   -1.13082617792669     -0.31318336427096     -0.89023465043492
  H   -2.12725364169530     -0.22913272038849     -0.73449730809985
  H   -0.89389583095703     -1.25652166488734     -1.16933860344833
  C   1.51600655275083     -1.30819874317154     -0.42885104249569
  N   1.81415764266989     -2.39024267486188     -0.77240550862439
