13
Coordinates from ORCA-job run
  C   -0.48914884858159     -0.01750630711216      0.12895062898380
  C   0.79922710779049     -0.55147898721556     -0.52937224771153
  Br  -0.83063968364802     -1.25828045828359      1.70163431557449
  H   0.68592623704537     -1.60233922274953     -0.80859848731648
  H   0.95440521100707      0.03167935430021     -1.44369934898673
  N   -0.42301870052052      1.29749894281215      0.68806172579762
  H   0.28109805186489      1.36436136983600      1.41169810619976
  H   -0.23197876494652      1.96438245793482     -0.05194505234093
  N   -1.52566651963135     -0.02459396241762     -0.82902152334923
  H   -2.37836353639319      0.33249387848044     -0.41566157013951
  H   -1.68940059919775     -0.94416260902282     -1.21745728546646
  C   1.95906846513310     -0.39202781940290      0.33881876185573
  N   2.88949158007798     -0.20002663715944      1.02759197689943
