13
Coordinates from ORCA-job run
  C   -0.54309588003713     -0.15523645950885      0.32311557339753
  C   0.88012220481312     -0.74878560452666      0.24535728846975
  Br  -1.43909015438195     -1.15524135775296      1.78404971717579
  H   1.36793408669879     -0.66120350548091      1.21811637742821
  H   0.82339321273683     -1.80717489412506     -0.01842616930583
  N   -0.62110421163911      1.23409455115860      0.70144227844950
  H   -0.20769619743217      1.40866491934785      1.60954115676006
  H   -0.15976842683716      1.80511388720585      0.00009791691535
  N   -1.22502108143379     -0.42496443252579     -0.89980358118329
  H   -2.09170638875538      0.09855288165028     -0.92680244956683
  H   -0.65401616475526     -0.18019448436989     -1.70109510624789
  C   1.65573586019166     -0.02026209510090     -0.75786118970958
  N   2.21431314083157      0.60663659402848     -1.57873181258281
