13
Coordinates from ORCA-job run
  C   -0.40935652576690      0.06814742015093      0.17923659090958
  C   0.90675395225352     -0.70243109473748      0.24205077527606
  Br  -1.47483409007973     -0.80520833487663      1.85895588324762
  H   0.71116194243473     -1.77329063219235      0.15522278881550
  H   1.37961368656662     -0.54518503937786      1.21382104240496
  N   -0.22808246584467      1.43292338916702      0.40611109603443
  H   0.21033110536208      1.61675116450777      1.29758682550971
  H   -1.08393553503266      1.96720225619462      0.33294154321588
  N   -1.11131639206146     -0.19054084219608     -0.99859781876583
  H   -1.97380337166693      0.33288783824051     -1.07260423402755
  H   -1.30208236702498     -1.17515683239906     -1.12065211988732
  C   1.81254200503340     -0.27312511540120     -0.82549459148149
  N   2.56200805582698      0.04902582291981     -1.66857778125159
