13
Coordinates from ORCA-job run
  C   -0.41930979714838      0.03581850734188      0.16516217608584
  C   0.87171466324157     -0.77648753441132      0.10769300999843
  Br  -1.61708135315881     -1.19409061603545      1.49636234836014
  H   1.27818123676986     -0.89392179134176      1.11443466984195
  H   0.65900859177221     -1.78019374903008     -0.26645890444407
  N   -0.22313838852805      1.28955149952202      0.74536530399097
  H   0.16352875202077      1.22283044259779      1.67638326905583
  H   -1.06155899134203      1.85516821212106      0.76697442013897
  N   -1.04457511355172      0.11356802354577     -1.07980540573185
  H   -1.88377062156673      0.67833572380986     -1.07080445988171
  H   -1.25496549419355     -0.79896870065747     -1.45893743641843
  C   1.85880676815218     -0.12437343896079     -0.75532864049311
  N   2.67115974753270      0.37176342149851     -1.44104035050295
