13
Coordinates from ORCA-job run
  C   -0.59350020735917     -0.03214741392184      0.35173079973965
  C   0.78265078883783     -0.75535548855971      0.28763523206598
  Br  -1.57591262067438     -0.98929373716691      1.78145437243544
  H   1.29477652986109     -0.69077455718099      1.25132610808035
  H   0.64793832924921     -1.81481974072881      0.05402552488879
  N   -0.50920701741594      1.34803432295350      0.72489668795649
  H   0.06452697624532      1.47261819234352      1.54888721370474
  H   -0.13073618481098      1.90398573114204     -0.03421312281944
  N   -1.36172615096562     -0.13414185308230     -0.85285535775458
  H   -1.40978538268336     -1.09084019507738     -1.17870837630355
  H   -0.96538083869991      0.44822286649313     -1.58256567295778
  C   1.58988550184400     -0.11583788224279     -0.74956918456021
  N   2.16547027657191      0.45034975502856     -1.60204422447587
