13
Coordinates from ORCA-job run
  C   -0.43919057013425     -0.13736387570307      0.25256793272919
  C   0.94623524349075     -0.77133220798987      0.08852596422284
  Br  -1.45501339256090     -1.40626498392552      1.46099902781749
  H   1.46987682276059     -0.80859232967391      1.04756443687151
  H   0.81788605184498     -1.79166946999003     -0.27434022215658
  N   -0.31882075981653      1.16001022719066      0.80943168156690
  H   0.16339444855782      1.16380029532566      1.69994823757917
  H   -1.22100331651398      1.60705408023694      0.91409486067704
  N   -1.13973563579389     -0.16736901216682     -1.00280822863678
  H   -2.13361265968024     -0.02961452881146     -0.87013304392125
  H   -0.77553660029661      0.57831282248118     -1.58896369886289
  C   1.73491987701446     -0.00621425785432     -0.87711253835980
  N   2.35360049112781      0.61024324088054     -1.66077440952685
