13
Coordinates from ORCA-job run
  C   -0.33040525663787      0.09836147099119      0.23410785628353
  C   1.14123157143895     -0.00458689755254     -0.17743686673145
  Br  -0.53956576508867     -0.94522896458702      1.94309618972533
  H   1.25672110440513      0.57450582943875     -1.10014110125905
  H   1.78047953235896      0.45149045746655      0.58363469585800
  N   -0.65456774375300      1.47642140945697      0.39918055379069
  H   -1.62525335638180      1.58714609866068      0.66711804745030
  H   -0.07342983413241      1.92501114767322      1.09793214095998
  N   -1.15936598412435     -0.56964674299055     -0.73120039694809
  H   -2.06721673611477     -0.79970450162028     -0.34929962526014
  H   -1.27666221894553      0.04228338724871     -1.53253230570738
  C   1.57492085138566     -1.37677797611307     -0.41430227862306
  N   1.97311383558967     -2.46027471807260     -0.62115690953863
