13
Coordinates from ORCA-job run
  C   -0.48839519843582     -0.02980942230740      0.30136564083961
  C   0.84799209904594     -0.77251196431957      0.10429106933997
  Br  -1.53523043572828     -1.27337393735119      1.54487878860122
  H   0.65109627117322     -1.78909855346165     -0.24182931745687
  H   1.38947579882161     -0.85010927138780      1.05139905903111
  N   -0.25944019839035      1.24588949406213      0.83731318257576
  H   -1.12880366951600      1.74977272674162      0.95506048148746
  H   0.27099501175179      1.23483088516083      1.69729654287322
  N   -1.31284541575431      0.12493510688319     -0.85706800257451
  H   -1.56023001141596     -0.76517508236324     -1.26749122998930
  H   -0.83202299356877      0.70751214957908     -1.53464733704560
  C   1.66552773483582     -0.07151750243103     -0.88563634853472
  N   2.29088100718112      0.48965537119503     -1.70493252914737
