13
Coordinates from ORCA-job run
  C   -0.42685296855083     -0.10094750068876      0.28866383221650
  C   0.88085966313556     -0.84959254877319      0.00999929058326
  Br  -1.48108902108968     -1.32611191715130      1.50913217927448
  H   0.68587634595089     -1.77640092345357     -0.53625386803589
  H   1.34437839187239     -1.10253512869420      0.96413845737835
  N   -0.15717782653482      1.07400187115541      1.07257453203304
  H   0.22082849850536      1.78816621829020      0.45662921165822
  H   -1.00110458094815      1.42430874721996      1.50789159153129
  N   -1.10441381258106      0.16535315600219     -0.92699631834946
  H   -1.96547078783476      0.67435917973234     -0.77121507726775
  H   -1.30156386198289     -0.67276011092437     -1.46019301741649
  C   1.78816033149639      0.00020954656351     -0.76104516515929
  N   2.51756962856158      0.70394941072177     -1.35232564844626
