13
Coordinates from ORCA-job run
  C   -0.41798088054136     -0.06822162008629      0.31063512185968
  C   0.99954262569743     -0.64918029105883      0.27785870944596
  Br  -1.29525805037154     -0.91980243343032      1.92518491962978
  H   1.56299360527179     -0.34168481198451      1.16294113560668
  H   0.92712628932831     -1.73727473788304      0.27581945488284
  N   -0.36360951181836      1.34459346436650      0.40707134407987
  H   0.15175029880120      1.66459488273579      1.21802695408983
  H   -1.28929381696170      1.75429741582350      0.41504776198679
  N   -1.16513639220640     -0.54454807225185     -0.82191697252343
  H   -0.87394387366216     -0.01713624531125     -1.64009382954531
  H   -2.15961935424964     -0.41749860550812     -0.68271236355749
  C   1.69376534528264     -0.20538890912308     -0.93090879979135
  N   2.22966371542980      0.13724996371149     -1.91695343616386
