13
Coordinates from ORCA-job run
  C   -0.38899177388636     -0.00551765417952      0.15111171545067
  C   0.86265964930954     -0.51091287506765     -0.57238634793964
  Br  -0.71949891346483     -1.24810704568285      1.69837684378440
  H   1.03420347187665      0.15922160560195     -1.42187813908558
  H   0.69217704319629     -1.51524232402709     -0.96985202320880
  N   -0.13240676794073      1.28217411455087      0.73524069458197
  H   -0.80174055479785      1.50313807242026      1.46076732599825
  H   -0.18689997121735      1.98329714483695      0.00315385135522
  N   -1.47130345979088      0.00149163158021     -0.77771029113531
  H   -2.31808456239770      0.34055394623889     -0.33665639324417
  H   -1.65363206221933     -0.92030979005022     -1.15781803743152
  C   2.04930499377550     -0.52172549552834      0.27575824224855
  N   3.03421290755705     -0.54806133069348      0.91189255862597
