13
Coordinates from ORCA-job run
  C   -0.40009946620515      0.09782771111022      0.28249350613402
  C   1.08336251978472      0.11012607025613     -0.13274488678029
  Br  -0.45518046523978     -1.00095491443455      1.99892223660608
  H   1.17602389136167      0.81319079542263     -0.96774379291738
  H   1.69406610556907      0.47003739196602      0.69726594457576
  N   -0.93877182692124      1.37543854744262      0.64526244117139
  H   -0.91018117349232      1.99205273954227     -0.15937748271880
  H   -0.44636079376124      1.78580438387535      1.42709459268615
  N   -1.19083890345259     -0.42219794063646     -0.75639475717868
  H   -2.16838144804136     -0.41159151722816     -0.49457705994122
  H   -0.91095898421137     -1.35150439389017     -1.04279775123780
  C   1.56087889384389     -1.19903781663151     -0.56585383939007
  N   1.90644165076564     -2.25919105679441     -0.93254915100917
