13
Coordinates from ORCA-job run
  C   -0.27793087532809      0.07798286091863      0.37541151180775
  C   1.13752038768731      0.00870276140584     -0.20473900166429
  Br  -0.29632949422126     -0.82501240894964      2.11553496492533
  H   1.15649972926756      0.59439090871895     -1.13355754599985
  H   1.82437543813758      0.48760710441668      0.49455307159919
  N   -0.55524807639692      1.47765374360780      0.65015448234140
  H   -0.66842043148117      1.96759675713027     -0.23301056455167
  H   -1.41798554697395      1.56854490302814      1.17444721083578
  N   -1.17246466871483     -0.66411965496319     -0.47870438483235
  H   -2.11268143771240     -0.67420187855500     -0.10204494459666
  H   -1.18983355599509     -0.24953078250867     -1.40534268752008
  C   1.58320223130109     -1.34871658409271     -0.50114534367106
  N   1.98829630043016     -2.42089773015712     -0.75055676867349
