13
Coordinates from ORCA-job run
  C   -0.42702755478606     -0.08744486354706      0.08702521451912
  C   0.88146560303058     -0.57630918952066     -0.54292823325805
  Br  -0.79844419922716     -1.31251022417402      1.65322733904775
  H   1.00188802249956     -0.04209429540805     -1.49129023705330
  H   0.79137989355520     -1.64115393951980     -0.75725451150416
  N   -0.31188819315823      1.27268653575509      0.46694485684068
  H   -1.16771723283688      1.60971066853991      0.89013848099033
  H   0.46191132084336      1.43949027479500      1.10026470704644
  N   -1.49991915007830     -0.32726481350650     -0.84834964420636
  H   -2.38660479735303     -0.42201463559952     -0.37104149337611
  H   -1.54685714795686      0.46847072669320     -1.47733875268118
  C   2.04364400236823     -0.31502691900535      0.29998360727825
  N   2.95816943309959     -0.06753932550221      0.99261866635657
