13
Coordinates from ORCA-job run
  C   -0.36714125424909      0.18195112397836      0.29762413677173
  C   1.09522545472983     -0.02616112301868     -0.14543241674345
  Br  -0.54923132276394     -0.86637572669322      2.02790630922230
  H   1.25617611302694      0.61317986932587     -1.02031751284236
  H   1.78830850261950      0.28704774043166      0.63989149386819
  N   -0.60262418587655      1.56559258077848      0.44970382674974
  H   -1.56216221000194      1.72204523844521      0.73311192733303
  H   0.02733739600780      1.99570536979907      1.11418649855032
  N   -1.37775999384064     -0.33769364498820     -0.57139937133365
  H   -1.28918148752158     -1.33792881982388     -0.69643636511947
  H   -1.32157582235436      0.13531607999390     -1.46693536621460
  C   1.36036053477280     -1.41173165544325     -0.51228638910467
  N   1.54126827545123     -2.52094703278532     -0.84961677113712
