13
Coordinates from ORCA-job run
  C   -0.48852779264169     -0.18839074543301      0.18679659277891
  C   0.82501977820705     -0.49502328371588     -0.55922019886524
  Br  -0.64503156255867     -1.50567284737712      1.64570770733569
  H   0.82813901048351     -1.53504237250674     -0.89055845226866
  H   0.86733685827430      0.14377865105421     -1.45097801169006
  N   -0.56113631860482      1.10762191254884      0.81940495563969
  H   0.15985777102903      1.22596346195225      1.52245660289517
  H   -0.46165135167928      1.83377856824127      0.11666653804874
  N   -1.56479649451837     -0.41869809916946     -0.73283402588502
  H   -2.43863167449363     -0.16681654094731     -0.28433683634711
  H   -1.44555920179741      0.15928532632046     -1.55878646106326
  C   1.99851001863952     -0.21395850998323      0.25951902524139
  N   2.92647095966047      0.05317447901575      0.92616256417972
