13
Coordinates from ORCA-job run
  C   -0.31064143508919      0.12906222788018      0.44397016270395
  C   1.09891368355244     -0.01905216262083     -0.16148339881981
  Br  -0.35630590499640     -0.97208085869191      2.07822054550219
  H   1.18582742784272      0.68355060157881     -1.00039526508906
  H   1.85105936559644      0.24992475487520      0.58252648486263
  N   -0.46643384083821      1.50124410064344      0.83180080820563
  H   -1.40920471482279      1.63872529040258      1.17885433468950
  H   -0.32449749009301      2.10691303345381      0.02960778976876
  N   -1.39791994874428     -0.34583781630187     -0.37966282607465
  H   -1.40983996645783      0.16903501483285     -1.25477930486411
  H   -1.31600654387865     -1.33656118665887     -0.57942901289195
  C   1.34062605663355     -1.36518569010158     -0.66745484649729
  N   1.51542331129519     -2.44073730929180     -1.10277547149578
