13
Coordinates from ORCA-job run
  C   -0.47751110134919     -0.15731465865826      0.41367522880909
  C   0.86139219054524     -0.80786101197561      0.00462191828718
  Br  -1.37949933286728     -1.50799852477435      1.55345492589766
  H   1.46686352075353     -0.99538923195789      0.89415839400881
  H   0.67024696187033     -1.76177307427439     -0.49073019646488
  N   -0.20868283948506      0.99975468471103      1.20250947679249
  H   0.49025239919975      1.58935170589624      0.76448193257383
  H   -1.06396580673037      1.52604650061006      1.33450269109624
  N   -1.39584297753840      0.11390033975984     -0.66466784903799
  H   -0.98456863553222      0.79027811762260     -1.30042327238597
  H   -1.64772916461435     -0.72428364764782     -1.17465652166802
  C   1.57526862982218      0.08315761823586     -0.90958116245266
  N   2.09577615592581      0.85213118245272     -1.62834556545580
