13
Coordinates from ORCA-job run
  C   -0.51913230067513     -0.24735624765263      0.30614546964627
  C   0.90458579859717     -0.75865838386103     -0.00148288412473
  Br  -1.30126255155671     -1.60400568754945      1.52502036483578
  H   0.84754213557613     -1.72031994098086     -0.51625594779100
  H   1.45469564007816     -0.89829454699995      0.93113162701310
  N   -0.59347622367764      1.00290768004661      1.02100490716776
  H   -0.12279977353454      0.96164122953836      1.91701826730939
  H   -0.18843601809719      1.74281240298494      0.45590904751987
  N   -1.27595732263766     -0.22790632309202     -0.90213127680561
  H   -2.14833598145586      0.26301052659479     -0.74768316511140
  H   -0.76082322658349      0.21947201823270     -1.65207336917773
  C   1.60235121662059      0.21866182725226     -0.83652450277367
  N   2.10304860734616      1.04803544548624     -1.50007853770802
