13
Coordinates from ORCA-job run
  C   -0.42257071230430      0.05785873233151      0.01041263554262
  C   0.86056166068557     -0.53992022118103     -0.56623135176249
  Br  -0.89436229547833     -1.24934206745549      1.63393799905735
  H   1.07964844295419      0.02223211286802     -1.47939641366069
  H   0.70172503671662     -1.58845563612375     -0.82460604003505
  N   -0.21886232051273      1.35967141270507      0.48259869584291
  H   -1.06293853142239      1.77221705034996      0.85875297663197
  H   0.50912327548770      1.39687892769267      1.18471412439646
  N   -1.45536582965622     -0.00220681009692     -0.94426443443998
  H   -1.67502600290396     -0.96043442989213     -1.18233714539714
  H   -2.30089209150879      0.44775012521278     -0.61572479002748
  C   1.98681047539272     -0.42620765525700      0.35286703899110
  N   2.89014889254988     -0.29004154115370      1.08927670486040
