13
Coordinates from ORCA-job run
  C   -0.35461664488162      0.20346096928801      0.29811362945863
  C   1.08455895134504     -0.01387230709045     -0.21118665436631
  Br  -0.40079205101418     -0.66011826234960      2.13632373562630
  H   1.81327570376566      0.39660874011878      0.49284120640221
  H   1.17346106196187      0.53415839961473     -1.15560529406937
  N   -0.62402373552452      1.58902040252524      0.32007207466851
  H   -1.56947041405741      1.75050176438734      0.64493890486386
  H   0.03048138225039      2.10269789584589      0.89549682858460
  N   -1.39834892572458     -0.43024786210580     -0.44731211358401
  H   -1.41063351779477     -0.05305340918276     -1.38883135426359
  H   -1.28591328183464     -1.43555589048412     -0.47307651176419
  C   1.37078401092202     -1.42329020695182     -0.44841946358448
  N   1.57223746058678     -2.55931023361542     -0.66235498797219
