13
Coordinates from ORCA-job run
  C   -0.47447773509805      0.00541562660710      0.15660589463954
  C   0.78602239376318     -0.54364627189239     -0.53842274926253
  Br  -0.82119809452340     -1.27745379646224      1.70301493234696
  H   0.91814796415404      0.03119739442236     -1.46151737582784
  H   0.63456452968063     -1.59297965302175     -0.79793626214569
  N   -0.26931831055538      1.33801081389598      0.55243118949007
  H   0.53173918361519      1.45467689004293      1.15956397472861
  H   -1.10308160186248      1.70863103675434      0.99022824644165
  N   -1.66977107375257     -0.03764830214483     -0.63310339452491
  H   -1.55492696600121      0.55640283875836     -1.44700873910919
  H   -1.90639511833311     -0.98070350044740     -0.91032625509596
  C   1.98776354433790     -0.40578602664425      0.27795734993323
  N   2.93993128457527     -0.25511704986820      0.94751318838607
