13
Coordinates from ORCA-job run
  C   -0.48483635275770     -0.04460187237750      0.30523804399937
  C   0.85213015250290     -0.77278894386492      0.06290094264248
  Br  -1.50954587952132     -1.33882733608009      1.51479489686312
  H   0.65500765139120     -1.77694510593407     -0.31758952420620
  H   1.40690736385193     -0.88240046624208      0.99909496045143
  N   -0.25484223332975      1.21123290566556      0.88594772736452
  H   0.28634208049318      1.17050199475285      1.73829649912149
  H   -1.12501447263343      1.70579011592198      1.03347733006667
  N   -1.32484371509693      0.14961148416843     -0.83598332209097
  H   -1.57166277528436     -0.72550907497935     -1.27783030681937
  H   -0.85591544256549      0.76128406371407     -1.49604368494068
  C   1.65358325780272     -0.03068594294946     -0.91006440331091
  N   2.27269036514708      0.57333817820459     -1.70323915914098
