13
Coordinates from ORCA-job run
  C   -0.38281595916875      0.17079345062796      0.28402308521579
  C   1.10155014048705     -0.02471481468911     -0.08579256473801
  Br  -0.66302963335455     -0.94892733676445      1.95547545555098
  H   1.31182419896790      0.65015727559116     -0.92267506878947
  H   1.75068579936136      0.25240110204418      0.74911488987256
  N   -0.62371837085430      1.54747943513620      0.48118651719048
  H   -1.59743391314369      1.69624474402070      0.71606201223729
  H   -0.03102957434379      1.94707528602299      1.19691761932968
  N   -1.34437390322410     -0.30746167069713     -0.66112165308410
  H   -1.23842410127068      0.20367995972152     -1.53080575715028
  H   -1.25051486344930     -1.30171048461643     -0.82415770089652
  C   1.38427232818063     -1.39491562819463     -0.49490079171339
  N   1.58300785181224     -2.49110131820296     -0.86332604302495
