13
Coordinates from ORCA-job run
  C   -0.29562386610649      0.16686109526749      0.43939883556770
  C   1.09238833629638      0.00553920775387     -0.21157832128534
  Br  -0.22297916988954     -0.74253650187481      2.18772115389010
  H   1.11190598874536      0.61367146517017     -1.12525991873816
  H   1.86281506769772      0.38575600766222      0.46173094929290
  N   -0.49399904370767      1.56701235554659      0.67844099948224
  H   -1.42652976209590      1.70706666877155      1.05117107371356
  H   -0.41112914962900      2.08327931286396     -0.19163799742572
  N   -1.39526646915165     -0.44032216141869     -0.27258677721742
  H   -1.27848613699982     -1.44330497708713     -0.36448033077443
  H   -1.46918579541392     -0.02842348296267     -1.19771948738889
  C   1.36886483265557     -1.37887474870894     -0.57631882080184
  N   1.55622516759896     -2.49672424098360     -0.87988135831471
