13

C	-0.486106	0.079002	-1.437053
C	0.0	0.0	0.0
F	-0.239751	-1.099712	-2.121706
H	1.095245	0.0	0.0
H	0.048344	0.88539	-1.946802
H	-1.567019	0.260894	-1.478285
C	-0.52402	-1.198707	0.648692
N	-0.99909	-2.122083	1.197276
C	-0.441619	1.252925	0.76476
H	-1.531852	1.340229	0.812337
H	-0.045082	1.225917	1.780303
H	-0.03098	2.139444	0.27478
Cl	3.384372	0.0	0.0
