13

C	-0.486926	-0.046273	-1.443974
C	0.0	0.0	0.0
F	-0.217012	1.160483	-2.07526
H	1.095835	0.0	0.0
H	0.030277	-0.836659	-1.992138
H	-1.570743	-0.202829	-1.491388
C	-0.472169	-1.218939	0.654858
N	-0.912748	-2.180261	1.166855
C	-0.503117	1.239913	0.739198
H	-0.132005	1.238313	1.765092
H	-1.597085	1.283233	0.756172
H	-0.118099	2.127801	0.238464
Cl	3.390489	0.0	0.0
