15
Coordinates from ORCA-job run
  C   -0.32828633740518     -0.32339016666504     -0.25805438425522
  C   0.85536262578707      0.63935141691478     -0.17620880740485
  Cl  -0.04936631571016     -1.48035763847357     -1.61601301590907
  H   1.12630057285191      0.99838460749334     -1.16696195898194
  H   0.60682090401792      1.46874178860135      0.48753461617217
  C   -1.58106954712115      0.47353438421637     -0.60887207603697
  H   -1.81128357209403      1.16606176436818      0.20605265391629
  H   -1.45650096422387      1.03691531051053     -1.53615609552750
  H   -2.42429715706919     -0.20804438467787     -0.73611534421976
  N   -0.40253090498106     -1.09514462241436      0.95142864337886
  H   -1.25707633191189     -1.63626116678169      0.98253115744376
  H   -0.33213897031270     -0.50747611578213      1.77340737000213
  N   2.05610316631802     -0.01166384319024      0.41375010869622
  O   2.17368314185922      0.06481832667123      1.63619060616639
  O   2.82527968999510     -0.58246966079089     -0.35251347344052
