15
Coordinates from ORCA-job run
  C   -0.39687670150761     -0.22318782132475     -0.14206440260279
  C   0.80218528060038      0.68748103051160      0.08925187129312
  Cl  -0.04827006899568     -1.11566054520062     -1.73306146559514
  H   0.87382742031855      1.43918136335362     -0.69285131041781
  H   0.71066905658250      1.15056403120861      1.07467311373302
  C   -1.63005980424972      0.62623861713249     -0.39660036508160
  H   -1.49100613922190      1.27496711239326     -1.26134542352906
  H   -1.84130270356922      1.22748455266683      0.49068104439021
  H   -2.48819147075075     -0.01990619584935     -0.59176960189908
  N   -0.61700528052416     -1.09168980427507      0.95073728144545
  H   -1.40847458879664     -1.69890737350749      0.78236238558713
  H   0.20471046695956     -1.64084755920006      1.16656376232472
  N   2.11138232301270     -0.02956512670562      0.08188677299834
  O   2.99676321977907      0.42961782888907     -0.63112776695462
  O   2.22064899036292     -1.01377011009253      0.81166410430810
