15

C	0.0	0.0	0.0
C	-0.566204	-0.086828	-1.404365
F	1.350647	0.0	0.0
H	-0.45151	0.874347	-1.904051
H	-1.630408	-0.347457	-1.315395
N	-0.587684	1.0052	0.797053
H	-0.534768	1.895288	0.31425
H	-1.586461	0.769761	0.882212
N	-0.281207	-1.349469	0.758681
O	-1.444552	-1.598053	1.021307
O	0.693457	-2.03171	1.049485
N	0.135215	-1.088578	-2.246245
O	0.10581	-2.256241	-1.86455
O	0.694441	-0.68621	-3.267314
Cl	-3.825703	0.0	0.0
