15

C	0.0	0.0	0.0
C	-0.554507	-0.187513	-1.394517
F	1.34732	0.0	0.0
H	-1.622588	-0.429671	-1.337218
H	-0.43413	0.749577	-1.936511
N	-0.525359	1.167697	0.567165
H	-0.285147	1.191612	1.551873
H	-1.548376	1.121912	0.478325
N	-0.321622	-1.244674	0.880125
O	0.125968	-1.179363	2.024973
O	-0.986544	-2.157525	0.41312
N	0.133094	-1.221381	-2.215065
O	0.860186	-2.0512	-1.677298
O	-0.103191	-1.168316	-3.421429
Cl	-3.587804	0.0	0.0
