15

C	0.0	0.0	0.0
C	-0.548258	-0.17234	-1.402339
F	1.372628	0.0	0.0
H	-1.554992	-0.596842	-1.351982
H	-0.602126	0.805384	-1.874726
N	-0.508579	1.157791	0.589454
H	-1.532778	1.119258	0.501744
H	-0.261275	1.155481	1.573185
N	-0.300498	-1.264206	0.866478
O	-0.807685	-2.250305	0.35249
O	0.025603	-1.149878	2.046926
N	0.292992	-1.01425	-2.29701
O	0.243655	-0.72579	-3.493319
O	0.940967	-1.942155	-1.824034
Cl	-3.511169	0.0	0.0
