15

C	0.0	0.0	0.0
C	-0.521214	0.063562	-1.421245
F	1.348733	0.0	0.0
H	-1.611473	0.137331	-1.398247
H	-0.170206	-0.796863	-1.980341
N	-0.516908	0.986315	0.821306
H	-1.53613	0.995803	0.706305
H	-0.28787	0.786659	1.787657
N	-0.282781	-1.457085	0.544023
O	-0.334169	-1.557685	1.765254
O	-0.327036	-2.386132	-0.254482
N	0.051724	1.265924	-2.08397
O	1.064612	1.095261	-2.766589
O	-0.515088	2.341865	-1.916761
Cl	-3.534021	0.0	0.0
