18

C	0.0	0.0	0.0
C	-0.34104	0.006875	-1.547299
Cl	1.780439	0.0	0.0
H	0.15242	0.870252	-2.043348
C	-0.243212	1.291189	0.890138
H	-1.201176	1.431802	1.324897
H	0.112192	2.220153	0.414183
H	0.434066	1.141296	1.761256
N	-0.74934	-1.124709	0.889759
O	-1.582024	-1.957704	0.237243
O	0.189197	-1.840283	1.366774
N	-1.762474	0.421445	-2.174118
O	-2.259079	-0.313316	-2.915213
O	-2.275757	1.423775	-1.806342
N	0.028339	-1.203199	-2.273205
H	-0.403221	-1.95858	-1.751741
H	1.038736	-1.327309	-2.247441
Br	-2.861065	0.0	0.0
