15

C	-0.495177	-0.011171	-1.449357
C	0.0	0.0	0.0
Br	-0.087745	1.699077	-2.318393
H	1.095216	0.0	0.0
H	-1.588417	-0.07049	-1.492577
C	0.167523	-1.132463	-2.227494
H	-0.118501	-1.108116	-3.280493
H	-0.127003	-2.09854	-1.807179
H	1.249623	-1.030814	-2.130931
C	-0.436306	-1.252492	0.625482
N	-0.818173	-2.231277	1.15742
N	-0.429134	1.160007	0.77153
H	-1.216677	0.948286	1.36509
H	0.353545	1.439567	1.350111
H	2.76824	0.0	0.0
