15

C	-0.37841	0.022495	-1.46239
C	0.0	0.0	0.0
Br	-2.358487	0.116365	-1.709563
H	1.100023	0.0	0.0
H	-0.111067	-0.933459	-1.917764
C	0.286558	1.177617	-2.173279
H	0.08096	1.157076	-3.246066
H	-0.054424	2.121832	-1.749056
H	1.363748	1.080925	-1.988055
C	-0.461533	-1.214743	0.670396
N	-0.814643	-2.183923	1.235655
N	-0.373579	1.226308	0.691944
H	-1.25123	1.12214	1.185147
H	0.364622	1.440768	1.354247
H	2.713837	0.0	0.0
