15

C	-0.436754	-0.018228	-1.474492
C	0.0	0.0	0.0
Br	-0.012154	1.713094	-2.317131
H	1.09652	0.0	0.0
H	-1.526627	-0.081447	-1.567659
C	0.269154	-1.126256	-2.236183
H	1.347142	-1.018332	-2.088023
H	0.028314	-1.095349	-3.301004
H	-0.042833	-2.09486	-1.834342
C	-0.488689	-1.246356	0.595445
N	-0.901422	-2.249065	1.051543
N	-0.426813	1.129464	0.812452
H	-1.25416	1.565486	0.424297
H	0.33186	1.80309	0.788614
H	2.76883	0.0	0.0
