15

C	-0.492918	-0.042996	-1.444949
C	0.0	0.0	0.0
Br	-0.050185	1.653828	-2.351979
H	1.102093	0.0	0.0
H	-1.585638	-0.068872	-1.480409
C	0.160071	-1.182131	-2.207189
H	-0.159823	-2.136774	-1.778887
H	1.245533	-1.101252	-2.102746
H	-0.119598	-1.162654	-3.26313
C	-0.462819	-1.227027	0.646616
N	-0.823696	-2.216117	1.170878
N	-0.552134	1.152941	0.740252
H	-0.207299	1.061314	1.692514
H	-0.059686	1.961286	0.367119
H	2.813192	0.0	0.0
