15

C	-0.521013	0.021038	-1.430713
C	0.0	0.0	0.0
Br	-0.04446	-1.647213	-2.350905
H	1.093631	0.0	0.0
H	0.04684	0.797373	-1.948771
C	-2.015361	0.246668	-1.548696
H	-2.566397	-0.569186	-1.072763
H	-2.259611	1.187546	-1.048868
H	-2.324126	0.308082	-2.594772
C	-0.529944	-1.117483	0.77202
N	-0.987351	-1.976073	1.435488
N	-0.315139	1.302153	0.616631
H	0.545565	1.611002	1.065583
H	-1.032631	1.212044	1.324079
H	2.702447	0.0	0.0
