15

C	-0.492683	-0.03702	-1.44514
C	0.0	0.0	0.0
Br	-0.047603	1.662557	-2.345859
H	1.10215	0.0	0.0
H	-1.585015	-0.061207	-1.480181
C	0.15838	-1.173591	-2.211644
H	-0.163674	-2.129077	-1.787049
H	-0.120341	-1.149184	-3.267354
H	1.243333	-1.09485	-2.106865
C	-0.462485	-1.229707	0.64114
N	-0.822191	-2.221691	1.160488
N	-0.55262	1.149879	0.744293
H	-0.058222	1.959582	0.377033
H	-0.210769	1.053186	1.697388
H	2.812976	0.0	0.0
