15

C	-0.39043	-0.081778	-1.457284
C	0.0	0.0	0.0
Br	-2.373833	-0.023803	-1.692922
H	1.104204	0.0	0.0
H	-0.117321	-1.063777	-1.849308
C	0.25466	1.028776	-2.252078
H	0.042331	0.931468	-3.319099
H	1.333935	0.959863	-2.070278
H	-0.097258	1.994429	-1.891669
C	-0.45357	-1.162445	0.760295
N	-0.811934	-2.083142	1.399106
N	-0.363148	1.274232	0.607337
H	-1.218377	1.203574	1.142804
H	0.400112	1.550342	1.217641
H	2.704885	0.0	0.0
