15

C	-0.49287	-0.03373	-1.445104
C	0.0	0.0	0.0
Br	-0.045412	1.666675	-2.343628
H	1.102139	0.0	0.0
H	-1.585047	-0.056738	-1.480028
C	0.156688	-1.169742	-2.213475
H	-0.166954	-2.125513	-1.790519
H	1.241586	-1.092595	-2.108691
H	-0.121779	-1.142886	-3.268999
C	-0.462529	-1.231345	0.638014
N	-0.822148	-2.224636	1.154754
N	-0.552902	1.147363	0.747526
H	-0.195846	1.056964	1.695761
H	-0.071774	1.960719	0.370706
H	2.812991	0.0	0.0
