16

C	-0.498089	-0.02085	-1.431096
C	0.0	0.0	0.0
F	-0.14139	1.248206	-1.993312
H	1.098529	0.0	0.0
H	-0.348438	-0.917074	0.483873
C	0.204936	-1.056443	-2.274825
H	-0.025447	-2.055879	-1.902159
H	1.282524	-0.891672	-2.224687
H	-0.128631	-0.980268	-3.314236
N	-1.91813	-0.161477	-1.452664
H	-2.289041	0.505476	-0.782799
H	-2.265521	0.067518	-2.37674
N	-0.595722	1.15458	0.693767
H	-0.334618	1.094306	1.671371
H	-0.125307	1.976109	0.32991
Br	3.772947	0.0	0.0
