16

C	-0.492007	-0.025722	-1.433449
C	0.0	0.0	0.0
F	-0.036173	1.178052	-2.03315
H	1.092755	0.0	0.0
H	-0.339296	0.948647	0.451619
C	0.09238	-1.168373	-2.227748
H	-0.228018	-2.11355	-1.792111
H	1.181314	-1.102582	-2.183295
H	-0.231467	-1.103724	-3.271851
N	-1.93022	-0.039852	-1.462318
H	-2.259218	0.833437	-1.061974
H	-2.243096	-0.069319	-2.426581
N	-0.457256	-1.200815	0.69542
H	-1.439758	-1.115023	0.924679
H	0.074957	-1.306144	1.550812
Br	3.781243	0.0	0.0
