16

C	-0.400588	0.172077	-1.454876
C	0.0	0.0	0.0
F	-0.114058	-1.071993	-2.092773
H	1.096427	0.0	0.0
H	-0.384361	-0.954724	0.365844
C	-1.875746	0.416342	-1.687468
H	-2.189661	1.32582	-1.179732
H	-2.450215	-0.424876	-1.294699
H	-2.073378	0.500414	-2.761186
N	0.395588	1.215634	-2.006516
H	1.37868	1.027533	-1.815974
H	0.255392	1.280707	-3.007763
N	-0.552193	1.102102	0.808453
H	-0.175098	0.994956	1.744511
H	-0.124059	1.948799	0.443984
Br	3.725101	0.0	0.0
