16

C	-0.513256	0.042894	-1.42714
C	0.0	0.0	0.0
F	-1.920732	0.391134	-1.338001
H	1.094576	0.0	0.0
H	-0.32495	0.929852	0.48333
C	0.13878	1.138996	-2.23507
H	1.215817	0.967076	-2.26207
H	-0.262719	1.14665	-3.253098
H	-0.05884	2.111288	-1.778222
N	-0.3756	-1.222918	-2.038359
H	-0.919273	-1.266454	-2.8898
H	-0.682473	-1.923376	-1.372357
N	-0.489794	-1.197507	0.693963
H	-1.284748	-0.970623	1.275361
H	0.249835	-1.549056	1.286958
Br	3.72091	0.0	0.0
