16

C	-0.432231	-0.064878	-1.457378
C	0.0	0.0	0.0
F	-0.209675	-1.389551	-1.871368
H	1.09635	0.0	0.0
H	-0.329853	0.966475	0.399048
C	-1.902951	0.216615	-1.675904
H	-2.150983	0.033561	-2.72142
H	-2.490192	-0.434231	-1.027917
H	-2.133777	1.257585	-1.43236
N	0.396215	0.751501	-2.317637
H	1.36901	0.53569	-2.09574
H	0.261457	1.726566	-2.072873
N	-0.615287	-1.073327	0.790434
H	-0.164578	-1.935666	0.500168
H	-0.341166	-0.933326	1.755294
Br	3.708726	0.0	0.0
