16

C	-0.431079	-0.157398	-1.452105
C	0.0	0.0	0.0
F	-0.242629	-1.515012	-1.77258
H	1.100933	0.0	0.0
H	-0.322834	0.99345	0.334498
C	-1.895608	0.140415	-1.690151
H	-2.105669	1.197867	-1.51206
H	-2.15122	-0.107083	-2.721508
H	-2.493985	-0.454428	-1.002009
N	0.406848	0.584196	-2.361669
H	0.181108	1.567673	-2.289686
H	1.377387	0.477465	-2.064798
N	-0.622397	-1.014584	0.85923
H	-0.259202	-0.88006	1.79748
H	-0.25709	-1.908197	0.548599
Br	3.720839	0.0	0.0
