16

C	-0.44741	0.055129	-1.448882
C	0.0	0.0	0.0
F	0.032983	-1.096152	-2.066757
H	1.087648	0.0	0.0
H	-1.538467	0.02882	-1.542174
C	0.201194	1.24183	-2.128641
H	1.257448	1.23326	-1.847888
H	-0.249918	2.185413	-1.818576
H	0.090687	1.136039	-3.210452
N	-0.552326	-1.161937	0.735166
O	-0.177428	-1.281908	1.901155
O	-1.327853	-1.92781	0.160626
N	-0.522202	1.203203	0.699747
O	-1.659969	1.141898	1.177413
O	0.189989	2.204028	0.71512
F	2.512693	0.0	0.0
