16

C	-0.551074	0.014621	-1.418622
C	0.0	0.0	0.0
F	0.078726	1.039097	-2.12002
H	1.088837	0.0	0.0
H	-0.248906	-0.92533	-1.881647
C	-2.04494	0.234879	-1.534006
H	-2.303806	1.228169	-1.160177
H	-2.592372	-0.515946	-0.963834
H	-2.342427	0.175304	-2.583748
N	-0.393903	-1.228032	0.721594
O	-0.900856	-2.156856	0.081223
O	-0.109166	-1.283806	1.913224
N	-0.539669	1.162575	0.743356
O	-0.001539	2.241379	0.506878
O	-1.525898	1.012199	1.470358
F	2.471909	0.0	0.0
