16

C	-0.4589	0.074697	-1.45039
C	0.0	0.0	0.0
F	-0.340067	-1.232309	-1.95212
H	1.087852	0.0	0.0
H	-1.519482	0.338777	-1.522828
C	0.46237	0.97436	-2.24593
H	1.487916	0.73989	-1.952009
H	0.251795	2.020762	-2.017665
H	0.308334	0.802943	-3.312246
N	-0.599431	-1.215178	0.620587
O	0.139961	-2.142258	0.92002
O	-1.825118	-1.211176	0.754692
N	-0.482695	1.14572	0.795239
O	-0.360358	1.058834	2.013545
O	-0.944824	2.126401	0.206844
F	2.5261	0.0	0.0
