16

C	-0.406987	0.108715	-1.460275
C	0.0	0.0	0.0
F	0.028518	-1.057874	-2.084124
H	1.087667	0.0	0.0
H	-1.494534	0.144778	-1.584902
C	0.332505	1.266634	-2.095936
H	-0.074028	2.22992	-1.784415
H	0.255605	1.183373	-3.182345
H	1.37463	1.191083	-1.776267
N	-0.582026	-1.18005	0.679268
O	-0.181422	-1.388739	1.822831
O	-1.417445	-1.865658	0.088604
N	-0.519872	1.185803	0.7306
O	-1.648123	1.108236	1.227528
O	0.189322	2.188409	0.757335
F	2.52103	0.0	0.0
