14

C	-0.260451	0.150684	-1.509364
C	0.0	0.0	0.0
F	-1.44877	0.869747	-1.735967
H	1.094953	0.0	0.0
H	-0.482868	-0.845209	-1.913379
N	0.848274	0.786991	-2.12381
H	1.03222	0.38947	-3.033033
H	1.678284	0.682251	-1.524878
C	-0.587729	-1.200223	0.550698
N	-1.024616	-2.222898	0.931375
N	-0.417546	1.1981	0.767354
O	-1.029322	1.03099	1.824732
O	-0.075373	2.285571	0.317667
F	2.541301	0.0	0.0
