14

C	-0.421168	0.012733	-1.460073
C	0.0	0.0	0.0
F	0.06324	-1.182922	-2.019897
H	1.094332	0.0	0.0
H	0.08921	0.825922	-1.971631
N	-1.830226	0.123582	-1.623713
H	-2.068569	0.13995	-2.607717
H	-2.283879	-0.674805	-1.193643
C	-0.575532	-1.128241	0.697913
N	-1.042411	-2.088306	1.191279
N	-0.388801	1.268202	0.647887
O	-0.765327	1.243128	1.820868
O	-0.234087	2.295255	-0.012045
F	2.459288	0.0	0.0
