14

C	-0.147777	0.075905	-1.529971
C	0.0	0.0	0.0
F	-1.43172	0.464448	-1.893939
H	1.091594	0.0	0.0
H	-0.001718	-0.949382	-1.884772
N	0.817007	0.926383	-2.166367
H	0.616037	1.868001	-1.849875
H	1.70536	0.675661	-1.71337
C	-0.592331	-1.185639	0.574832
N	-1.045015	-2.196208	0.96933
N	-0.458702	1.210069	0.709201
O	-0.30323	2.295019	0.147103
O	-0.922597	1.080509	1.841767
F	2.515095	0.0	0.0
