14

C	-0.21157	-0.103319	-1.517073
C	0.0	0.0	0.0
F	-0.053491	1.220362	-2.015014
H	1.092293	0.0	0.0
H	-1.22319	-0.3909	-1.823918
N	0.781379	-0.992308	-1.968969
H	1.677489	-0.73808	-1.519966
H	0.844875	-1.01833	-2.977186
C	-0.563264	-1.138993	0.694491
N	-1.009186	-2.061109	1.271479
N	-0.639553	1.2461	0.515222
O	0.076785	2.101178	1.026552
O	-1.863279	1.332538	0.380054
F	2.571856	0.0	0.0
