14

C	-0.218807	-0.005576	-1.539282
C	0.0	0.0	0.0
F	-0.238768	1.328466	-1.93605
H	1.090393	0.0	0.0
H	-1.185618	-0.430622	-1.826191
N	0.860107	-0.680399	-2.163713
H	0.65318	-1.660822	-2.293929
H	1.708385	-0.555374	-1.58593
C	-0.526583	-1.227501	0.557757
N	-0.909663	-2.266321	0.95858
N	-0.65093	1.16936	0.635788
O	-1.864987	1.090681	0.855083
O	0.040204	2.15708	0.855977
F	2.570746	0.0	0.0
