11
Coordinates from ORCA-job run
  C   -0.55249661218343     -0.21346728440483     -0.27593703438292
  C   0.92714431392139     -0.19460390279859      0.18351683059885
  H   -0.58517749521102     -0.22885447723404     -1.37158672962362
  H   1.40955704912357     -1.12323081142550     -0.13258584434133
  H   0.97137164672155     -0.14579613492636      1.27430102477150
  C   -1.26143497336144      0.98454683530970      0.18819052981441
  N   -1.80830680931318      1.95261787900076      0.56472839731568
  C   -1.20974558258086     -1.42715266953324      0.22263402885493
  N   -1.69889084031046     -2.41617058248338      0.62322014435413
  C   1.63095986310090      0.94674798710854     -0.39552382622289
  N   2.17701944009297      1.86436316138695     -0.88195752113875
