11
Coordinates from ORCA-job run
  C   -0.48368425505031     -0.24203514353752      0.36890734412834
  C   0.86467930918279     -0.16986603783501     -0.39086905512799
  H   -0.28321894037110     -0.35306029094331      1.44102497690639
  H   1.39618649100942     -1.11662527332573     -0.26289147938340
  H   0.67629626200524     -0.03065476676902     -1.45830141310168
  C   -1.24329212462653     -1.41379091212997     -0.08218644070729
  N   -1.81540502797271     -2.36816558809052     -0.45611619327579
  C   -1.26384093585252      0.98493835177247      0.17210389769507
  N   -1.86759407099987      1.97763609415230      0.00457681727926
  C   1.68560692647114      0.92606189474610      0.11714261017795
  N   2.33426636620445      1.80456167196020      0.54660893540913
