11
Coordinates from ORCA-job run
  C   -0.58196340237092     -0.30009595249446     -0.41843092587777
  C   0.94155285661997     -0.03219735607411     -0.46627408404163
  H   -0.87044334120112     -0.78147528901398     -1.36061676701160
  H   1.46398961677620     -0.98238666420242     -0.60623248878534
  H   1.16196662023112      0.60677845253783     -1.32564131135529
  C   -1.33220674720005      0.95579282935969     -0.30271722607022
  N   -1.91134371694445      1.97490348612898     -0.23876885517621
  C   -0.91986163383434     -1.21355226800123      0.67927190969585
  N   -1.16146611381928     -1.96760926792887      1.54590033096664
  C   1.41644329808595      0.61135859828381      0.75591305912998
  N   1.79333256365693      1.12848343140474      1.73959635852559
