11
Coordinates from ORCA-job run
  C   -0.59671372369255     -0.32288942761371     -0.37596697447987
  C   0.91484805035647     -0.02519726583511     -0.52087108014895
  H   -0.92825006660121     -0.83834119665237     -1.28540721237474
  H   1.44817149763026     -0.96790718202632     -0.66997818254402
  H   1.07019519977329      0.59680482566920     -1.40649039987928
  C   -1.36959893953501      0.91857573956154     -0.25279831520536
  N   -1.97649503879324      1.92121260835838     -0.18523012441461
  C   -0.85109238783375     -1.20838094240300      0.76634011101580
  N   -1.03056052386878     -1.93384973495015      1.67154760854455
  C   1.44785913608235      0.65697899291070      0.65550840027652
  N   1.87163679648217      1.20399358298083      1.60334616920994
