16

C	0.0	0.0	0.0
C	-0.377552	-0.027881	-1.513294
Br	1.939327	0.0	0.0
H	0.489198	-0.430677	-2.047355
C	-0.469231	1.153073	0.749758
N	-0.5721	2.167428	1.339235
N	-0.362709	-1.283911	0.729869
O	-0.325399	-2.306602	0.060387
O	-0.538781	-1.206503	1.934991
C	-0.645097	1.397097	-2.004483
H	-1.556673	1.739531	-1.51994
H	-0.783517	1.385656	-3.088591
H	0.185327	2.063666	-1.761026
C	-1.500957	-0.887047	-1.899745
N	-2.213969	-1.564444	-2.546762
F	-2.260084	0.0	0.0
