16

C	0.0	0.0	0.0
C	-0.214045	0.222884	-1.567532
Br	1.968547	0.0	0.0
H	0.219444	1.22262	-1.704474
C	-0.50282	1.07992	0.823324
N	-0.612475	2.050019	1.481727
N	-0.430123	-1.35087	0.500758
O	-0.530258	-2.236567	-0.336383
O	-0.521961	-1.476543	1.712551
C	-1.576769	0.216236	-2.273531
H	-2.03631	-0.763856	-2.198864
H	-1.379903	0.456943	-3.327188
H	-2.247666	0.931204	-1.815933
C	0.633338	-0.678774	-2.370363
N	1.206376	-1.332053	-3.161984
F	-2.267848	0.0	0.0
