16

C	0.0	0.0	0.0
C	-0.204194	0.010249	-1.577969
Br	1.96688	0.0	0.0
H	0.329028	0.928994	-1.856134
C	-0.497076	1.191213	0.658016
N	-0.605094	2.24563	1.171627
N	-0.438933	-1.259021	0.700643
O	-0.57429	-2.25539	0.006976
O	-0.503356	-1.20197	1.919633
C	-1.559747	0.064004	-2.287489
H	-2.112922	-0.856165	-2.139584
H	-2.16109	0.874507	-1.894505
H	-1.342717	0.211726	-3.353181
C	0.55365	-1.074209	-2.225131
N	1.093629	-1.876097	-2.89434
F	-2.257588	0.0	0.0
