16

C	0.0	0.0	0.0
C	-0.508776	0.114483	-1.453244
Br	1.938581	0.0	0.0
H	-1.626871	0.075277	-1.195951
C	-0.433501	1.139968	0.803913
N	-0.586962	2.118295	1.438034
N	-0.444771	-1.275019	0.71309
O	-0.556589	-2.286862	0.038638
O	-0.546105	-1.202972	1.927395
C	-0.057595	-0.940918	-2.462673
H	-0.419699	-0.637897	-3.448365
H	-0.483153	-1.909276	-2.217416
H	1.031148	-1.027988	-2.515461
C	-0.160546	1.436756	-1.948969
N	0.09439	2.477435	-2.435767
F	-2.526061	0.0	0.0
