12

C	-0.434768	0.025501	-1.44627
C	0.0	0.0	0.0
F	-0.10913	1.22194	-2.001791
H	1.092983	0.0	0.0
H	-0.020796	-0.788147	-2.040487
H	-0.364755	0.907164	0.487531
N	-1.938805	-0.102407	-1.544662
O	-2.377719	-1.159871	-1.993874
O	-2.601978	0.848237	-1.140415
C	-0.513157	-1.179718	0.683954
N	-0.944768	-2.126596	1.227424
Br	3.439928	0.0	0.0
