12

C	-0.447716	0.021603	-1.44078
C	0.0	0.0	0.0
F	-0.054467	1.182044	-2.027178
H	1.093012	0.0	0.0
H	-0.096093	-0.829701	-2.0229
H	-0.353037	0.914292	0.483732
N	-1.959239	-0.011531	-1.517192
O	-2.55326	0.989741	-1.128388
O	-2.474292	-1.046412	-1.937814
C	-0.519332	-1.168431	0.697434
N	-0.958935	-2.104331	1.25316
Br	3.445596	0.0	0.0
