12

C	-0.453634	0.091998	-1.430752
C	0.0	0.0	0.0
F	-1.822191	0.133322	-1.537992
H	1.091708	0.0	0.0
H	-0.026421	0.935583	-1.969681
H	-0.357519	-0.935696	0.433643
N	-0.029178	-1.142879	-2.186862
O	-0.328854	-2.223446	-1.68757
O	0.522925	-0.968543	-3.269677
C	-0.513466	1.134361	0.756418
N	-0.947693	2.045296	1.355435
Br	3.435926	0.0	0.0
