12

C	-0.475881	0.078777	-1.426608
C	0.0	0.0	0.0
F	-1.837537	-0.056401	-1.523609
H	1.094314	0.0	0.0
H	-0.173904	1.011317	-1.901552
H	-0.317865	0.916266	0.50683
N	0.124204	-1.011789	-2.278083
O	-0.20505	-2.162925	-2.012068
O	0.869875	-0.651059	-3.184913
C	-0.534061	-1.144195	0.729953
N	-0.997494	-2.039067	1.330697
Br	3.453569	0.0	0.0
