12

C	-0.536952	-0.060079	-1.416984
C	0.0	0.0	0.0
F	-0.293119	-1.282088	-1.950822
H	1.092857	0.0	0.0
H	-1.607509	0.148178	-1.485784
H	-0.309337	-0.93227	0.483335
N	0.109374	0.986306	-2.2997
O	0.741771	0.62015	-3.275166
O	-0.124464	2.139604	-1.958845
C	-0.545934	1.114144	0.763159
N	-1.022275	1.972255	1.40673
Br	3.453446	0.0	0.0
