12

C	-0.447013	0.234903	-1.420959
C	0.0	0.0	0.0
F	-1.803538	0.409868	-1.518008
H	1.09176	0.0	0.0
H	0.065428	1.069274	-1.897026
H	-0.37228	-0.966296	0.350388
N	-0.122522	-0.984239	-2.249702
O	0.683986	-0.841306	-3.166135
O	-0.720485	-2.016617	-1.948965
C	-0.49722	1.064621	0.862186
N	-0.891475	1.923386	1.555531
Br	3.432389	0.0	0.0
