17

C	-0.583713	-0.021242	-1.409359
C	0.0	0.0	0.0
Br	0.224336	1.40664	-2.471686
H	1.09127	0.0	0.0
N	-0.145501	-1.321275	-2.082399
O	-0.892861	-1.771335	-2.952394
O	0.920313	-1.809262	-1.742838
C	-2.088376	0.08859	-1.477758
H	-2.442556	0.044089	-2.504576
H	-2.393433	1.032735	-1.025171
H	-2.513537	-0.744509	-0.913055
N	-0.431002	-1.232442	0.685983
H	-1.021231	-1.028634	1.482454
H	0.423898	-1.663845	1.019916
C	-0.459448	1.193459	0.691276
N	-0.859562	2.124922	1.289734
F	2.528632	0.0	0.0
