14

C	-0.474609	-0.012393	-1.43485
C	0.0	0.0	0.0
Br	-2.436411	-0.022934	-1.536789
H	1.091523	0.0	0.0
H	-0.376979	0.883412	0.506779
N	-0.055338	1.336832	-2.072884
O	0.272388	1.309283	-3.249564
O	-0.139782	2.320146	-1.353283
C	0.030407	-1.087114	-2.271768
N	0.434947	-1.947394	-2.963786
N	-0.47691	-1.177798	0.754224
O	-0.810783	-0.982947	1.921873
O	-0.482339	-2.266367	0.18331
Br	3.329778	0.0	0.0
