14

C	-0.523228	0.011951	-1.414994
C	0.0	0.0	0.0
Br	0.007529	-1.668634	-2.244462
H	1.089705	0.0	0.0
H	-0.355769	-0.880604	0.53071
N	-2.064391	0.007656	-1.434585
O	-2.609389	-0.551654	-0.493818
O	-2.611768	0.51351	-2.402824
C	-0.052892	1.109748	-2.243247
N	0.326049	1.986698	-2.927776
N	-0.494951	1.178953	0.754939
O	-0.278664	1.183585	1.958524
O	-1.086114	2.060317	0.128767
Br	3.365129	0.0	0.0
