15

C	-0.393975	0.009662	-1.471113
C	0.0	0.0	0.0
Br	-2.301087	0.018924	-1.8354
H	1.098347	0.0	0.0
H	0.011179	-0.86032	-1.988644
N	0.252729	1.20181	-2.15316
O	-0.418458	2.186863	-2.442978
O	1.462059	1.054699	-2.346249
N	-0.601209	-1.175191	0.637657
H	-0.223328	-2.015016	0.208768
H	-0.275283	-1.182798	1.598365
N	-0.451309	1.230018	0.59439
H	-1.43244	1.165224	0.855243
H	0.10592	1.437767	1.414679
F	2.559826	0.0	0.0
