15

C	-0.455582	-0.068707	-1.436415
C	0.0	0.0	0.0
Br	-2.389382	-0.280448	-1.681443
H	1.098358	0.0	0.0
H	0.010356	-0.90589	-1.952981
N	0.005809	1.152381	-2.184988
O	1.117675	1.039398	-2.696079
O	-0.697395	2.155057	-2.205727
N	-0.462302	-1.230151	0.692915
H	0.079903	-1.229374	1.556046
H	-0.08568	-2.021395	0.172445
N	-0.478486	1.185309	0.656331
H	-1.349184	0.994158	1.139636
H	0.225996	1.489519	1.315023
F	2.615813	0.0	0.0
