15

C	-0.672924	0.016351	-1.358274
C	0.0	0.0	0.0
Br	0.192136	1.233688	-2.590235
H	1.09602	0.0	0.0
H	-1.717364	0.318095	-1.288258
N	-0.709905	-1.330924	-2.024237
O	0.284388	-2.045425	-1.947892
O	-1.75144	-1.624393	-2.615635
N	-0.535551	-1.188544	0.715292
H	-0.245699	-1.048737	1.680138
H	0.027678	-1.974523	0.399261
N	-0.422808	1.224609	0.66006
H	0.350814	1.545355	1.227421
H	-1.232653	1.049249	1.245186
F	2.647539	0.0	0.0
