15

C	-0.668983	0.057311	-1.3606
C	0.0	0.0	0.0
Br	0.070101	1.431658	-2.509374
H	1.092841	0.0	0.0
H	-1.741569	0.241274	-1.301273
N	-0.552731	-1.260441	-2.068319
O	0.563815	-1.678248	-2.329898
O	-1.616005	-1.836148	-2.315835
N	-0.37702	-1.280807	0.602892
H	-1.156653	-1.186945	1.243891
H	0.434254	-1.604853	1.115931
N	-0.385998	1.208501	0.719359
H	-1.189699	1.045879	1.312368
H	0.398511	1.474995	1.296575
F	2.618889	0.0	0.0
