15

C	-0.422248	0.1296	-1.453584
C	0.0	0.0	0.0
Br	0.046283	-1.407698	-2.540783
H	1.098913	0.0	0.0
H	0.048177	0.997727	-1.903947
N	-1.901496	0.35312	-1.602777
O	-2.658032	-0.505612	-1.145717
O	-2.267833	1.401365	-2.130578
N	-0.433603	-1.201961	0.692372
H	-1.262628	-1.602762	0.275599
H	0.321828	-1.871622	0.633337
N	-0.472445	1.237728	0.633048
H	0.314708	1.587158	1.169075
H	-1.19374	0.984643	1.297296
F	2.62706	0.0	0.0
