15

C	-0.535957	-0.027224	-1.402716
C	0.0	0.0	0.0
Br	-2.501806	-0.191939	-1.476431
H	1.093928	0.0	0.0
H	-0.145364	-0.882329	-1.945064
N	-0.128436	1.189766	-2.185845
O	-0.807435	2.206461	-2.140636
O	0.924928	1.055305	-2.80677
N	-0.335652	-1.292492	0.603971
H	0.427851	-1.519248	1.231457
H	-1.19693	-1.23173	1.137625
N	-0.404128	1.206942	0.691553
H	-1.311639	1.112565	1.133561
H	0.297868	1.406293	1.392555
F	2.595502	0.0	0.0
