16

C	0.0	0.0	0.0
C	-0.258212	0.174626	-1.537408
Cl	1.803481	0.0	0.0
H	0.034191	1.213352	-1.741077
H	0.486448	-0.451368	-2.039351
C	-0.65477	1.065424	0.841251
H	-0.352164	2.053474	0.482687
H	-1.746255	0.882581	0.68713
H	-0.383062	0.960225	1.895133
C	-0.402539	-1.341225	0.435712
N	-0.614973	-2.442676	0.783296
C	-1.626516	-0.129428	-2.130708
H	-1.784029	-1.211226	-2.162942
H	-2.447915	0.253323	-1.508438
H	-1.632532	0.247219	-3.161294
F	-3.175309	0.0	0.0
