15

C	-0.614539	0.035881	-1.387076
C	0.0	0.0	0.0
Br	0.167244	1.457216	-2.425988
H	1.088181	0.0	0.0
H	-1.69052	0.192924	-1.363697
N	-0.417204	-1.251985	-2.137784
O	-1.236087	-1.487564	-3.022669
O	0.536685	-1.951932	-1.823739
N	-0.476644	-1.271282	0.681867
O	-1.571065	-1.723522	0.321454
O	0.188058	-1.694907	1.617991
N	-0.437886	1.138041	0.749266
H	-1.378699	1.028709	1.107842
H	0.213858	1.319563	1.501591
Br	3.465388	0.0	0.0
