15

C	-0.476777	-0.004938	-1.433768
C	0.0	0.0	0.0
Br	0.680987	-0.902318	-2.686452
H	1.092208	0.0	0.0
H	-0.537226	1.034207	-1.765103
N	-1.904834	-0.522472	-1.561595
O	-2.636977	-0.173748	-0.637177
O	-2.248598	-1.156884	-2.543938
N	-0.376919	-1.320803	0.653697
O	-0.562164	-2.306296	-0.065613
O	-0.292036	-1.348068	1.88301
N	-0.460047	1.129328	0.720323
H	0.020431	1.197961	1.608016
H	-1.459198	1.07436	0.876763
Br	2.749203	0.0	0.0
