15
Coordinates from ORCA-job run
  C   -0.53853940954756     -0.42017677333832      0.20578124131213
  C   0.83658929834429      0.24817548972104      0.41652273854882
  Br  -0.41835665798249     -2.26186756517887      0.98886963295267
  H   1.02497534340575      0.32908166138798      1.49295218007651
  N   -0.75817142291256     -0.59084997824917     -1.21142522468860
  H   -1.35905070904021     -1.38045773273494     -1.40433291377031
  H   -1.18190851791139      0.25749466062054     -1.57460290969027
  N   -1.54437144254732      0.36686103906768      0.82683582669940
  H   -2.45996853218248     -0.04638101344755      0.69741806670602
  H   -1.37722644728316      0.49045800020690      1.81869628882117
  C   0.74056239312967      1.61634792008874     -0.14185559299655
  N   0.73823024459734      2.68460754760574     -0.63175927790842
  N   1.88379399950493     -0.54434875369190     -0.18800616659239
  H   1.64427359465434     -0.69110920474479     -1.16244005227565
  H   2.76916826577087     -0.05683529731308     -0.13265383719453
