15
Coordinates from ORCA-job run
  C   -0.72541491337585     -0.00012153535794      0.15825459330747
  C   0.71504250737530      0.54130922525392      0.22696245617375
  Br  -1.93601260450605      1.44309603513706      0.86208272957832
  H   0.92968918090679      0.78415364106210      1.27900276664430
  N   -0.78396910132428     -1.16505029585648      0.99685941674473
  H   -1.64439127110146     -1.67404569326766      0.83304340216958
  H   -0.74970242047527     -0.91338417683028      1.97894754609696
  N   -1.06979279917800     -0.21732118806540     -1.20158761156015
  H   -1.99280259156388     -0.61540320720730     -1.31233647563369
  H   -0.35610692169949     -0.79781896717695     -1.62834640859786
  C   0.86661062891731      1.77484489456848     -0.54891435557746
  N   1.07374300160346      2.77032697354556     -1.13460836628288
  N   1.57944390831759     -0.49051152908235     -0.34388386878059
  H   2.52721415479410     -0.14676498433949     -0.43680014158569
  H   1.56844924130974     -1.29330919238326      0.27332431730320
