15
Coordinates from ORCA-job run
  C   -0.69401711900726     -0.12982877458505      0.11929970635769
  C   0.69103112194755      0.48179431334393      0.39215945565102
  Br  -2.01454710141194      1.35433290677842      0.83602672906462
  H   0.70810041122334      0.84992046666000      1.42145643296867
  N   -0.87360338416661     -1.33026778647332      0.82782187568132
  H   -0.32714980762202     -1.36717133657483      1.67615088200226
  H   -1.84723287621460     -1.52274244659473      1.01845830693872
  N   -0.89658340420671     -0.32084303638982     -1.26412572717868
  H   -1.07173999598345      0.54382608720565     -1.75986524806064
  H   -1.63133618667724     -0.99092585212671     -1.44817253810961
  C   0.90056483744278      1.63497628728250     -0.50491843208749
  N   1.14286530270836      2.51742103942246     -1.24165415792752
  N   1.68963854964064     -0.56727424700395      0.25331727158671
  H   1.60367668168024     -0.97750203298231     -0.67035658092538
  H   2.61933297064696     -0.17471558796223      0.34540202403832
