15
Coordinates from ORCA-job run
  C   -0.62360753441226     -0.26970038237020      0.14676679577734
  C   0.75208661604964      0.40307838121937      0.23845395554266
  Br  -0.08280341455190     -2.25395833454122      1.16388420102263
  H   1.04432773586011      0.41556853503347      1.29639329381696
  N   -0.98493763350337     -0.51102866545946     -1.14526908761187
  H   -0.19369855061286     -0.80883077905950     -1.70312354001763
  H   -1.81337289350838     -1.07150865761705     -1.27942089103099
  N   -1.58201246076999      0.31534796236510      0.95258544934284
  H   -2.51445042155967     -0.04900110552646      0.81067289214886
  H   -1.33678524366214      0.28274496179899      1.93209323748504
  C   0.61472707637135      1.79527384182797     -0.21551267877791
  N   0.55865780838719      2.91355330197860     -0.56784199447673
  N   1.68673258337689     -0.29271430752712     -0.63604793020132
  H   2.49978010197164      0.28288903175749     -0.81482380412018
  H   1.97635623056376     -1.15071378387998     -0.17980989889969
