15
Coordinates from ORCA-job run
  C   -0.64575415349144     -0.21584084698603      0.14262113670634
  C   0.77798909013022      0.34667913221386      0.24046390085024
  Br  -0.27795569280565     -2.21445003052702      1.20873031613568
  H   1.05689967452425      0.35727871879519      1.30214726592255
  N   -1.00847046896783     -0.45672120572244     -1.14911474339460
  H   -0.23627893386065     -0.83008578696434     -1.68789278774332
  H   -1.87678759163198     -0.95333074087719     -1.28302850774028
  N   -1.56425477796787      0.46148039085147      0.92183831838267
  H   -1.33334222059940      0.43431732296005      1.90501640320161
  H   -2.52087204107599      0.16818650045473      0.77622067240015
  C   0.75942446026569      1.73572900629461     -0.24208227867027
  N   0.79890938454676      2.84768513952189     -0.61598564689383
  N   1.66593505380575     -0.43906770477064     -0.60635795293484
  H   2.52467629032656      0.06626495207343     -0.78394059104656
  H   1.87988192680158     -1.30812484731758     -0.12963550517555
