15
Coordinates from ORCA-job run
  C   -0.63930404397308     -0.17640367008631      0.15143448472873
  C   0.68929105982494      0.60490199490777      0.18630186129476
  Br  -2.05940611964477      1.25488211068482      0.77398585584315
  H   0.78639063049997      1.00679863299237      1.20499409301652
  N   -0.59933595914411     -1.22047632489629      1.11200603071212
  H   -1.26182355236890     -1.95307540754183      0.89295308043280
  H   -0.76989009689415     -0.87636188690062      2.04755996762321
  N   -0.93197272184518     -0.67146873885223     -1.12133050019691
  H   -0.69818028606063     -0.02196921302542     -1.86003141149092
  H   -1.89408753888903     -0.96937719480075     -1.21242603778038
  C   0.65068467813022      1.74281247830733     -0.74212075274742
  N   0.66683681478040      2.62560461995205     -1.51583876045491
  N   1.75868708756373     -0.29696210324524     -0.22273187135417
  H   1.64533940124239     -1.16008808729093      0.29679441151182
  H   2.65677064677819      0.11118278979527      0.00744954886158
