15
Coordinates from ORCA-job run
  C   -0.64573771130217     -0.21645112346684      0.13984951978024
  C   0.77611890179942      0.35019511859016      0.24438361982424
  Br  -0.27840133575307     -2.21254355937230      1.21422857768732
  H   1.04865439362310      0.36614342308432      1.30753269295395
  N   -1.00025402896630     -0.46197150917737     -1.15331749864049
  H   -0.22329317373086     -0.83302298765758     -1.68690167224988
  H   -1.86521633717013     -0.96323691447795     -1.29070202619515
  N   -1.57067461057863      0.45954560464640      0.91195938706989
  H   -2.52606403522742      0.16741017227454      0.75824167797478
  H   -1.34758764404425      0.43398716158733      1.89691886566339
  C   0.75585685451513      1.73711805715843     -0.24456350242210
  N   0.79367003546121      2.84703689032796     -0.62455139031848
  N   1.67029966278826     -0.43724489560572     -0.59392576232476
  H   2.52991739203640      0.06820957582105     -0.76684319131627
  H   1.88171018734430     -1.30416906749640     -0.11225935935960
