12
Coordinates from ORCA-job run
  C   -0.72651419284438     -0.85917822691719      0.45260687055835
  C   0.13891232988448      0.03779210489831     -0.42838769697693
  Br  -2.52570328594251     -0.94493324261727     -0.26138628212084
  H   0.20951632502067     -0.36983405197425     -1.43629147183157
  H   -0.78788731360490     -0.45300984994715      1.46227146792566
  H   -0.33789360804813     -1.87785618849277      0.48001046085117
  N   1.52983620194689     -0.07856322773474      0.15001429449804
  O   2.34634112222327     -0.76561150966447     -0.45548160367045
  O   1.71450203435239      0.50399397717551      1.21541518223639
  N   -0.18603610826964      1.42818934759578     -0.48677578034491
  H   -0.41812765624980      1.79051443352415      0.42897118828931
  H   -0.95694584846835      1.58649643415411     -1.11996662941421
