12
Coordinates from ORCA-job run
  C   -0.80834215539652     -0.87300223870584      0.49032456216247
  C   0.11440366641916      0.00332311357422     -0.32730914901371
  Br  -2.55110625953115     -0.95832193853240     -0.36870799170095
  H   0.22314240334924     -0.39581470382160     -1.34503309795903
  H   -0.94548368670991     -0.45393498684520      1.48477434038647
  H   -0.43385582074403     -1.89060535525412      0.55611404070855
  N   1.51774245865883     -0.07690245758274      0.24106820261978
  O   1.71596535430622     -0.74872403267984      1.24891129092195
  O   2.36054044876628      0.56807365809925     -0.37402608904723
  N   -0.25025892514284      1.39247423857759     -0.24324170109569
  H   0.29048032520360      1.93343195692579     -0.90605571713132
  H   -1.23322780917888      1.50100274624488     -0.45781869085129
