12
Coordinates from ORCA-job run
  C   -0.72411804926860     -0.93033414677126      0.49909406986957
  C   -0.01502101623776      0.03796684192353     -0.43362664264227
  Br  -2.52770416889157     -1.28406796264253     -0.09784792504970
  H   0.02214802701860     -0.36192547917799     -1.44754838161460
  H   -0.19731818005686     -1.88238069079548      0.52433903555930
  H   -0.78279155876047     -0.51082624857078      1.50508404456599
  N   1.45992989800359     -0.01208862063128      0.03361888996577
  O   2.12587726834508     -0.96674587527349     -0.35531532201099
  O   1.84064317067643      0.88013957669737      0.78656423709144
  N   -0.56937846883672      1.33322924738233     -0.41595789909480
  H   -0.13566166871143      1.94044941095524     -1.09720489996335
  H   -0.49760525328028      1.75658394690436      0.49980079332365
