12
Coordinates from ORCA-job run
  C   -0.98880763535126     -0.74388448793757      0.42244863655718
  C   0.01380069419315     -0.02152522441822     -0.45195510383177
  Br  -0.45924151412639     -2.57426286205493      0.76450529798643
  H   0.19844346570870     -0.55788376268368     -1.38238986204852
  H   -1.94896615644576     -0.76033563206062     -0.08867997352732
  H   -1.07861244952033     -0.24357502739347      1.38625715757898
  N   1.36125895940236     -0.02224452318144      0.26420721848114
  O   1.38625030700195      0.54180124207871      1.35646507702802
  O   2.31604886103270     -0.53872973870461     -0.30795405703054
  N   -0.45115911586295      1.30123812614614     -0.71271079734595
  H   -0.48032256948484      1.84487859875041      0.14125679950347
  H   0.13130715345266      1.77452329145927     -1.39145039335113
