12
Coordinates from ORCA-job run
  C   -0.87394140012178     -0.91378069775926      0.18421162123371
  C   0.17795391065308      0.01186592978246     -0.39470316968534
  Br  -1.65137810705998     -0.20197817281995      1.81651282238996
  H   0.53082884197091     -0.42649309004918     -1.33594132239656
  H   -0.45752747977448     -1.88475934427322      0.43288944947085
  H   -1.68762383652001     -1.01462723638443     -0.53309198909798
  N   1.46421781441476     -0.06020585144401      0.47806928452408
  O   2.27061976219007      0.84555317761075      0.33037099181529
  O   1.61532900401394     -1.05382023312169      1.18507880853162
  N   -0.21068507640375      1.35082370554365     -0.57407973652591
  H   -0.13630415110853      1.71452567784059     -1.50579476740587
  H   -1.04148928225425      1.63289613507430     -0.08252199285387
