12
Coordinates from ORCA-job run
  C   -0.80317185055593     -1.01773327816437      0.01382140564370
  C   0.13408817453591      0.10849422435127     -0.36614305213856
  Br  -1.44765242553405     -0.86815671009568      1.83260755388354
  H   0.48332292134386     -0.09951637720905     -1.39138196305162
  H   -0.28831552781412     -1.97038455173449     -0.07181707767099
  H   -1.67250765811538     -1.00867184837257     -0.64508022314866
  N   1.42729745583013     -0.01069419156151      0.43544862146915
  O   1.88557550607940     -1.14223030023964      0.55804545221152
  O   1.95010930878472      1.02619631034933      0.82151835786885
  N   -0.42520708575436      1.40008313115248     -0.14563898501823
  H   -1.37667374946507      1.45003992028084     -0.48081152595712
  H   0.13313493066490      2.13257367124340     -0.55856856409159
