12
Coordinates from ORCA-job run
  C   -0.81248799351863     -1.04240990159034      0.13586417111863
  C   0.03958904358751      0.04278904239385     -0.48950450185762
  Br  -1.24642555735095     -0.63536067365189      1.98565863481359
  H   0.31122412042479     -0.28216892660647     -1.49882166999317
  H   -0.28682790417796     -1.99356201647140      0.13309936866494
  H   -1.75301165607175     -1.11205416037588     -0.40711216439137
  N   1.39961209421396      0.03886918366769      0.24650439091863
  O   2.02042641543095     -1.01908176107578      0.22069597410322
  O   1.76189599475434      1.07979922733543      0.78278137576026
  N   -0.59568897290332      1.30154593799627     -0.52989472431576
  H   -0.01608794287331      1.99535563518473     -0.98160753294704
  H   -0.82321764151563      1.62527841319380      0.40133667812570
