12
Coordinates from ORCA-job run
  C   -0.78647112587659     -0.96078682887749      0.11379114496894
  C   0.16099327178355      0.09096875689883     -0.45973691316656
  Br  -1.28998205057627     -0.56640320507184      1.94513566483625
  H   0.41597412849168     -0.22660521456436     -1.47474221865084
  H   -1.70504378680848     -0.97503448625808     -0.47281727089916
  H   -0.32033886979243     -1.94490841332509      0.10661785279933
  N   1.46376802291332     -0.03114056693571      0.30793311620128
  O   2.09030893196342     -1.07129211660788      0.11843096113417
  O   1.76576859585917      0.86931047214797      1.07900724576735
  N   -0.24839310910942      1.45389107392374     -0.47918284551440
  H   -0.60883525937674      1.75030269004401      0.41809733484472
  H   -0.93674874947121      1.61269783862590     -1.20153407232107
