17

C	0.0	0.0	0.0
C	-0.458846	-0.003958	-1.460346
Cl	1.810099	0.0	0.0
H	-0.009564	-0.865414	-1.969796
H	-1.546748	-0.153915	-1.385219
N	-0.508157	1.100711	0.7805
H	-1.535375	0.95751	0.743882
H	-0.315342	1.970645	0.295077
C	-0.446458	-1.285191	0.673142
H	-1.544137	-1.282338	0.645099
H	-0.053698	-2.156949	0.143301
H	-0.097551	-1.296227	1.708026
C	-0.173787	1.274455	-2.236289
H	-0.456328	1.149329	-3.286153
H	-0.765583	2.10552	-1.845652
H	0.884295	1.548912	-2.199043
H	-3.224686	0.0	0.0
