17

C	0.0	0.0	0.0
C	-0.500817	0.014679	-1.431813
Cl	1.866419	0.0	0.0
H	-0.097201	0.907068	-1.927086
H	-1.592318	0.134652	-1.311019
N	-0.424225	1.187231	0.646049
H	-0.106222	1.229405	1.604374
H	-0.128785	2.013804	0.144963
C	-0.487839	-1.197701	0.778788
H	-1.58728	-1.154207	0.717636
H	-0.102186	-2.130606	0.365288
H	-0.170075	-1.127402	1.823674
C	-0.178392	-1.231189	-2.245055
H	-0.449365	-1.075466	-3.293108
H	0.885277	-1.480988	-2.203107
H	-0.755953	-2.084958	-1.886134
H	-3.589417	0.0	0.0
