15

C	-0.541771	0.013923	-1.416886
C	0.0	0.0	0.0
F	-1.976538	-0.039965	-1.32933
H	1.092852	0.0	0.0
H	-0.341128	0.919822	0.482237
C	-0.297839	1.305444	-2.099274
N	-0.135484	2.339748	-2.629185
N	-0.045697	-1.034161	-2.214371
H	-0.577425	-1.149901	-3.065348
H	0.035038	-1.899508	-1.704153
C	-0.49176	-1.20926	0.795896
H	-0.173528	-1.09805	1.834265
H	-0.041733	-2.139717	0.439743
H	-1.578683	-1.306282	0.768919
Cl	3.518264	0.0	0.0
