15

C	-0.515429	-0.034285	-1.423659
C	0.0	0.0	0.0
F	-0.089752	1.085822	-2.120539
H	1.093417	0.0	0.0
H	-0.313639	-0.930545	0.489957
C	0.014344	-1.210115	-2.16914
N	0.292642	-2.181229	-2.768469
N	-1.959773	-0.009883	-1.461105
H	-2.291633	-0.242619	-2.389405
H	-2.326521	-0.688839	-0.806657
C	-0.504681	1.22035	0.763767
H	-0.029939	1.24417	1.747141
H	-1.589623	1.225078	0.891343
H	-0.217344	2.13054	0.235708
Cl	3.511879	0.0	0.0
