9
Coordinates from ORCA-job run
  C   0.27803017005637      0.01794684939883      0.44945296282902
  C   -0.71116015786525      0.08522829105900     -0.45034262455840
  H   0.20135311227683      0.23327030580655      1.50746839005939
  H   -0.51597948627698     -0.15575957147938     -1.49086771030062
  N   1.62169445907879     -0.37942075160472      0.03039382321367
  O   1.81287693367465     -0.64546447280806     -1.15181098301503
  O   2.46226731410539     -0.41114709387236      0.92942036844232
  C   -2.02811572734160      0.47002194669762     -0.06370805328041
  N   -3.11996661770821      0.78532449680252      0.24099382661005
