9
Coordinates from ORCA-job run
  C   0.19580480256825     -0.44390991498269      0.20986818641045
  C   -0.63544734952611      0.51975987436111     -0.20613602028736
  H   -0.08233204121157     -1.36182817748952      0.71148110804508
  H   -0.24005648646828      1.40167375784407     -0.70078842470493
  N   1.63662358760382     -0.30778503901256     -0.00188965444247
  O   2.31774936847788     -1.24371103879561      0.41743577236601
  O   2.05431119176938      0.69854102495409     -0.56556016027103
  C   -2.04295174632813      0.40799448925459     -0.01002845648914
  N   -3.20670132688523      0.32926502386651      0.14461764937339
