9
Coordinates from ORCA-job run
  C   0.28559406304353      0.07686475422199      0.43836792395864
  C   -0.72076302720728      0.01848487951595     -0.44282862822007
  H   0.22438329953766      0.41778866255381      1.46380768642719
  H   -0.53982605305684     -0.34327971642314     -1.45038598188189
  N   1.62853735598757     -0.34712484534170      0.04319273438048
  O   2.48492161993825     -0.25956649080096      0.92335635000441
  O   1.80375102964815     -0.74836708377362     -1.10273118745688
  C   -2.03744704037658      0.42606732565008     -0.07926375809280
  N   -3.12915124751445      0.75913251439760      0.20648486088093
