9
Coordinates from ORCA-job run
  C   0.32612500826291      0.16252137201152      0.38286874498360
  C   -0.75818046446548     -0.05358662409602     -0.37228448793271
  H   0.36702399238217      0.73162124120885      1.30266616865101
  H   -0.67855238724096     -0.64340894146766     -1.28034135641033
  N   1.61782055202153     -0.39566390147658     -0.01614892388081
  O   2.55433486144161     -0.14064315189074      0.74127724330188
  O   1.67744574652716     -1.05890566687116     -1.04644273357466
  C   -2.02692654900667      0.48081091027223     -0.00261631022092
  N   -3.08009075992227      0.91625476230957      0.29002165508296
