9
Coordinates from ORCA-job run
  C   0.31281189710499     -0.11051926974479      0.41166016709576
  C   -0.74058521481785      0.21600476343162     -0.34757303692509
  H   0.32717684525498     -0.19334494333808      1.49076781933599
  H   -0.63673189361103      0.26831304091935     -1.42707327951166
  N   1.60369013185473     -0.39705651509824     -0.21323204721534
  O   2.51005313791544     -0.68780647072702      0.56765846126445
  O   1.69186406624351     -0.32987209366331     -1.43499090915220
  C   -2.00779000541148      0.49877097155715      0.24090019188735
  N   -3.05948896453328      0.73451051666331      0.71288263322074
