9
Coordinates from ORCA-job run
  C   0.29214821583671      0.08588308510048      0.43362282680529
  C   -0.72473384550681      0.01942651678209     -0.43471998962906
  H   0.25141401044428      0.46903038874909      1.44509523029470
  H   -0.56390638888808     -0.38632689151386     -1.42889029707718
  N   1.61926682876999     -0.38735377231050      0.04135674295841
  O   1.76906953278417     -0.84488850016807     -1.08690272926868
  O   2.48983116835996     -0.27929955945008      0.90491754495533
  C   -2.02685625549705      0.47457972275344     -0.07610558233964
  N   -3.10723326630316      0.84794901005742      0.20262625330083
