9
Coordinates from ORCA-job run
  C   0.29580548828210     -0.65308337601777      0.40848852871649
  C   -0.95610317151241     -0.17328292648097      0.38224033688802
  H   0.58561695232920     -1.52437376234945      0.98086518810684
  H   -1.69860152146742     -0.70252744737975      0.97311989428624
  N   1.41482824481158     -0.06782258728634     -0.32378860893456
  O   2.49128464554932     -0.64829963247419     -0.17662055229809
  O   1.21290973959665      0.92784818792678     -1.01160231060057
  C   -1.42326823283209      0.96373474049928     -0.34139814098834
  N   -1.92247214475693      1.87680680356241     -0.89030433517602
