9
Coordinates from ORCA-job run
  C   0.29927016134738     -0.56697869472239      0.51914325128713
  C   -0.96030871161038     -0.39887799212535      0.09073381178024
  H   0.59243748807383     -1.34895800969746      1.20707404424780
  H   -1.70515729843637     -1.09453773664610      0.46721614982925
  N   1.42238834783546      0.27402532993205      0.11649500263638
  O   2.50548873184924     -0.03267102882407      0.61674607125431
  O   1.21707367340448      1.19686876978404     -0.66540103601524
  C   -1.43292811490181      0.60042272217330     -0.81083399122441
  N   -1.93726427756183      1.37270664012599     -1.54117330379547
