9
Coordinates from ORCA-job run
  C   0.30471417686714     -0.73723766725563      0.21032462802994
  C   -0.97641326475774     -0.35701034395006      0.09891154318945
  H   0.60429991009051     -1.73708532076433      0.49541751110570
  H   -1.73291691464579     -1.10757396122262      0.31071458805365
  N   1.44560860153756      0.13925599284943     -0.03617965998472
  O   2.54798595273402     -0.38875951533817      0.11700912744696
  O   1.23517768398684      1.30159271598456     -0.36772496968174
  C   -1.45836667701687      0.93403889276617     -0.26938504442653
  N   -1.97208946879565      1.95177920693065     -0.56008772373271
