9
Coordinates from ORCA-job run
  C   0.24155216198133     -0.36888346736674      0.29113524139076
  C   -0.67768153435914      0.44638461519226     -0.24088980378475
  H   0.07521430009360     -1.10940519125425      1.06290212528411
  H   -0.39407444302078      1.15325725876407     -1.01461826168197
  N   1.62828669984871     -0.30688441659944     -0.16995226870358
  O   2.39828171425929     -1.09444226906930      0.38011993685337
  O   1.91958178485961      0.50075263461823     -1.04618504155187
  C   -2.03447098350855      0.40249347056579      0.19398561059482
  N   -3.15768970015408      0.37772736514937      0.54350246159911
