9
Coordinates from ORCA-job run
  C   0.26532825247716     -0.55531792825471      0.54918613083472
  C   -0.97558886395370     -0.36451714627009      0.07815403266515
  H   0.51314316783829     -1.31663868713085      1.27701970448926
  H   -1.75294823931460     -1.02022376722500      0.46014802622287
  N   1.42661166196908      0.23249116802391      0.14701580570963
  O   2.48298491941051     -0.08445202075893      0.69571267366599
  O   1.27578560727417      1.12405050702374     -0.68205954035598
  C   -1.38964414839823      0.61230791533849     -0.87548353451431
  N   -1.84667235730267      1.37129995925343     -1.64969329871732
