9
Coordinates from ORCA-job run
  C   0.37428102819025     -0.08515290086146      0.73001926924698
  C   -0.91215366446386      0.19125638078454      0.47117873704326
  H   0.77088726663913     -0.17746815392084      1.73247064761300
  H   -1.56778062756364      0.32559333176504      1.32710278222699
  N   1.39148816476233     -0.29519569687615     -0.29566735125612
  O   2.51953161543716     -0.53910319424972      0.13504631193381
  O   1.06393569025331     -0.21647902190533     -1.47536603537501
  C   -1.51741829831343      0.32974522714066     -0.81293635513145
  N   -2.12377117494126      0.46680402812326     -1.81184800630147
