9
Coordinates from ORCA-job run
  C   0.35595080213438      0.16252688833712      0.35535199245312
  C   -0.78786821568643     -0.06792739564190     -0.30129958363848
  H   0.46514502416540      0.70190555898266      1.28748617033843
  H   -0.77595184115998     -0.62406525680190     -1.23371203100615
  N   1.62127138097438     -0.33587482785685     -0.18301112509216
  O   1.60425696068881     -0.95977245666023     -1.23902577597968
  O   2.61636679439891     -0.07596005891316      0.49369770540981
  C   -2.03241912739825      0.40700914138929      0.20591879658205
  N   -3.06675177811723      0.79215840716497      0.61359385093305
