16

C	-0.320047	0.060441	-1.504627
C	0.0	0.0	0.0
Cl	0.000336	-1.597532	-2.236529
H	1.102637	0.0	0.0
C	-1.734117	0.329977	-1.798406
N	-2.860833	0.566563	-2.032857
N	0.520529	1.071828	-2.048919
H	1.474635	0.89998	-1.707847
H	0.502667	1.066724	-3.061062
N	-0.55769	-1.146079	0.667079
H	-1.262877	-0.822445	1.315477
H	0.179583	-1.624911	1.169216
N	-0.50124	1.243526	0.609435
H	-0.309299	2.001194	-0.039927
H	0.113083	1.414573	1.403272
H	2.895319	0.0	0.0
