16

C	-0.631742	-0.016667	-1.392321
C	0.0	0.0	0.0
Cl	0.11228	1.37428	-2.383024
H	1.096556	0.0	0.0
C	-0.303082	-1.23465	-2.138011
N	-0.114823	-2.185814	-2.8003
N	-2.041186	0.118091	-1.278287
H	-2.211831	0.901108	-0.654241
H	-2.477497	0.263307	-2.179672
N	-0.41084	-1.206388	0.670096
H	0.301631	-1.464757	1.342267
H	-1.317462	-1.108725	1.108762
N	-0.4923	1.225995	0.67695
H	-0.239162	1.101437	1.652359
H	0.102907	1.98534	0.349391
H	2.858267	0.0	0.0
