16

C	-0.313218	-0.050265	-1.49938
C	0.0	0.0	0.0
Cl	-2.047601	-0.558578	-1.816494
H	1.103737	0.0	0.0
C	-0.222096	1.298907	-2.097694
N	-0.088431	2.356438	-2.597926
N	0.588489	-0.986301	-2.097976
H	0.665943	-0.832547	-3.095374
H	1.506471	-0.86717	-1.655341
N	-0.417738	-1.214135	0.643249
H	-1.308943	-1.074615	1.097618
H	0.287772	-1.490052	1.313194
N	-0.591659	1.18482	0.630511
H	-0.148142	2.011767	0.236671
H	-0.276895	1.152068	1.5972
H	2.850607	0.0	0.0
