16

C	-0.398336	0.040409	-1.481083
C	0.0	0.0	0.0
Cl	-0.081919	-1.563161	-2.25707
H	1.102079	0.0	0.0
C	-1.835347	0.31444	-1.63691
N	-2.978241	0.565644	-1.74013
N	0.380117	1.029704	-2.19699
H	1.355378	0.805682	-1.974343
H	0.190158	1.902019	-1.707398
N	-0.619782	-1.102652	0.732828
H	-0.146058	-1.130021	1.632868
H	-0.365354	-1.970081	0.271499
N	-0.395814	1.282602	0.558754
H	-1.266956	1.171229	1.065388
H	0.333261	1.595232	1.190516
H	2.899822	0.0	0.0
