16

C	-0.354279	0.082184	-1.499651
C	0.0	0.0	0.0
Cl	-0.1674	-1.632091	-2.242422
H	1.094349	0.0	0.0
C	-1.773295	0.397759	-1.714443
N	-2.914581	0.659323	-1.819365
N	0.515321	1.013862	-2.090755
H	1.461133	0.861657	-1.727042
H	0.495322	0.982047	-3.100812
N	-0.580721	-1.177759	0.642717
H	-0.795522	-0.906848	1.59396
H	0.152917	-1.878399	0.703658
N	-0.419693	1.246453	0.607293
H	0.237547	1.476819	1.343416
H	-1.353655	1.171495	0.993583
H	2.873673	0.0	0.0
