13

C	-0.384871	0.109908	-1.460756
C	0.0	0.0	0.0
Cl	-0.24485	-1.600744	-2.264568
H	1.101786	0.0	0.0
H	-1.441141	0.323455	-1.633206
H	-0.329772	0.939856	0.458172
N	0.461716	1.059524	-2.059197
H	1.430104	0.885705	-1.783205
H	0.371962	1.08823	-3.064973
N	-0.649154	-1.110493	0.703218
H	-0.22218	-1.963446	0.357532
H	-0.356623	-1.039704	1.672364
H	3.077859	0.0	0.0
