13

C	-0.590438	0.003463	-1.388862
C	0.0	0.0	0.0
Cl	-0.0435	1.550242	-2.269278
H	1.09619	0.0	0.0
H	-0.152575	-0.783769	-2.002965
H	-0.338623	-0.937997	0.455559
N	-2.006389	-0.095345	-1.333474
H	-2.320918	0.585565	-0.648495
H	-2.429318	0.100116	-2.232863
N	-0.581849	1.119634	0.769853
H	-0.424181	0.917874	1.750928
H	-0.002852	1.929535	0.567744
H	3.100201	0.0	0.0
