13

C	-0.565332	0.02234	-1.411523
C	0.0	0.0	0.0
Cl	-0.313331	1.648003	-2.13197
H	1.097598	0.0	0.0
H	0.003085	-0.67236	-2.032884
H	-0.377098	0.865412	0.558112
N	-1.978882	-0.311395	-1.525813
H	-2.06015	-1.173976	-0.991747
H	-2.495418	0.395266	-1.008952
N	-0.418798	-1.280353	0.618905
H	-0.912204	-1.102166	1.483119
H	0.4377	-1.765088	0.867408
H	3.000666	0.0	0.0
