13

C	-0.420477	0.085006	-1.457393
C	0.0	0.0	0.0
Cl	-0.296362	-1.549535	-2.236849
H	1.10218	0.0	0.0
H	-1.473482	0.35711	-1.573929
H	-0.315964	0.955621	0.443152
N	0.413494	1.000666	-2.205194
H	0.182301	1.941121	-1.901204
H	1.378184	0.827548	-1.912058
N	-0.650312	-1.081185	0.750372
H	-0.330628	-0.994219	1.709905
H	-0.243341	-1.948734	0.415676
H	3.08622	0.0	0.0
