18

C	-0.347564	-0.021869	-1.49007
C	0.0	0.0	0.0
Cl	-0.06382	1.586831	-2.206311
H	1.097181	0.0	0.0
C	0.473469	-1.046184	-2.240561
H	1.523146	-0.875518	-1.988598
H	0.187994	-2.054725	-1.937408
H	0.313197	-0.951106	-3.312465
N	-1.840445	-0.285383	-1.70909
O	-2.618849	0.153411	-0.867706
O	-2.166176	-0.896705	-2.724282
C	-0.426004	-1.273068	0.741714
H	-1.511278	-1.376421	0.795335
H	0.01109	-2.153145	0.268926
H	-0.027383	-1.223099	1.756213
C	-0.487785	1.178784	0.707208
N	-0.884596	2.076312	1.352255
Cl	3.308294	0.0	0.0
