18

C	-0.404721	0.347919	-1.440852
C	0.0	0.0	0.0
Cl	-2.168153	0.634068	-1.580434
H	1.105921	0.0	0.0
C	0.357616	1.547798	-1.952625
H	1.425841	1.371373	-1.810562
H	0.056662	2.42348	-1.375784
H	0.139077	1.720675	-3.007485
N	-0.092332	-0.869782	-2.319397
O	0.956813	-0.83108	-2.95287
O	-0.882498	-1.808594	-2.300293
C	-0.500503	-1.337209	0.54363
H	-0.018299	-2.159852	0.017303
H	-1.583875	-1.434877	0.450434
H	-0.220946	-1.405884	1.596223
C	-0.431199	1.093876	0.866208
N	-0.792039	1.949188	1.586857
Cl	3.286409	0.0	0.0
