18

C	-0.545405	-0.006762	-1.429561
C	0.0	0.0	0.0
Cl	0.20677	-1.334123	-2.348036
H	1.108164	0.0	0.0
C	-2.052178	-0.10982	-1.532291
H	-2.353496	-0.079695	-2.576924
H	-2.514699	0.724276	-0.997755
H	-2.385298	-1.04913	-1.091312
N	-0.121973	1.281391	-2.158317
O	0.702483	2.003534	-1.613978
O	-0.647041	1.479749	-3.251439
C	-0.40498	-1.25309	0.790822
H	-0.076558	-2.14849	0.262569
H	0.117669	-1.22535	1.748473
H	-1.479968	-1.307371	0.980799
C	-0.509771	1.177196	0.698699
N	-0.995346	2.071628	1.286704
Cl	3.310166	0.0	0.0
