18

C	-0.339577	-0.055751	-1.490124
C	0.0	0.0	0.0
Cl	0.004672	1.522383	-2.246043
H	1.091662	0.0	0.0
C	0.451408	-1.129665	-2.203527
H	1.503934	-0.997005	-1.937975
H	0.117372	-2.118963	-1.884041
H	0.312179	-1.051376	-3.27957
N	-1.837168	-0.276373	-1.724065
O	-2.611661	0.114569	-0.854848
O	-2.168089	-0.80424	-2.783514
C	-0.421375	-1.255426	0.773699
H	-0.051131	-1.163335	1.796183
H	0.048927	-2.139638	0.342761
H	-1.505083	-1.381069	0.802824
C	-0.488014	1.1993	0.672132
N	-0.863931	2.130636	1.280604
Cl	3.307738	0.0	0.0
