18

C	-0.556902	-0.15931	-1.424304
C	0.0	0.0	0.0
Cl	0.213584	-1.548018	-2.213101
H	1.105863	0.0	0.0
C	-2.062784	-0.317338	-1.487251
H	-2.552889	0.492139	-0.946854
H	-2.339259	-1.275521	-1.047615
H	-2.397766	-0.301293	-2.525501
N	-0.161178	1.095895	-2.218079
O	-1.020272	1.977268	-2.268777
O	0.962769	1.157733	-2.688979
C	-0.407588	-1.158291	0.921711
H	0.123184	-1.035193	1.866574
H	-0.088562	-2.104937	0.484628
H	-1.481447	-1.181864	1.120857
C	-0.483346	1.25361	0.573813
N	-0.916062	2.226168	1.072297
Cl	3.293676	0.0	0.0
