18

C	-0.529392	-0.008653	-1.436631
C	0.0	0.0	0.0
Cl	0.210143	-1.357382	-2.331997
H	1.093256	0.0	0.0
C	-2.036609	-0.083847	-1.561654
H	-2.319005	-0.06523	-2.612617
H	-2.491804	0.766921	-1.047743
H	-2.395467	-1.009395	-1.11194
N	-0.081303	1.267166	-2.170713
O	-0.530282	1.419847	-3.303882
O	0.666658	2.036306	-1.583868
C	-0.407509	-1.255912	0.787169
H	0.093393	-1.217004	1.7558
H	-1.485484	-1.321361	0.953926
H	-0.056734	-2.149153	0.270765
C	-0.525561	1.171366	0.69728
N	-1.040467	2.061928	1.265387
Cl	3.307612	0.0	0.0
