14

C	-0.573412	0.113035	-1.400091
C	0.0	0.0	0.0
F	-1.928656	0.211092	-1.357859
H	1.093456	0.0	0.0
H	-0.153132	0.996303	-1.884107
N	-0.211553	-1.042874	-2.312594
O	0.977808	-1.127452	-2.573414
O	-1.123818	-1.733477	-2.741528
N	-0.433108	-1.261371	0.692081
O	-0.708402	-1.192041	1.883969
O	-0.416255	-2.280811	0.010739
C	-0.455477	1.157314	0.7619
N	-0.812188	2.127483	1.319067
Br	3.286098	0.0	0.0
