14

C	-0.415677	0.004559	-1.459094
C	0.0	0.0	0.0
F	0.145287	1.050462	-2.094901
H	1.094671	0.0	0.0
H	-0.143352	-0.93418	-1.941457
N	-1.924711	0.141115	-1.58505
O	-2.370597	0.974889	-2.360986
O	-2.57201	-0.637514	-0.891745
N	-0.380633	-1.292849	0.66038
O	-0.165945	-2.306443	0.005079
O	-0.804481	-1.248123	1.808855
C	-0.533445	1.141025	0.721158
N	-0.933347	2.097302	1.273664
Br	3.280049	0.0	0.0
