14

C	-0.413537	0.001962	-1.459281
C	0.0	0.0	0.0
F	0.136778	1.054918	-2.091939
H	1.094656	0.0	0.0
H	-0.129462	-0.93164	-1.942877
N	-1.92273	0.122993	-1.589344
O	-2.565416	-0.654106	-0.89065
O	-2.373321	0.9433	-2.376391
N	-0.377181	-1.294601	0.660954
O	-0.16504	-2.307704	0.004271
O	-0.793072	-1.251183	1.812385
C	-0.537865	1.138598	0.720756
N	-0.944615	2.083632	1.287335
Br	3.281301	0.0	0.0
