14

C	-0.505104	-0.012532	-1.435601
C	0.0	0.0	0.0
F	0.02732	-1.064371	-2.08634
H	1.092422	0.0	0.0
H	-1.592334	-0.045255	-1.507233
N	-0.083021	1.257091	-2.150446
O	-0.590316	2.282199	-1.705053
O	0.654177	1.156605	-3.116315
N	-0.455768	-1.280419	0.670258
O	-1.401178	-1.884323	0.165914
O	0.13948	-1.592844	1.690686
C	-0.520631	1.087574	0.813815
N	-0.950751	1.92065	1.521505
Br	3.301263	0.0	0.0
