14

C	-0.49861	0.054639	-1.438261
C	0.0	0.0	0.0
F	-0.085912	-1.049742	-2.09207
H	1.092668	0.0	0.0
H	-1.582799	0.142814	-1.514571
N	0.071286	1.272448	-2.137022
O	-0.218196	2.341876	-1.610513
O	0.69627	1.100521	-3.171242
N	-0.493314	-1.307208	0.588566
O	-1.607191	-1.687036	0.230314
O	0.230279	-1.855674	1.406028
C	-0.539829	1.050366	0.849409
N	-1.005813	1.84572	1.577493
Br	3.317852	0.0	0.0
