15
Coordinates from ORCA-job run
  C   -0.37036718475596      0.32094967013804      0.07707383722155
  C   1.04329964323410     -0.32126366554797      0.04207029080632
  F   -0.27022754339893      1.50540558339420     -0.63479289892586
  H   1.00127684758679     -1.22729131598362      0.65750285956244
  N   -0.65793715570808      0.66116108184564      1.44979963650515
  H   -0.97791246369285      1.61970245453361      1.49461886450558
  H   -1.37131635486291      0.05776336501534      1.83786171112310
  C   -1.40869732983076     -0.55211514561280     -0.59429621484012
  H   -1.45334110817817     -1.53641731603491     -0.12037824937099
  H   -2.38367478798788     -0.06992201253387     -0.50309175182453
  H   -1.17775002707838     -0.68142361203107     -1.65230751623311
  C   2.02299487045605      0.59464701392476      0.63402556814803
  N   2.83356013938807      1.33802841208018      1.04258920233815
  C   1.44370270730163     -0.69287092744449     -1.31813986602490
  N   1.72738974752729     -1.01535358574303     -2.41053547299082
