15
Coordinates from ORCA-job run
  C   -0.41496308515192      0.34437505724456      0.31261792947051
  C   1.11040072272914      0.19811207527234      0.07027534720448
  F   -0.62555119733674      1.73853124071061      0.28807917897359
  H   1.61980627946032      0.70328870820091      0.90082241959461
  N   -0.71493318777682     -0.21579673339426      1.57480373438005
  H   -0.28147502092004      0.30485055541817      2.32764587590423
  H   -1.71317475145786     -0.26009657658065      1.73233701906788
  C   -1.25068774242244     -0.26590674949027     -0.78655338699277
  H   -2.30538526765461     -0.07030345788222     -0.58120132097595
  H   -1.09071018802043     -1.34306160950317     -0.83840714446380
  H   -1.00346387765963      0.19008746782277     -1.74534912444609
  C   1.51487746916529      0.85478756404529     -1.17620369238991
  N   1.82629107460374      1.37535414489746     -2.18079740683448
  C   1.50540368929688     -1.21201973915970      0.06062326288050
  N   1.82456508314512     -2.34120194760185      0.04030730862715
