15
Coordinates from ORCA-job run
  C   -0.41957845989391      0.42417235193271      0.02387646096001
  C   1.00045686488612      0.09972577312055     -0.51225801540059
  F   -0.66435572500723      1.73540808351557     -0.34560074712781
  H   0.97265846251339      0.17648513790174     -1.60552846650072
  N   -0.37977887101539      0.40577838011326      1.45922638544331
  H   -1.22943301000825      0.81854570341863      1.82597338816137
  H   -0.30019110188009     -0.54087433959811      1.81180311311600
  C   -1.47567933128273     -0.43895980228488     -0.64147057854505
  H   -2.45837069533283     -0.11979032917161     -0.28786642731887
  H   -1.44666654498980     -0.32578521557566     -1.72772087685518
  H   -1.33707839457773     -1.49148372065238     -0.38644187190477
  C   1.36932157315170     -1.26833904987344     -0.14284170255845
  N   1.60226690988710     -2.37468328231296      0.17372621082365
  C   1.98154377753713      1.06255833748586     -0.00489530407922
  N   2.78488454601250      1.83624197198072      0.35901843178632
