15
Coordinates from ORCA-job run
  C   -0.37089836861808      0.32245956906045      0.09055394913720
  C   1.04911589071420     -0.30594303793969      0.05345371645891
  F   -0.27262646492627      1.54438336368728     -0.55417839726600
  H   1.01763947849494     -1.20073028031577      0.68559664563396
  N   -0.68365629783966      0.58957967107473      1.47540465485318
  H   -1.39040937714559     -0.04875290723667      1.81880442897639
  H   -1.03932251825309      1.53356629830665      1.55299625935067
  C   -1.38691999896028     -0.52375356440129     -0.64706001204215
  H   -2.37778938798800     -0.08874650001637     -0.50530250150889
  H   -1.39132032929818     -1.54831678020411     -0.26492985707885
  H   -1.16156120180062     -0.54947700440452     -1.71375347014063
  C   2.02167399348228      0.62639585606037      0.62931858158961
  N   2.80801014474560      1.37457625925022      1.07450733549464
  C   1.44710776283753     -0.69789468323519     -1.30189797064827
  N   1.73095667455521     -1.02634625968609     -2.39251336280974
