15

C	-0.252786	-0.011995	-1.494459
C	0.0	0.0	0.0
Br	0.188117	-1.792464	-2.182686
H	1.093065	0.0	0.0
H	-0.419858	-0.875712	0.492534
N	-1.732313	0.157281	-1.838964
O	-2.546467	-0.381222	-1.09405
O	-2.01392	0.81279	-2.8422
C	0.608707	1.020227	-2.180115
H	0.269335	2.015409	-1.881784
H	1.614683	0.848544	-1.781248
H	0.566872	0.936091	-3.262984
C	-0.520927	1.218618	0.589764
N	-0.938551	2.210264	1.064454
F	2.58451	0.0	0.0
