15

C	-0.30244	-0.004827	-1.486143
C	0.0	0.0	0.0
Br	-2.12299	-0.651713	-1.884898
H	1.106942	0.0	0.0
H	-0.29969	-0.973022	0.397024
N	-0.179358	1.409302	-2.054497
O	-0.856449	1.727985	-3.026136
O	0.690109	2.09844	-1.531138
C	0.745783	-0.83749	-2.20643
H	0.664916	-0.71719	-3.288525
H	1.716297	-0.51542	-1.796738
H	0.604425	-1.888017	-1.94748
C	-0.646517	1.05382	0.748636
N	-1.167289	1.902812	1.371554
F	2.592593	0.0	0.0
