15

C	-0.19075	-0.038657	-1.497251
C	0.0	0.0	0.0
Br	-2.086572	-0.178922	-2.081145
H	1.105036	0.0	0.0
H	-0.410611	0.906676	0.440397
N	0.243525	1.324277	-2.045603
O	-0.057258	2.316352	-1.390935
O	0.82408	1.341402	-3.125655
C	0.643828	-1.12976	-2.117241
H	0.27705	-2.094417	-1.761408
H	0.612727	-1.09945	-3.20398
H	1.655361	-0.95924	-1.726031
C	-0.516959	-1.185987	0.643036
N	-0.918108	-2.151653	1.181279
F	2.563596	0.0	0.0
