15

C	-0.205069	-0.005352	-1.495694
C	0.0	0.0	0.0
Br	-2.106299	-0.162583	-2.061574
H	1.103574	0.0	0.0
H	-0.410707	0.893993	0.465341
N	0.198054	1.376974	-2.018137
O	-0.095905	2.348074	-1.330144
O	0.747427	1.429553	-3.11364
C	0.639484	-1.06905	-2.150261
H	1.652103	-0.896918	-1.762028
H	0.598897	-1.012103	-3.235494
H	0.288197	-2.046822	-1.815615
C	-0.507276	-1.201827	0.622073
N	-0.898589	-2.179383	1.145844
F	2.565265	0.0	0.0
