15

C	-0.166277	-0.080326	-1.499591
C	0.0	0.0	0.0
Br	-2.052719	-0.156202	-2.118474
H	1.095029	0.0	0.0
H	-0.40863	0.923622	0.405714
N	0.343499	1.246429	-2.071361
O	0.993218	1.204912	-3.110571
O	0.033314	2.269952	-1.471925
C	0.633414	-1.224887	-2.067943
H	1.643274	-1.081931	-1.662628
H	0.216789	-2.162484	-1.695012
H	0.627705	-1.22454	-3.155385
C	-0.535974	-1.161612	0.669878
N	-0.957217	-2.105958	1.229922
F	2.561509	0.0	0.0
