15

C	-0.53741	-0.021019	-1.414776
C	0.0	0.0	0.0
Br	0.234201	1.497949	-2.375217
H	1.09198	0.0	0.0
H	-0.301968	0.956388	0.442108
N	-0.058572	-1.274135	-2.155939
O	-0.490796	-1.432642	-3.297498
O	0.687666	-2.041044	-1.561109
C	-2.046876	0.024432	-1.552564
H	-2.423228	0.909418	-1.036702
H	-2.472117	-0.866144	-1.079327
H	-2.344086	0.056049	-2.599513
C	-0.576167	-1.074382	0.786928
N	-1.061032	-1.936021	1.425093
F	2.524033	0.0	0.0
