15

C	-0.265083	0.063616	-1.498298
C	0.0	0.0	0.0
Br	0.073263	-1.666184	-2.312768
H	1.092913	0.0	0.0
H	-0.317916	0.955402	0.430311
N	-1.721127	0.467831	-1.771131
O	-2.505815	-0.300138	-2.313867
O	-2.006945	1.597843	-1.37459
C	0.681585	1.086493	-2.102996
H	0.630322	1.08744	-3.193748
H	1.677069	0.811496	-1.729147
H	0.422268	2.07571	-1.718802
C	-0.640385	-1.091259	0.699533
N	-1.158647	-1.957458	1.302619
F	2.587453	0.0	0.0
