15

C	-0.247141	-0.045965	-1.483452
C	0.0	0.0	0.0
Br	-2.166293	-0.25697	-1.96765
H	1.107935	0.0	0.0
H	-0.286513	-0.979601	0.395947
N	0.148452	1.268987	-2.152238
O	0.156696	2.279811	-1.460729
O	0.402892	1.230194	-3.352869
C	0.581024	-1.160445	-2.082762
H	0.523934	-1.161793	-3.168365
H	0.221763	-2.115443	-1.694202
H	1.601148	-0.982365	-1.716121
C	-0.659225	1.019503	0.782902
N	-1.19424	1.784747	1.496204
F	2.56587	0.0	0.0
