15

C	-0.393216	0.085677	-1.469803
C	0.0	0.0	0.0
Br	-0.049108	1.901793	-2.082718
H	1.096341	0.0	0.0
H	-0.328341	0.914114	0.500695
N	0.496838	-0.882309	-2.261263
O	1.064354	-0.518579	-3.280724
O	0.478804	-2.025108	-1.816826
C	-1.823639	-0.286229	-1.819202
H	-2.015565	-1.310006	-1.491837
H	-2.506339	0.38667	-1.298278
H	-1.993402	-0.202295	-2.895482
C	-0.58568	-1.135108	0.682273
N	-1.078061	-2.025792	1.272935
F	2.516257	0.0	0.0
