15

C	-0.267387	-0.150874	-1.487618
C	0.0	0.0	0.0
Br	-0.022044	-2.00863	-2.046526
H	1.106088	0.0	0.0
H	-0.314577	1.010004	0.2932
N	-1.720284	0.169419	-1.83823
O	-2.5926	-0.377842	-1.171726
O	-1.927336	0.974569	-2.745956
C	0.70227	0.724442	-2.248668
H	0.476636	1.772211	-2.030549
H	0.641675	0.56461	-3.324123
H	1.690118	0.489373	-1.83339
C	-0.591329	-0.975297	0.887998
N	-1.025345	-1.744381	1.663642
F	2.587125	0.0	0.0
