18

C	0.0	0.0	0.0
C	-0.549137	0.199452	-1.411208
F	1.35999	0.0	0.0
H	-1.637229	0.338399	-1.289608
N	-0.347089	1.222901	0.869356
O	0.152225	1.211817	1.991776
O	-1.051578	2.112798	0.409787
C	-0.525143	-1.220257	0.70459
H	-1.617997	-1.170652	0.730308
H	-0.115801	-1.246332	1.714305
H	-0.207091	-2.110057	0.159075
C	-0.326802	-1.040082	-2.159999
N	-0.106469	-2.001018	-2.798741
C	0.095033	1.355003	-2.18724
H	-0.126497	2.303818	-1.704324
H	-0.312047	1.380272	-3.199762
H	1.176283	1.218756	-2.252538
Br	-3.903347	0.0	0.0
