18

C	0.0	0.0	0.0
C	-0.365683	0.303564	-1.463903
F	1.373362	0.0	0.0
H	0.073419	-0.552841	-1.993775
N	-0.342986	1.16031	0.934046
O	0.007734	1.005845	2.099549
O	-0.884977	2.155241	0.467346
C	-0.602143	-1.254464	0.554077
H	-0.182796	-1.4478	1.54087
H	-1.687415	-1.131737	0.631159
H	-0.378277	-2.091366	-0.110283
C	0.382111	1.476054	-1.935502
N	0.968057	2.390317	-2.381442
C	-1.843006	0.400637	-1.836712
H	-2.332364	1.235936	-1.346679
H	-2.398238	-0.487244	-1.541448
H	-1.922028	0.519921	-2.92034
Br	-4.699745	0.0	0.0
