18

C	0.0	0.0	0.0
C	-0.557562	0.15486	-1.412699
F	1.359912	0.0	0.0
H	-1.652677	0.232071	-1.291117
N	-0.347224	1.244425	0.836148
O	-1.148681	2.061339	0.400244
O	0.234354	1.312488	1.916905
C	-0.531843	-1.193862	0.744388
H	-1.623937	-1.128383	0.775268
H	-0.115001	-1.192502	1.752048
H	-0.229641	-2.105019	0.225673
C	-0.255197	-1.078532	-2.142978
N	0.027104	-2.034576	-2.764365
C	0.008046	1.343887	-2.197888
H	-0.360974	1.308281	-3.224487
H	-0.319764	2.278235	-1.74848
H	1.099152	1.307704	-2.220859
Br	-3.92924	0.0	0.0
