18

C	0.0	0.0	0.0
C	-0.569147	0.143159	-1.406087
F	1.360154	0.0	0.0
H	-1.662355	0.224712	-1.271416
N	-0.350652	1.246096	0.832863
O	-1.173701	2.044926	0.401019
O	0.239369	1.32791	1.906635
C	-0.513833	-1.195579	0.759797
H	-1.606574	-1.153348	0.796403
H	-0.092072	-1.172084	1.765396
H	-0.192137	-2.106625	0.25179
C	-0.281479	-1.097232	-2.12934
N	-0.017324	-2.066961	-2.737051
C	-0.005068	1.326862	-2.20123
H	-0.323587	2.264189	-1.751263
H	-0.383806	1.289489	-3.223984
H	1.085269	1.284272	-2.232704
Br	-3.940976	0.0	0.0
