18

C	0.0	0.0	0.0
C	-0.486226	0.322734	-1.430597
F	1.363055	0.0	0.0
H	-0.663196	-0.648454	-1.908589
N	-0.323879	1.204447	0.893786
O	0.186017	2.263962	0.539966
O	-1.019595	1.030997	1.887426
C	-0.590328	-1.253313	0.568549
H	-1.682198	-1.188676	0.540654
H	-0.269261	-1.39342	1.600305
H	-0.253763	-2.097145	-0.037634
C	0.566982	0.98241	-2.209228
N	1.363395	1.491247	-2.906051
C	-1.783956	1.134428	-1.494841
H	-1.60077	2.164803	-1.190877
H	-2.576563	0.706428	-0.873304
H	-2.152082	1.137245	-2.522153
Br	-4.778146	0.0	0.0
