15

C	-0.14565	0.070173	-1.538423
C	0.0	0.0	0.0
Cl	0.093028	-1.674611	-2.181789
H	1.09263	0.0	0.0
C	-1.467295	0.450773	-2.045068
N	-2.512966	0.773416	-2.474813
N	0.863023	0.956722	-1.936825
H	0.963711	1.016061	-2.940834
H	1.744584	0.713882	-1.433904
N	-0.645482	-1.205016	0.586915
O	-1.868862	-1.288626	0.463888
O	0.074122	-2.022913	1.149218
C	-0.551285	1.183429	0.627117
N	-0.985424	2.137194	1.159719
F	2.559019	0.0	0.0
