15

C	-0.147758	0.042775	-1.552238
C	0.0	0.0	0.0
Cl	0.076383	-1.644679	-2.155279
H	1.092317	0.0	0.0
C	-1.46438	0.49074	-2.017385
N	-2.505246	0.88267	-2.397561
N	0.902311	0.860732	-2.091916
H	1.747223	0.653125	-1.520323
H	0.655697	1.838315	-1.979335
N	-0.667991	-1.164938	0.635827
O	-1.900567	-1.174203	0.615024
O	0.04361	-2.04157	1.11356
C	-0.514619	1.225433	0.574593
N	-0.89318	2.240772	1.031312
F	2.5471	0.0	0.0
