15

C	-0.478777	0.019016	-1.455118
C	0.0	0.0	0.0
Cl	0.387426	1.358225	-2.284391
H	1.090825	0.0	0.0
C	-0.043114	-1.231751	-2.109165
N	0.191269	-2.26597	-2.617059
N	-1.891212	0.263448	-1.586451
H	-2.386081	-0.359847	-0.957622
H	-2.190792	0.109735	-2.541762
N	-0.479117	-1.279706	0.643691
O	0.366073	-2.043851	1.089743
O	-1.700166	-1.485951	0.679952
C	-0.549952	1.108823	0.752572
N	-0.949418	1.997134	1.411271
F	2.459097	0.0	0.0
