15

C	-0.143521	0.054226	-1.541048
C	0.0	0.0	0.0
Cl	0.058491	-1.708262	-2.163381
H	1.092659	0.0	0.0
C	-1.457847	0.455198	-2.052969
N	-2.489683	0.802026	-2.498213
N	0.881405	0.913563	-1.950447
H	0.984374	0.963424	-2.953429
H	1.758004	0.667267	-1.439717
N	-0.652633	-1.190909	0.605912
O	0.061995	-2.005872	1.178544
O	-1.875933	-1.26321	0.488012
C	-0.545688	1.196155	0.609311
N	-0.970559	2.161565	1.12967
F	2.562056	0.0	0.0
