15

C	-0.443653	-0.061182	-1.462669
C	0.0	0.0	0.0
Cl	0.137004	1.531751	-2.207307
H	1.091141	0.0	0.0
C	0.253438	-1.090341	-2.242283
N	0.709573	-1.8736	-2.988754
N	-1.84876	-0.233339	-1.589296
H	-2.131514	-0.24267	-2.561528
H	-2.331816	0.514553	-1.103554
N	-0.390809	-1.238092	0.718167
O	-0.695862	-1.141976	1.906596
O	-0.303261	-2.294184	0.096799
C	-0.574225	1.147526	0.665791
N	-1.04811	2.100502	1.167569
F	2.422631	0.0	0.0
