19
Coordinates from ORCA-job run
  C   0.78670657159367      0.32119669741147     -0.02240367631178
  C   -0.64287339623532     -0.24414518592164     -0.04550296061952
  Br  1.03173145243156      1.60822965500142      1.41298145719032
  H   -0.62770474473874     -0.95184956573371     -0.88380950105809
  C   1.87500527463701     -0.73462361274317      0.07932852847469
  H   2.85624534497670     -0.28027884315573     -0.07013684284545
  H   1.71661172357379     -1.49917198175346     -0.68252236357912
  H   1.86034068227347     -1.19243064012953      1.06714886117939
  N   0.97436464721936      1.03348066457080     -1.36770260310606
  O   1.05532915530078      2.25133343368043     -1.42549762372452
  O   0.98293704419547      0.26580775075122     -2.32839707964850
  C   -1.69471813124152      0.82147576303857     -0.34376773791933
  H   -1.72036064360389      1.58109007049397      0.44018796048712
  H   -2.68009110566493      0.35223673746454     -0.39454589627956
  H   -1.51987038627737      1.31991323209584     -1.29947358558214
  C   -0.98561525577229     -1.01421307539281      1.22684552099163
  H   -1.97332928621723     -1.46794867767650      1.11426215459734
  H   -1.01748365908761     -0.35110403933466      2.09328871134789
  H   -0.27722528736290     -1.81899838266706      1.43071667640568
