19
Coordinates from ORCA-job run
  C   0.84172990401555      0.43689737718582      0.04937815901276
  C   -0.57058648844125      0.09564564363750      0.57088829581110
  Br  1.43017052815638      2.12683062118231      0.82786211853670
  H   -0.49427036553016      0.22428296950075      1.65697336355016
  C   1.90032629356001     -0.60621720105680      0.35154920739885
  H   1.94957245035787     -0.76003628685227      1.43096777488982
  H   2.87681521004242     -0.26528573074719      0.00465976408626
  H   1.66260966547324     -1.54666154937933     -0.14078381153316
  N   0.73908322221376      0.61507695228342     -1.46583445808555
  O   0.54289293274666      1.72764047945832     -1.93470646618461
  O   0.78066229678168     -0.43412635367610     -2.10885732751203
  C   -0.97230714263849     -1.35503064550034      0.29263988652042
  H   -1.98465309258404     -1.51617488439081      0.67125471623327
  H   -0.31811136017126     -2.07103698292753      0.79179473800995
  H   -0.97393204518832     -1.57259656094909     -0.77696197607737
  C   -1.64037407299765      1.05104110698697      0.04380243405829
  H   -1.83926502618969      0.87182546345841     -1.01612466169759
  H   -2.57242636608008      0.88218418942107      0.58795573561064
  H   -1.35793654352664      2.09674139236490      0.16554250737207
