19
Coordinates from ORCA-job run
  C   0.83153629891470      0.45630791969530      0.04633319945642
  C   -0.57033736456698      0.08173305522839      0.57292265976438
  Br  1.38249124227676      2.15992593393863      0.82296989822488
  H   -0.49305481564517      0.21077623275283      1.65888663546902
  C   1.91543653966124     -0.56133193672602      0.34513457615762
  H   2.88272990160972     -0.19765877685047     -0.00434109607614
  H   1.69852701213014     -1.50704863995182     -0.14675355393686
  H   1.97082328537079     -0.71367153511153      1.42445273353214
  N   0.71921982778044      0.63246446973182     -1.46831345795676
  O   0.78640818906210     -0.41473353255754     -2.11231607494871
  O   0.49181019888142      1.73965334512557     -1.93564578109045
  C   -0.93899032435418     -1.37770254973953      0.29421918130558
  H   -0.93798668680629     -1.59425388877604     -0.77559613245114
  H   -1.94653427595854     -1.56263138233164      0.67473505958855
  H   -0.26724325487454     -2.07876552896171      0.79125404617190
  C   -1.66440270378189      1.01206101743817      0.05084661134981
  H   -2.58990118338812      0.82159864668892      0.59900441819898
  H   -1.40601803018084      2.06411159364348      0.17143259360730
  H   -1.86351385613076      0.82816555676318     -1.00822551636652
