19
Coordinates from ORCA-job run
  C   0.87801500967410      0.34426043775336      0.09893564745825
  C   -0.59168185109185      0.26245889958836      0.53528817106252
  Br  2.01865923085677      0.75179295920376      1.63633551821838
  H   -0.77912101558704      1.16350729677888      1.12727990768593
  C   1.42853891870571     -0.88031985284109     -0.59542686061448
  H   0.81543240238016     -1.14234327367449     -1.45833200187330
  H   1.44422389200296     -1.71399929904031      0.10614997265888
  H   2.44465588753658     -0.69750841141493     -0.94181114525699
  N   0.97912138610716      1.56145147938536     -0.81927383960211
  O   0.63458005559009      2.63905677808690     -0.35065979650386
  O   1.32634998074200      1.36135395547516     -1.98039087130408
  C   -0.86252019528234     -0.96952198557329      1.39462142118036
  H   -0.16442688123215     -1.04921369051744      2.22931390949304
  H   -0.80741809215595     -1.88633359471381      0.80237688775058
  H   -1.87213863547647     -0.90613205229531      1.80735614289581
  C   -1.53082842569138      0.28782174934786     -0.67469204446096
  H   -1.36110098883071     -0.56177277150585     -1.34043486962395
  H   -1.43941331520612      1.20815589984937     -1.25423165521589
  H   -2.56292736304151      0.22728547610750     -0.32140449394813
