16
Coordinates from ORCA-job run
  C   0.94906246858056      0.06466657737528      0.70023022687938
  C   -0.16548378525617     -0.38220247129334     -0.23721530134022
  F   1.38200650193655     -1.06866769838472      1.40545445482954
  H   0.30612728793847     -1.03495542510682     -0.98592207119256
  H   0.55297081731607      0.74765038247292      1.46106494734536
  N   2.06198628471464      0.66336936284417      0.05161864411531
  H   2.11446859952170      0.47287756384595     -0.93674505872198
  H   2.18017706029494      1.64313419288164      0.24476100619601
  C   -0.78321782476392      0.82422963253923     -0.94000420234334
  H   -1.57382514840961      0.50777684423584     -1.62431092823954
  H   -1.23229275148186      1.50353369559461     -0.20786104891054
  H   -0.04855946475281      1.38989253816365     -1.51599205604501
  C   -1.22975455412387     -1.18491239105429      0.50447953017707
  H   -1.69461156556619     -0.57461354673889      1.28571865517912
  H   -0.79976235038740     -2.06774684391074      0.97564924213245
  H   -2.01829157556110     -1.50603241346448     -0.18092604006106
