17

C	0.0	0.0	0.0
C	-0.531566	-0.008791	-1.454227
Br	1.976463	0.0	0.0
H	-1.632094	-0.161094	-1.228563
C	-0.338259	1.312541	0.585877
N	-0.534815	2.383881	1.028351
N	-0.506348	-1.013255	0.866674
H	-1.538044	-0.822186	0.82311
H	-0.361126	-1.90472	0.4041
N	-0.015171	-1.192528	-2.175934
O	0.576876	-1.025257	-3.24729
O	-0.220365	-2.307807	-1.681691
C	-0.309375	1.259164	-2.243111
H	-0.682768	1.132153	-3.259645
H	-0.872794	2.062689	-1.766666
H	0.746797	1.531501	-2.295914
H	-2.869859	0.0	0.0
