11

C	-0.446327	0.024792	-1.457708
C	0.0	0.0	0.0
F	-0.075722	-1.164214	-2.055161
H	1.093037	0.0	0.0
H	0.056922	0.839191	-1.984948
H	-0.361719	-0.918546	0.468705
C	-1.907331	0.168868	-1.609936
N	-3.070366	0.268583	-1.734337
C	-0.506897	1.163932	0.715505
N	-0.922384	2.113445	1.266795
Br	3.464897	0.0	0.0
