11

C	-0.445141	0.044771	-1.457609
C	0.0	0.0	0.0
F	-0.073281	-1.135843	-2.070694
H	1.09313	0.0	0.0
H	0.059024	0.866152	-1.973763
H	-0.361829	-0.924968	0.455785
C	-1.90578	0.192273	-1.610081
N	-3.067574	0.298317	-1.739213
C	-0.507411	1.154221	0.730392
N	-0.920785	2.096696	1.295218
Br	3.463527	0.0	0.0
