11

C	-0.444569	0.037273	-1.457923
C	0.0	0.0	0.0
F	-0.07523	-1.147961	-2.063959
H	1.093035	0.0	0.0
H	0.062045	0.854302	-1.978916
H	-0.362267	-0.9225	0.460309
C	-1.904847	0.187783	-1.611605
N	-3.066385	0.296335	-1.741928
C	-0.506788	1.157896	0.724955
N	-0.913293	2.101743	1.292343
Br	3.463613	0.0	0.0
