11

C	-0.445509	-0.051796	-1.448381
C	0.0	0.0	0.0
F	-1.792096	-0.400027	-1.542605
H	1.09526	0.0	0.0
H	0.132609	-0.825598	-1.959645
H	-0.310164	-0.937882	0.470743
C	-0.266258	1.224623	-2.156519
N	-0.167552	2.233487	-2.747399
C	-0.573044	1.120477	0.732075
N	-1.053117	2.021424	1.311292
Br	3.443172	0.0	0.0
