15

C	-0.425996	-0.014323	-1.445282
C	0.0	0.0	0.0
F	-0.024553	1.129829	-2.071809
H	1.108823	0.0	0.0
H	-0.023405	-0.875812	-1.979354
N	-1.921672	-0.099456	-1.595791
O	-2.388976	-1.236349	-1.609118
O	-2.562054	0.942058	-1.669157
N	-0.524022	-1.188948	0.681617
H	-0.175666	-2.000965	0.176752
H	-0.026388	-1.223203	1.56843
N	-0.546552	1.193634	0.650491
H	-0.082024	1.248571	1.55278
H	-0.177992	1.987692	0.133346
H	2.910146	0.0	0.0
