12

C	-0.259055	-0.000409	-1.514299
C	0.0	0.0	0.0
Br	0.380594	1.655033	-2.320015
H	1.096446	0.0	0.0
H	0.36879	-0.788169	-1.935313
C	-1.652726	-0.190894	-1.899421
N	-2.778141	-0.361004	-2.194352
C	-0.455356	-1.259188	0.561538
N	-0.811472	-2.297662	0.984329
C	-0.575123	1.136453	0.688023
N	-1.015009	2.065204	1.260366
F	2.440216	0.0	0.0
