12

C	-0.16441	0.021579	-1.510705
C	0.0	0.0	0.0
Br	-2.027	0.240393	-2.148348
H	1.098773	0.0	0.0
H	0.378775	0.890149	-1.887371
C	0.374864	-1.186655	-2.12237
N	0.762345	-2.170826	-2.634053
C	-0.552102	-1.182011	0.624163
N	-0.975193	-2.155462	1.130337
C	-0.477201	1.224935	0.605803
N	-0.834069	2.240122	1.079814
F	2.422382	0.0	0.0
