12

C	-0.383743	0.022775	-1.489895
C	0.0	0.0	0.0
Br	0.267283	-1.586406	-2.388069
H	1.096558	0.0	0.0
H	-1.465064	0.013338	-1.646855
C	0.177738	1.193694	-2.15517
N	0.562571	2.1467	-2.72395
C	-0.529407	-1.174301	0.665348
N	-0.9392	-2.131239	1.213435
C	-0.482358	1.213188	0.636421
N	-0.855329	2.210339	1.137216
F	2.430437	0.0	0.0
