12

C	-0.259656	-0.010993	-1.514498
C	0.0	0.0	0.0
Br	0.381804	1.63818	-2.331581
H	1.096421	0.0	0.0
H	0.366565	-0.802183	-1.930558
C	-1.65466	-0.201568	-1.895261
N	-2.781943	-0.369378	-2.183976
C	-0.455246	-1.255802	0.569331
N	-0.805897	-2.294415	0.996593
C	-0.574063	1.141929	0.68083
N	-1.013607	2.073543	1.248778
F	2.440573	0.0	0.0
