12

C	-0.165127	0.01872	-1.510436
C	0.0	0.0	0.0
Br	-2.027555	0.227582	-2.148063
H	1.098806	0.0	0.0
H	0.371647	0.891002	-1.887339
C	0.385847	-1.184744	-2.122439
N	0.778881	-2.162438	-2.641188
C	-0.549902	-1.182634	0.625004
N	-0.969718	-2.15725	1.132037
C	-0.478909	1.224637	0.604537
N	-0.835597	2.240156	1.078353
F	2.422327	0.0	0.0
