12

C	-0.271416	0.48074	-1.411919
C	0.0	0.0	0.0
Br	-2.188496	0.785604	-1.817456
H	1.103835	0.0	0.0
H	0.207059	1.453704	-1.538405
C	0.248424	-0.448851	-2.40701
N	0.636628	-1.188742	-3.232308
C	-0.497125	-1.335962	0.255147
N	-0.851724	-2.439321	0.456455
C	-0.456635	0.954904	0.988052
N	-0.786092	1.751463	1.788213
F	2.420496	0.0	0.0
