16

C	0.0	0.0	0.0
C	-0.495021	0.053859	-1.41996
F	1.384156	0.0	0.0
H	0.03501	0.860567	-1.929274
H	-1.564076	0.294567	-1.345969
N	-0.22026	1.416812	0.67192
O	-0.22299	1.433012	1.901477
O	-0.272401	2.413816	-0.040845
N	-0.583876	-1.006306	0.746552
H	-0.389131	-0.852893	1.730473
H	-1.620166	-0.854593	0.584258
C	-0.295961	-1.282971	-2.124573
H	-0.948382	-2.038726	-1.68685
H	0.737471	-1.630337	-2.041238
H	-0.541908	-1.187525	-3.186779
H	-3.041765	0.0	0.0
