17

C	-0.325528	-0.074338	-1.483172
C	0.0	0.0	0.0
Br	-2.418609	-0.468848	-1.671062
H	1.102711	0.0	0.0
N	-0.05009	1.14345	-2.098733
H	-0.380596	1.198123	-3.051999
H	-0.390751	1.90193	-1.51793
N	0.28092	-1.239361	-2.051475
H	1.283092	-1.148795	-1.865617
H	0.132374	-1.258368	-3.053644
N	-0.489081	-1.168307	0.731278
H	-0.644386	-1.918323	0.066023
H	0.263915	-1.473354	1.338654
N	-0.475079	1.255417	0.559064
H	0.215939	1.590747	1.221769
H	-1.331029	1.044207	1.063428
Br	3.558235	0.0	0.0
