17

C	-0.230207	-0.067693	-1.509007
C	0.0	0.0	0.0
Br	-2.204837	-0.12884	-1.882865
H	1.108164	0.0	0.0
N	0.265482	1.095559	-2.20142
H	1.277136	1.077589	-2.06417
H	-0.078223	1.904567	-1.690155
N	0.348854	-1.287307	-2.000281
H	1.304834	-1.328982	-1.641358
H	0.391851	-1.230205	-3.012046
N	-0.557404	-1.156387	0.696485
H	0.095854	-1.414936	1.430277
H	-0.588193	-1.931949	0.041473
N	-0.464566	1.262556	0.540888
H	-1.376174	1.092735	0.951283
H	0.168826	1.554383	1.275125
Br	3.544934	0.0	0.0
