16

C	-0.516036	0.035652	-1.431103
C	0.0	0.0	0.0
Cl	0.477547	1.01589	-2.540373
H	1.08877	0.0	0.0
N	-0.327353	-1.413484	-2.015476
O	-1.170486	-1.768362	-2.837325
O	0.650884	-2.052862	-1.660869
N	-1.858196	0.449379	-1.520028
H	-2.423542	-0.088729	-0.87286
H	-2.201957	0.320093	-2.464924
C	-0.539421	-1.141012	0.700418
N	-0.955839	-2.111145	1.22339
N	-0.30948	1.224497	0.726617
O	-0.082619	2.287941	0.141346
O	-0.596417	1.124807	1.931294
H	2.342678	0.0	0.0
