16

C	-0.237585	0.075936	-1.521959
C	0.0	0.0	0.0
Cl	0.108196	-1.54106	-2.173938
H	1.088917	0.0	0.0
N	-1.727641	0.375142	-1.769174
O	-2.529728	-0.52172	-1.538107
O	-2.0038	1.523254	-2.10876
N	0.547481	1.021025	-2.225778
H	1.507324	0.838153	-1.921007
H	0.301849	1.937343	-1.865361
C	-0.54017	-1.163664	0.659652
N	-0.902546	-2.144616	1.199184
N	-0.371574	1.210977	0.724326
O	-0.788776	1.093826	1.884145
O	-0.116142	2.301287	0.187384
H	2.401924	0.0	0.0
