16

C	-0.365556	-0.131248	-1.478933
C	0.0	0.0	0.0
Cl	-2.096017	-0.49323	-1.702117
H	1.094252	0.0	0.0
N	-0.03155	1.165717	-2.252587
O	1.169412	1.364481	-2.360633
O	-0.931849	1.847185	-2.71346
N	0.428337	-1.14735	-2.103387
H	0.10886	-2.052847	-1.777849
H	1.388266	-1.004093	-1.769016
C	-0.382063	-1.208479	0.695651
N	-0.614999	-2.246455	1.197725
N	-0.449361	1.18153	0.708195
O	-0.675486	1.077555	1.92077
O	-0.434095	2.248343	0.081311
H	2.401063	0.0	0.0
