20

C	0.0	0.0	0.0
C	-0.259587	-0.006489	-1.538129
Br	1.975605	0.0	0.0
H	0.299687	0.838607	-1.94387
C	-0.537214	1.305388	0.553537
H	-0.205917	2.165322	-0.035197
H	-0.210907	1.439657	1.587048
H	-1.635672	1.223787	0.53319
C	-0.567754	-1.160862	0.783539
H	-0.206527	-2.123072	0.429395
H	-0.310927	-1.040533	1.839274
H	-1.663101	-1.096001	0.677143
C	-1.686862	0.038734	-2.051989
H	-2.276923	-0.813235	-1.727661
H	-2.223669	0.900964	-1.662042
H	-1.634959	0.089919	-3.146357
N	0.387019	-1.180344	-2.227277
O	1.172527	-0.931278	-3.143543
O	0.046652	-2.31286	-1.892022
H	-3.647766	0.0	0.0
