15

C	-0.570863	-0.011009	-1.40562
C	0.0	0.0	0.0
F	-0.164255	-1.187925	-2.050614
H	1.098458	0.0	0.0
H	-0.383816	-0.898953	0.499624
C	-2.088866	0.02215	-1.451282
H	-2.447719	0.008849	-2.483187
H	-2.464925	-0.86387	-0.931571
H	-2.441782	0.921391	-0.944147
C	-0.035243	1.122585	-2.189841
N	0.344092	2.009876	-2.85795
N	-0.441594	1.244588	0.665646
H	-0.961276	1.033504	1.504469
H	0.407775	1.71434	0.950987
F	2.667266	0.0	0.0
