15

C	-0.306163	0.062283	-1.486488
C	0.0	0.0	0.0
F	-1.656703	0.395406	-1.741689
H	1.093421	0.0	0.0
H	-0.423692	-0.90772	0.44795
C	0.607797	1.081557	-2.137412
H	0.50555	1.083555	-3.225513
H	0.33653	2.057478	-1.731766
H	1.625865	0.836059	-1.810274
C	-0.118993	-1.272405	-2.090484
N	-0.007468	-2.337478	-2.572589
N	-0.425013	1.246541	0.63918
H	0.298426	1.50493	1.297037
H	-1.295301	1.129585	1.139331
F	2.705071	0.0	0.0
