15

C	-0.536575	0.057688	-1.419382
C	0.0	0.0	0.0
F	-0.009232	-1.006918	-2.156158
H	1.099207	0.0	0.0
H	-0.364087	0.892879	0.524775
C	-2.048598	-0.059893	-1.515909
H	-2.360239	-0.124454	-2.561161
H	-2.332182	-0.965519	-0.980926
H	-2.528333	0.805252	-1.0525
C	-0.098024	1.304813	-2.080898
N	0.186477	2.310013	-2.616043
N	-0.486272	-1.2392	0.645389
H	-0.82565	-1.018501	1.571712
H	0.344011	-1.806813	0.774694
F	2.669227	0.0	0.0
