15

C	-0.558703	-0.000362	-1.410151
C	0.0	0.0	0.0
F	-0.182271	-1.192011	-2.045656
H	1.098477	0.0	0.0
H	-0.384282	-0.906219	0.488309
C	-2.076152	0.072394	-1.464603
H	-2.430499	0.053463	-2.498255
H	-2.482313	-0.794049	-0.934573
H	-2.409559	0.988521	-0.975637
C	0.006902	1.11481	-2.198913
N	0.413732	1.992241	-2.864571
N	-0.435027	1.240468	0.671242
H	0.412713	1.669705	1.02466
H	-1.02699	1.037265	1.466086
F	2.665053	0.0	0.0
