15

C	-0.284034	-0.052104	-1.491695
C	0.0	0.0	0.0
F	-0.048513	1.232805	-2.01782
H	1.10096	0.0	0.0
H	-0.369979	-0.929858	0.448399
C	0.709378	-0.998214	-2.144517
H	0.47024	-2.033237	-1.88449
H	1.689995	-0.740315	-1.717385
H	0.684281	-0.88606	-3.231182
C	-1.689048	-0.366501	-1.825837
N	-2.791211	-0.661663	-2.106087
N	-0.680956	1.146456	0.61881
H	-0.18444	1.967775	0.290473
H	-0.48534	1.097472	1.61317
F	2.754418	0.0	0.0
