18

C	-0.451239	-0.012217	-1.438767
C	0.0	0.0	0.0
F	0.189547	-0.930491	-2.168451
H	1.095717	0.0	0.0
N	-1.947213	-0.287907	-1.609734
O	-2.687895	0.073779	-0.70258
O	-2.287691	-0.840787	-2.648387
N	-0.238993	1.342155	-2.105142
O	0.919343	1.590466	-2.394753
O	-1.225405	2.047298	-2.285336
C	-0.403899	-1.293236	0.709279
H	-0.135605	-2.168276	0.11076
H	0.161795	-1.353442	1.641079
H	-1.472681	-1.321544	0.935922
N	-0.414495	1.24314	0.625951
H	0.296021	1.523287	1.289026
H	-1.306715	1.14449	1.091081
Br	3.503435	0.0	0.0
