18

C	-0.420929	-0.00922	-1.450615
C	0.0	0.0	0.0
F	0.064444	1.064871	-2.086829
H	1.099246	0.0	0.0
N	0.002641	-1.213735	-2.279477
O	-0.277425	-1.125634	-3.471555
O	0.57409	-2.141319	-1.726373
N	-1.933799	0.019895	-1.612476
O	-2.453386	1.058647	-1.985405
O	-2.500794	-1.03127	-1.325929
C	-0.527829	-1.129102	0.865965
H	-0.011847	-1.06565	1.82788
H	-0.315868	-2.106261	0.441783
H	-1.602577	-1.025459	1.030125
N	-0.51999	1.282103	0.512634
H	-0.454917	1.243994	1.523466
H	0.119099	2.013902	0.219471
Br	3.510152	0.0	0.0
