18

C	-0.56803	-0.021987	-1.397475
C	0.0	0.0	0.0
F	-1.914369	-0.05817	-1.381271
H	1.090182	0.0	0.0
N	-0.154487	1.20958	-2.190412
O	-1.044451	1.966018	-2.554156
O	1.048235	1.30706	-2.38931
N	-0.117597	-1.188858	-2.264008
O	0.897408	-1.785639	-1.929665
O	-0.819003	-1.4095	-3.250285
C	-0.4772	-1.216315	0.788809
H	-0.101992	-2.144438	0.355041
H	-0.075628	-1.141065	1.801092
H	-1.569996	-1.255995	0.842045
N	-0.427443	1.284269	0.554532
H	0.304688	1.634044	1.156941
H	-1.282292	1.187199	1.086268
Br	3.574323	0.0	0.0
