18

C	-0.588291	-0.041537	-1.389394
C	0.0	0.0	0.0
F	-1.933969	-0.154106	-1.352823
H	1.090188	0.0	0.0
N	-0.260536	1.218076	-2.170678
O	-1.172146	1.999228	-2.389569
O	0.911247	1.315987	-2.503639
N	-0.106845	-1.16685	-2.28964
O	-0.652923	-1.209231	-3.390058
O	0.747709	-1.930611	-1.862078
C	-0.475238	-1.187411	0.832329
H	-0.164508	-2.136355	0.395389
H	-1.563309	-1.180663	0.950358
H	-0.011396	-1.108587	1.817319
N	-0.403616	1.296997	0.546134
H	0.367535	1.668339	1.085724
H	-1.216014	1.209059	1.142639
Br	3.513103	0.0	0.0
