18

C	-0.419932	-0.003845	-1.451068
C	0.0	0.0	0.0
F	0.066252	1.073435	-2.082935
H	1.099396	0.0	0.0
N	0.004913	-1.203925	-2.284987
O	-0.282655	-1.113166	-3.475655
O	0.588306	-2.129554	-1.737324
N	-1.932094	0.024315	-1.616231
O	-2.45247	1.062868	-1.987801
O	-2.498044	-1.028542	-1.333973
C	-0.525082	-1.135239	0.860549
H	-0.304693	-2.10967	0.433435
H	-0.013075	-1.071868	1.824743
H	-1.601335	-1.03954	1.021152
N	-0.522993	1.278424	0.517932
H	0.114947	2.013264	0.229544
H	-0.461052	1.236073	1.528811
Br	3.51	0.0	0.0
