18

C	-0.551915	0.020251	-1.410679
C	0.0	0.0	0.0
F	-1.901711	0.024438	-1.402499
H	1.09204	0.0	0.0
N	-0.113789	1.267682	-2.165171
O	1.037954	1.261044	-2.577319
O	-0.934108	2.174237	-2.252098
N	-0.129877	-1.128568	-2.311061
O	-0.863938	-1.337133	-3.274783
O	0.903589	-1.716956	-2.025464
C	-0.498123	-1.241773	0.730667
H	-1.589114	-1.25207	0.804446
H	-0.153003	-2.157135	0.247807
H	-0.081162	-1.206937	1.736706
N	-0.412889	1.207192	0.708369
H	0.255666	1.948631	0.546995
H	-1.336085	1.518097	0.435806
Br	3.572317	0.0	0.0
