18

C	-0.571685	-0.074656	-1.395753
C	0.0	0.0	0.0
F	-1.908929	-0.199864	-1.394694
H	1.098297	0.0	0.0
N	-0.252185	1.133439	-2.259939
O	-0.891276	1.197634	-3.305367
O	0.600109	1.91636	-1.871559
N	-0.01094	-1.249621	-2.187157
O	1.072191	-1.064866	-2.726772
O	-0.68258	-2.275545	-2.187161
C	-0.457949	-1.209645	0.805652
H	-1.539019	-1.191594	0.962517
H	-0.188327	-2.149446	0.325584
H	0.053079	-1.176837	1.769197
N	-0.525816	1.244901	0.579122
H	0.234476	1.913355	0.604667
H	-0.815706	1.068119	1.535971
Br	3.524324	0.0	0.0
