18

C	-0.518091	0.05749	-1.421697
C	0.0	0.0	0.0
F	-1.863231	0.22416	-1.45594
H	1.090536	0.0	0.0
N	0.03781	1.183216	-2.280852
O	-0.384948	1.197045	-3.434433
O	0.802638	1.988141	-1.767498
N	-0.201278	-1.201964	-2.201571
O	-1.102815	-2.022964	-2.315742
O	0.950756	-1.293412	-2.601252
C	-0.475841	-1.28848	0.663421
H	-0.030458	-2.171048	0.200978
H	-0.144692	-1.243871	1.700365
H	-1.565448	-1.38441	0.640477
N	-0.43976	1.15689	0.768584
H	0.162223	1.940927	0.554193
H	-1.399315	1.400402	0.555053
Br	3.527753	0.0	0.0
