16
Coordinates from ORCA-job run
  C   -0.82876023102661     -0.31689164427915     -0.37512128746076
  C   0.53298160167059      0.27095409537591     -0.01400108728583
  F   -0.91499804302999     -1.62296879253996     -0.06920177472111
  H   0.48909381840994      1.35211304495063     -0.15773530774564
  C   -1.23802361557956     -0.06678522005354     -1.75756774966266
  N   -1.58594020316812      0.16411290562619     -2.85586149050839
  N   -1.84019053556735      0.43448976846702      0.52561408344168
  O   -2.42233604978154     -0.22445732289835      1.36926192905866
  O   -1.92498244366034      1.63496867143985      0.30664650000516
  N   1.58201295920116     -0.21827911279136     -0.97735528607562
  O   1.31149235479469     -1.17723836127473     -1.69492103444451
  O   2.64934485746562      0.38209984193650     -0.93228322770544
  C   0.96467273473919     -0.09024036913323      1.39764926307947
  H   1.93652296091833      0.36037645357788      1.59658678063397
  H   0.25070549333326      0.29138191560943      2.12898264943246
  H   1.03740434128073     -1.17263587401309      1.50830703995855
