16
Coordinates from ORCA-job run
  C   -0.85846857133910      0.22781431838188     -0.38842879929722
  C   0.64170817864070      0.00240489100198     -0.27115381137415
  F   -1.04250589972014      1.25033724654575     -1.28064161904426
  H   1.01537155398810     -0.20479279733998     -1.27557446019386
  C   -1.51566209226121      0.56313656735161      0.87231517933679
  N   -1.99520768176720      0.92973583641787      1.88036392341232
  N   -1.55077313739145     -0.97752257810693     -1.03350257695877
  O   -0.89812187858443     -1.55298058542001     -1.89388038561491
  O   -2.70446233363921     -1.19711133301236     -0.69630988610106
  N   0.91012754104081     -1.24002075414159      0.52509814652522
  O   -0.05306057934502     -1.80738470603566      1.03899860184282
  O   2.08227552906466     -1.58219663006632      0.60412473388577
  C   1.35680834895295      1.17980631278674      0.36589979869951
  H   1.04283777563473      1.31278026550172      1.40316653142407
  H   1.13576072687868      2.08998384509711     -0.19255208287774
  H   2.43137251984710      1.00301010103819      0.34007670633548
