16
Coordinates from ORCA-job run
  C   -0.90143409463203      0.16579780047081     -0.31707385169638
  C   0.61152016786113      0.00298884807385     -0.33441688593008
  F   -1.21491761470235      1.10325518131948     -1.26445988890486
  H   0.89399216737576     -0.27118885794749     -1.35244135038089
  C   -1.44519425666150      0.58209254200070      0.97321847206629
  N   -1.85021091867567      1.01849114300801      1.98609255780761
  N   -1.59909180004077     -1.11342568782272     -0.79052782716212
  O   -2.69391616400764     -1.35941411890122     -0.30748596393879
  O   -1.01676701398756     -1.72207656394977     -1.67842809710245
  N   1.00895713866231     -1.16038890076017      0.52445483987073
  O   2.19527116931326     -1.46016881335918      0.50521643124659
  O   0.12700430962694     -1.71085697881554      1.18270508746728
  C   1.33484275210492      1.25169655016772      0.13573091271082
  H   1.02618005320195      2.10541859141268     -0.46848556515782
  H   2.40855755810888      1.10859479919376      0.02012482016864
  H   1.11420654645236      1.45918446590908      1.18477630893542
