16
Coordinates from ORCA-job run
  C   -0.78572181207562      0.08646363654249     -0.69028398616303
  C   0.68708806525137      0.18507340156732     -0.28298918431157
  F   -0.95309513963266     -0.30241555441409     -1.97776771259306
  H   1.14188275371873      0.84370078672318     -1.03032881854431
  C   -1.43996102290403      1.38718268782401     -0.49992905257658
  N   -1.91316311047280      2.45465299641669     -0.36885372631336
  N   -1.56284793602472     -0.94600165127915      0.14217528099957
  O   -0.90481265869311     -1.82147106227978      0.68987046745204
  O   -2.78040973308300     -0.83046296996203      0.11601758061476
  N   1.40819808201960     -1.13637864517696     -0.48229721543142
  O   1.34947518035703     -1.61217104206231     -1.61073333227221
  O   2.02513727996065     -1.59589867370921      0.46879500576324
  C   0.88560209704783      0.72014917051964      1.12069684497634
  H   0.42820738371896      1.70582879091378      1.21776147172426
  H   1.95099298526781      0.81658577932471      1.32348723453197
  H   0.46442758554399      0.04316234905170      1.86237914214339
