14

C	0.0	0.0	0.0
C	-0.557375	-0.401293	-1.350633
Br	1.96976	0.0	0.0
H	-1.6658	-0.411244	-1.140711
H	-0.216569	-1.394286	-1.644212
N	-0.606468	1.151228	0.438892
H	-1.661073	0.911865	0.361314
H	-0.342833	1.367565	1.393521
N	-0.256914	-1.227522	0.9784
O	-0.328799	-2.356416	0.510945
O	-0.330192	-0.941462	2.167565
C	-0.233268	0.575192	-2.375323
N	0.006763	1.331027	-3.242365
H	-2.905793	0.0	0.0
