19

C	0.0	0.0	0.0
C	-0.325903	-0.079855	-1.500787
Br	2.098364	0.0	0.0
H	0.277781	0.694695	-1.994713
C	-0.373472	1.310885	0.654562
H	-1.463977	1.364202	0.709076
H	0.017927	2.153681	0.082383
H	0.038042	1.365108	1.665073
N	-0.517516	-1.089302	0.65677
H	-0.384285	-1.13578	1.65374
H	-0.399719	-1.956902	0.152433
C	-1.801478	0.191335	-1.761362
H	-2.072798	1.217911	-1.516156
H	-2.007774	0.050258	-2.828849
H	-2.467862	-0.447855	-1.182115
N	0.020029	-1.427115	-1.963926
H	1.016685	-1.481967	-2.135419
H	-0.469816	-1.62111	-2.827415
Cl	-4.880547	0.0	0.0
