19

C	0.0	0.0	0.0
C	-0.293329	0.370408	-1.466462
Br	2.110491	0.0	0.0
H	0.361961	1.214697	-1.720096
C	-0.361197	1.072307	1.004402
H	0.040804	0.821837	1.988961
H	0.05124	2.037036	0.704706
H	-1.451622	1.131812	1.064563
N	-0.52991	-1.213074	0.301325
H	-0.611962	-1.881479	-0.446771
H	-0.737787	-1.481011	1.244287
C	-1.744833	0.786172	-1.650715
H	-1.939274	0.941679	-2.717922
H	-1.956584	1.729478	-1.145879
H	-2.457218	0.059646	-1.260473
N	-0.011164	-0.812343	-2.286139
H	-0.44322	-0.699648	-3.194103
H	0.990602	-0.899089	-2.413162
Cl	-4.760682	0.0	0.0
