19

C	0.0	0.0	0.0
C	-0.310506	0.333401	-1.469505
Br	2.11049	0.0	0.0
H	0.318513	1.193641	-1.736467
C	-0.370618	1.085409	0.984638
H	0.029149	0.856412	1.975153
H	-1.461654	1.131446	1.041295
H	0.03225	2.048874	0.66853
N	-0.5217	-1.221564	0.331262
H	-0.418328	-1.535988	1.28123
H	-0.423637	-1.919498	-0.391986
C	-1.775151	0.708294	-1.654848
H	-2.470035	-0.017203	-1.230638
H	-2.001368	1.666468	-1.185941
H	-1.983212	0.818632	-2.725351
N	0.010636	-0.851117	-2.272479
H	-0.477005	-0.799677	-3.157366
H	1.007674	-0.879624	-2.450034
Cl	-4.849008	0.0	0.0
