19

C	0.0	0.0	0.0
C	-0.351058	0.197616	-1.525672
Br	1.989184	0.0	0.0
H	0.449463	-0.316991	-2.064729
C	-0.497109	1.090637	0.929849
H	-0.103537	2.075392	0.675733
H	-1.59141	1.099962	0.865694
H	-0.21135	0.859469	1.960481
N	-0.429872	-1.327245	0.391047
H	-0.156113	-1.488558	1.355475
H	-1.45082	-1.30523	0.373648
C	-0.340383	1.666633	-1.9264
H	0.579544	2.172631	-1.62361
H	-0.440256	1.726708	-3.012005
H	-1.196113	2.184378	-1.486034
N	-1.585258	-0.405063	-1.983281
H	-1.53094	-1.406406	-1.843391
H	-2.398805	-0.07844	-1.460585
Cl	-4.075546	0.0	0.0
