19

C	0.0	0.0	0.0
C	-0.272513	-0.299329	-1.521933
Br	1.979528	0.0	0.0
H	0.379441	0.397719	-2.05971
C	-0.459366	1.386904	0.413677
H	-0.087502	1.632272	1.412793
H	-1.553945	1.379578	0.435786
H	-0.109713	2.151253	-0.285576
N	-0.516296	-1.066904	0.815444
H	-0.402183	-0.826013	1.795334
H	-1.525178	-1.090171	0.640669
C	-1.691587	-0.05432	-2.006134
H	-2.39981	-0.798528	-1.648323
H	-1.664323	-0.083743	-3.098946
H	-2.092758	0.906785	-1.693143
N	0.106354	-1.648202	-1.933546
H	1.036705	-1.852576	-1.584913
H	-0.518586	-2.295171	-1.463787
Cl	-4.248612	0.0	0.0
