17

C	-0.241183	-0.015066	-1.507362
C	0.0	0.0	0.0
F	0.103643	-1.270853	-1.917786
H	1.093544	0.0	0.0
N	-1.726698	0.128383	-1.846118
O	-2.229551	-0.677206	-2.620173
O	-2.297199	1.084138	-1.326928
C	0.570187	0.986391	-2.286466
H	0.534011	0.7057	-3.341619
H	1.584433	0.902525	-1.884642
H	0.19716	1.996637	-2.143308
C	-0.59899	-1.151128	0.638008
N	-1.060689	-2.117146	1.123413
N	-0.388848	1.251075	0.693971
O	-0.989231	1.154556	1.762998
O	-0.006463	2.307798	0.201911
F	2.475351	0.0	0.0
