17

C	-0.262414	-0.013149	-1.501731
C	0.0	0.0	0.0
F	0.095637	-1.261346	-1.922349
H	1.093504	0.0	0.0
N	-1.755519	0.105942	-1.816206
O	-2.33133	1.053174	-1.288186
O	-2.260529	-0.709604	-2.580168
C	0.516931	1.003801	-2.291112
H	1.539804	0.93696	-1.908733
H	0.467555	0.725038	-3.347681
H	0.128847	2.006383	-2.138242
C	-0.58573	-1.156469	0.64202
N	-1.033667	-2.110649	1.162191
N	-0.383864	1.24716	0.706059
O	-0.950817	1.143115	1.792943
O	-0.024773	2.308172	0.205316
F	2.471279	0.0	0.0
