17

C	-0.468824	0.030935	-1.454011
C	0.0	0.0	0.0
F	0.280447	0.907199	-2.169001
H	1.094369	0.0	0.0
N	-0.143656	-1.35331	-2.037893
O	-0.991664	-2.228117	-1.869589
O	0.919071	-1.480236	-2.629298
C	-1.934136	0.309693	-1.695367
H	-2.552724	-0.38887	-1.134886
H	-2.140385	1.332418	-1.384941
H	-2.154734	0.208845	-2.760398
C	-0.50294	-1.137616	0.735353
N	-0.887296	-2.070349	1.340251
N	-0.367184	1.24009	0.725934
O	-0.490806	2.278256	0.074074
O	-0.438076	1.174908	1.952159
F	2.413514	0.0	0.0
