17

C	-0.41659	-0.176687	-1.447859
C	0.0	0.0	0.0
F	-1.764728	-0.400937	-1.567543
H	1.093338	0.0	0.0
N	-0.116748	1.067257	-2.284172
O	1.056388	1.406378	-2.327078
O	-1.046793	1.570071	-2.901126
C	0.385703	-1.308022	-2.050075
H	1.430914	-1.136561	-1.784853
H	0.241347	-1.337161	-3.132103
H	0.043848	-2.249675	-1.618018
C	-0.432538	-1.15911	0.757109
N	-0.736472	-2.141107	1.327406
N	-0.494072	1.231358	0.656439
O	-0.674173	2.222972	-0.048343
O	-0.625752	1.203395	1.878627
F	2.45974	0.0	0.0
