17

C	-0.476564	-0.020065	-1.451301
C	0.0	0.0	0.0
F	0.089753	0.988991	-2.162622
H	1.089144	0.0	0.0
N	0.035909	-1.298843	-2.133848
O	0.491479	-2.20515	-1.450322
O	-0.080662	-1.303687	-3.356322
C	-1.974562	0.028054	-1.640629
H	-2.451481	-0.819607	-1.145722
H	-2.352138	0.954078	-1.202119
H	-2.203775	0.01698	-2.706668
C	-0.572702	-1.094011	0.757028
N	-1.031207	-1.990169	1.365505
N	-0.431621	1.285688	0.627737
O	-1.121601	1.241401	1.650013
O	-0.041199	2.323369	0.098983
F	2.435941	0.0	0.0
