17

C	-0.389322	-0.079096	-1.46632
C	0.0	0.0	0.0
F	-1.729008	-0.325304	-1.625008
H	1.091105	0.0	0.0
N	-0.111521	1.23054	-2.203959
O	-1.065532	1.806936	-2.710132
O	1.063395	1.555811	-2.285718
C	0.450689	-1.145934	-2.131378
H	1.486833	-0.967485	-1.835006
H	0.325712	-1.104671	-3.21589
H	0.124838	-2.122738	-1.769946
C	-0.445234	-1.207879	0.66853
N	-0.735145	-2.22701	1.177309
N	-0.489615	1.188926	0.734894
O	-0.549951	2.251893	0.119818
O	-0.728684	1.055943	1.933346
F	2.462934	0.0	0.0
