17

C	-0.342936	-0.314492	-1.444942
C	0.0	0.0	0.0
F	-1.665985	-0.625459	-1.624303
H	1.100074	0.0	0.0
N	-0.056944	0.88291	-2.346549
O	-0.790561	1.021626	-3.319547
O	0.934794	1.545029	-2.083014
C	0.560356	-1.42833	-1.928311
H	0.46892	-1.53859	-3.010106
H	0.260337	-2.361133	-1.447058
H	1.578057	-1.171028	-1.621739
C	-0.420347	-1.101778	0.841774
N	-0.729331	-2.025202	1.501474
N	-0.577996	1.255434	0.532767
O	-1.128977	2.026341	-0.252578
O	-0.45194	1.446965	1.738271
F	2.478197	0.0	0.0
