17

C	-0.241557	0.135826	-1.503915
C	0.0	0.0	0.0
F	0.060925	-1.080927	-2.040602
H	1.107373	0.0	0.0
N	-1.726788	0.355549	-1.793904
O	-2.362267	-0.542434	-2.332485
O	-2.175398	1.441509	-1.432892
C	0.599445	1.189675	-2.170853
H	0.5498	1.038294	-3.252149
H	1.611492	1.02871	-1.787667
H	0.260633	2.187342	-1.908718
C	-0.59372	-1.204693	0.534432
N	-1.019037	-2.209024	0.974053
N	-0.427499	1.19126	0.776228
O	-1.234893	1.034407	1.693019
O	0.097133	2.261156	0.481063
F	2.477527	0.0	0.0
