17

C	-0.416179	-0.06224	-1.456148
C	0.0	0.0	0.0
F	-1.765194	-0.273367	-1.594346
H	1.107008	0.0	0.0
N	-0.113857	1.242612	-2.193742
O	1.061691	1.574224	-2.219044
O	-1.042535	1.80011	-2.761372
C	0.383149	-1.14512	-2.145724
H	1.430835	-0.997907	-1.873577
H	0.04081	-2.117639	-1.786875
H	0.235767	-1.090734	-3.226118
C	-0.434122	-1.211646	0.664934
N	-0.756106	-2.231545	1.150481
N	-0.487216	1.178573	0.749506
O	-0.593118	1.063713	1.968149
O	-0.686991	2.216901	0.121022
F	2.456041	0.0	0.0
