19

C	0.0	0.0	0.0
C	-0.258207	0.219776	-1.527682
Cl	1.768443	0.0	0.0
H	0.309117	1.122811	-1.760765
C	-0.530791	1.170961	0.788973
H	-0.218183	2.125962	0.359844
H	-0.179641	1.078008	1.817528
H	-1.631616	1.086339	0.770729
N	-0.658127	-1.197358	0.549553
O	-0.385729	-1.475116	1.744977
O	-1.830518	-1.353497	-0.017571
C	-1.639804	0.357955	-2.138111
H	-2.156389	-0.595368	-2.137277
H	-1.516076	0.743136	-3.155133
H	-2.253138	1.041274	-1.550342
N	0.450548	-0.824248	-2.35099
O	1.027399	-0.416586	-3.364888
O	0.368474	-1.998825	-2.014449
H	-3.023313	0.0	0.0
