16

C	-0.403813	0.060135	-1.463905
C	0.0	0.0	0.0
Br	0.134622	-1.501573	-2.470194
H	1.101999	0.0	0.0
H	0.063705	0.916563	-1.943917
N	-1.887978	0.268	-1.612893
O	-2.645043	-0.69136	-1.564134
O	-2.232775	1.448643	-1.707711
N	-0.579642	-1.172462	0.65972
H	-0.236392	-1.158482	1.61477
H	-0.171681	-2.00207	0.239494
C	-0.457655	1.25772	0.729259
H	-1.543106	1.273028	0.853921
H	-0.140872	2.160214	0.203486
H	0.012053	1.271062	1.716333
Cl	3.436681	0.0	0.0
