16

C	-0.419533	0.025652	-1.471057
C	0.0	0.0	0.0
Br	0.280451	-1.444061	-2.487593
H	1.09456	0.0	0.0
H	-0.091332	0.94478	-1.952987
N	-1.92304	0.043362	-1.564969
O	-2.430203	1.16948	-1.598864
O	-2.547403	-1.011045	-1.514721
N	-0.437239	-1.23353	0.633035
H	0.27749	-1.54094	1.280845
H	-1.307509	-1.10366	1.136133
C	-0.464438	1.266008	0.717753
H	-0.143204	2.170316	0.194974
H	-1.553811	1.301798	0.825735
H	-0.01212	1.273836	1.711951
Cl	3.420601	0.0	0.0
