16

C	-0.351661	-0.117574	-1.491149
C	0.0	0.0	0.0
Br	-0.008444	-1.866822	-2.234674
H	1.09756	0.0	0.0
H	0.215755	0.59725	-2.083352
N	-1.795876	0.219915	-1.721846
O	-2.648843	-0.504337	-1.212747
O	-2.029129	1.258159	-2.341428
N	-0.473177	-1.061704	0.864623
H	-1.413443	-1.338414	0.609995
H	0.137977	-1.862804	0.772197
C	-0.482175	1.355072	0.50919
H	-0.161926	2.172217	-0.142747
H	-1.573076	1.382941	0.6041
H	-0.047523	1.508483	1.496612
Cl	3.406037	0.0	0.0
