16

C	-0.602111	0.009023	-1.391242
C	0.0	0.0	0.0
Br	0.177056	1.337157	-2.568452
H	1.093171	0.0	0.0
H	-1.67539	0.192907	-1.35562
N	-0.477995	-1.322244	-2.083715
O	0.526112	-1.991046	-1.87591
O	-1.409602	-1.632322	-2.825401
N	-0.5543	-1.206152	0.644402
H	-0.598124	-1.036189	1.642208
H	0.121568	-1.951416	0.511006
C	-0.471294	1.235727	0.752884
H	-0.171573	2.151175	0.242895
H	-0.005847	1.246151	1.741354
H	-1.560735	1.225788	0.872917
Cl	3.487708	0.0	0.0
