16

C	-0.542675	0.052204	-1.434928
C	0.0	0.0	0.0
Br	0.240611	1.438527	-2.529665
H	1.09546	0.0	0.0
H	-1.621971	0.210917	-1.444696
N	-0.36127	-1.280394	-2.109663
O	0.751257	-1.606894	-2.494634
O	-1.375973	-1.984391	-2.15162
N	-0.422853	-1.221261	0.678883
H	0.218993	-1.971582	0.457021
H	-1.360067	-1.502607	0.416023
C	-0.500523	1.213828	0.76969
H	-0.174557	2.14816	0.310121
H	-1.595777	1.210238	0.839351
H	-0.091051	1.159792	1.778578
Cl	3.454324	0.0	0.0
