15
Coordinates from ORCA-job run
  C   -0.61425740795541     -0.22055396093414      0.18384613818478
  C   0.77965898295478     -0.05382773009463     -0.43878437816232
  H   -0.59772247580403     -1.10380734340765      0.83471901245944
  H   0.76284211614356      0.81993412097370     -1.09914838389989
  H   0.96143366294388     -0.92813887852820     -1.07333973031622
  C   -1.70371190104830     -0.40559207242310     -0.87703333105992
  H   -2.68648374135623     -0.53143340566601     -0.41877862701481
  H   -1.48618619003930     -1.29146617732154     -1.47845124748137
  H   -1.74198255009180      0.46182967888957     -1.53974256658139
  C   -0.92669024209057      0.93179840934983      1.03516228410326
  N   -1.16963339231794      1.87188387634722      1.69562868372282
  C   1.89066195852388      0.08642838063774      0.59551645016332
  H   2.86558014674662      0.16563554815865      0.10967677123937
  H   1.91823788477043     -0.78115928691659      1.26044306733401
  H   1.74825314862044      0.97846884093516      1.20928585730891
