15
Coordinates from ORCA-job run
  C   -0.62348327411510     -0.45287857153543      0.24553780776954
  C   0.76495545572310      0.06831189247770      0.65449790898663
  H   -0.51603008044474     -1.48809487098863     -0.10270488738624
  H   0.65267181579267      1.08529322850429      1.04565798680813
  H   1.13422490490967     -0.54595960251016      1.48146756238866
  C   -1.28023020843230      0.37664606906325     -0.86291778121098
  H   -1.34611896987524      1.42549841213188     -0.56378003573239
  H   -0.69985311656559      0.31289222083342     -1.78400224505438
  H   -2.28906825086140      0.01707091068585     -1.07235377120775
  C   -1.49592588242939     -0.48771025452392      1.42413749573016
  N   -2.18917147822494     -0.49098430098130      2.37181745198360
  C   1.77192440850107      0.04955130049391     -0.49123465595014
  H   2.76630776371900      0.31751673356529     -0.12769089496005
  H   1.83960361023126     -0.94599373255425     -0.93917651170394
  H   1.51019330207193      0.75884056533810     -1.27825543046085
