15
Coordinates from ORCA-job run
  C   -0.57716783812746     -0.34404373815523      0.08635131904853
  C   0.73358377263887      0.24728156220188     -0.45225704414305
  H   -0.44015290903057     -1.42496315360458      0.21722136750876
  H   0.90426267226207     -0.18445071873235     -1.44452806293094
  H   0.59624226207618      1.32472265662015     -0.59409642369659
  C   -1.75452756960434     -0.10315264586753     -0.86343030907089
  H   -1.54238842864965     -0.55483179614738     -1.83524971637496
  H   -1.91570139650363      0.96743755852904     -1.00721256009974
  H   -2.67567099212776     -0.53944491801622     -0.47292596264872
  C   -0.87373788970537      0.21041997505524      1.41121630852970
  N   -1.11263584423454      0.67984351836446      2.46074235129211
  C   1.93254615218761     -0.01824840327594      0.45093733525604
  H   2.84624414801622      0.38994825761059      0.01350289663864
  H   1.79659468206281      0.44089981920420      1.43254298794256
  H   2.08250917873956     -1.09141797378634      0.59718551274856
