14
Coordinates from ORCA-job run
  C   -0.66626021406988     -0.18499291070908     -0.43026063200700
  C   0.82701592122240      0.08456312150279     -0.16082649668480
  H   -0.72964204771807     -1.05825844728292     -1.08324885770331
  H   1.29917412057836      0.34335487679433     -1.11307717243750
  N   -1.21435121702791      0.99892295722205     -1.07743903105216
  H   -1.69082146718744      0.75247258608874     -1.93320748335336
  H   -1.85457791755818      1.49989812222662     -0.47739464989672
  C   -1.34017790332129     -0.52597526312242      0.83026723310153
  N   -1.89641584319442     -0.76149344392639      1.83769360812173
  N   1.53991715754710     -1.16340350564037      0.32978095918198
  O   1.10214487136213     -2.22722107957660     -0.09642403175292
  O   2.51678778854295     -1.00766061925781      1.04862912740773
  C   1.00537836259656      1.17422846808295      0.78908308880560
  N   1.10282838822768      2.07556513759811      1.53542433826918
