14
Coordinates from ORCA-job run
  C   -0.80167499998596     -0.25005034023793     -0.00673035723164
  C   0.59378574888351      0.33903256793772      0.35763955061509
  H   -0.77657939339530     -1.31059730341239      0.26269566921473
  H   0.62065939801778      1.41655849001182      0.18208931401550
  N   -1.16795207585604     -0.14560533990333     -1.39561014834496
  H   -0.62695803118447     -0.77329122616598     -1.97474883449419
  H   -1.10304576191355      0.80052194248201     -1.74821664671569
  C   -1.79387546226925      0.42729677467523      0.83781495222135
  N   -2.56703353809768      1.00575172374745      1.50569103054760
  N   1.57303561281565     -0.27152927971768     -0.61027827097280
  O   1.69255524333766     -1.49090175664702     -0.55941784465977
  O   2.11194478305044      0.49155228726827     -1.40415952051859
  C   0.98438151235313      0.01547990109203      1.72225759155235
  N   1.26175696424408     -0.25621844113022      2.83097351477101
