14
Coordinates from ORCA-job run
  C   -0.82490224134726     -0.16966110297482     -0.13545423253548
  C   0.63826205129223     -0.66455147992143     -0.08250416255222
  H   -1.30984015004591     -0.74883442900605     -0.93739328736213
  H   0.68881717034271     -1.68740518641135      0.29912732018442
  N   -0.81634851846526      1.26842255451514     -0.34078381283837
  H   -1.73737499871584      1.65825284479523     -0.18532096854871
  H   -0.52863487293220      1.48807402079649     -1.28794073514142
  C   -1.53512086589494     -0.49265332983823      1.10691496587052
  N   -2.17378394161054     -0.75360869315251      2.05655609824983
  N   1.40434905931117      0.19512035901243      0.90028353571521
  O   1.12184374880117     -0.00470223484911      2.07443760852991
  O   2.20100260366332      1.00690297340269      0.45323674311540
  C   1.23517984233143     -0.57437584467513     -1.40953064516168
  N   1.63755111326994     -0.52098045169335     -2.51162842752528
