17

C	0.0	0.0	0.0
C	-0.488935	-0.347733	-1.412968
Cl	1.855687	0.0	0.0
H	-0.196399	0.515008	-2.037542
N	-0.531066	1.228577	0.430002
H	-0.335685	1.974833	-0.223561
H	-0.25642	1.48081	1.367839
C	-0.336957	-1.067224	0.94963
N	-0.589368	-1.90988	1.727554
C	-2.003053	-0.50155	-1.417197
H	-2.541724	0.333888	-0.974536
H	-2.300597	-1.387467	-0.853021
H	-2.344955	-0.625015	-2.449459
N	0.127045	-1.593982	-1.839305
H	-0.444189	-2.019333	-2.557452
H	1.056825	-1.441572	-2.205836
Cl	-5.233783	0.0	0.0
