17

C	0.0	0.0	0.0
C	-0.586795	-0.014293	-1.418593
Cl	1.850722	0.0	0.0
H	-1.662839	-0.101423	-1.204346
N	-0.501285	1.104833	0.685564
H	-0.157889	1.222146	1.625641
H	-0.461698	1.932372	0.105379
C	-0.318364	-1.24749	0.712254
N	-0.513695	-2.236449	1.313562
C	-0.111015	-1.185593	-2.260202
H	-0.300671	-2.139313	-1.760132
H	-0.658461	-1.189723	-3.206723
H	0.960281	-1.109111	-2.472263
N	-0.351651	1.29745	-2.012187
H	0.467888	1.274219	-2.608061
H	-1.156229	1.562572	-2.564677
Cl	-3.925953	0.0	0.0
