17

C	0.0	0.0	0.0
C	-0.515458	0.275287	-1.41895
Cl	1.864271	0.0	0.0
H	-1.606855	0.242813	-1.290692
N	-0.490623	0.955836	0.877356
H	-0.421526	1.884663	0.487471
H	-0.174746	0.870842	1.829666
C	-0.330031	-1.360059	0.444136
N	-0.516327	-2.453748	0.8284
C	-0.085503	-0.777661	-2.430959
H	1.001704	-0.793013	-2.552818
H	-0.417992	-1.77405	-2.130916
H	-0.542442	-0.549488	-3.397432
N	-0.13789	1.645111	-1.763101
H	0.759857	1.648039	-2.234801
H	-0.832596	2.034339	-2.386804
Cl	-3.883459	0.0	0.0
