17

C	0.0	0.0	0.0
C	-0.360346	-0.017399	-1.553393
Cl	1.792548	0.0	0.0
H	0.445778	-0.592782	-2.019749
N	-0.557596	1.030967	0.821229
H	-1.564566	0.856561	0.894883
H	-0.427643	1.927459	0.36731
C	-0.371284	-1.312226	0.556276
N	-0.563152	-2.4168	0.908116
C	-0.334319	1.403913	-2.095273
H	0.5756	1.941525	-1.813451
H	-0.393168	1.359506	-3.183487
H	-1.209399	1.955841	-1.741873
N	-1.598371	-0.647726	-1.926242
H	-1.580175	-1.629718	-1.676222
H	-2.402137	-0.253688	-1.431696
Cl	-4.012168	0.0	0.0
