14

C	0.0	0.0	0.0
C	-0.477501	0.2141	-1.421127
Cl	1.803267	0.0	0.0
H	-0.152832	1.217932	-1.739593
H	-0.296217	-0.99617	0.327553
H	-1.570545	0.198773	-1.37671
C	-0.484316	1.078658	0.945058
H	-0.065796	2.046562	0.654828
H	-1.575389	1.115544	0.901452
H	-0.170519	0.865326	1.969251
N	-0.018953	-0.85767	-2.305041
H	0.935422	-0.680059	-2.592393
H	-0.597529	-0.871898	-3.134918
Br	-4.028318	0.0	0.0
