18

C	-0.237017	0.050574	-1.513488
C	0.0	0.0	0.0
F	-1.567636	0.468014	-1.78273
H	1.091169	0.0	0.0
N	0.661163	1.09328	-1.945229
H	0.764511	1.062193	-2.953851
H	1.566735	0.901958	-1.489575
C	-0.047824	-1.26545	-2.237748
H	0.958961	-1.626551	-2.02269
H	-0.164385	-1.08978	-3.313201
H	-0.776182	-2.017445	-1.927508
N	-0.584856	-1.240191	0.580983
O	-1.697502	-1.164051	1.110452
O	0.053285	-2.288391	0.4697
N	-0.502678	1.135167	0.717921
H	0.160418	1.880995	0.573416
H	-1.395359	1.416957	0.337768
F	2.634985	0.0	0.0
