18

C	-0.12766	0.054753	-1.534389
C	0.0	0.0	0.0
F	-1.413073	0.492367	-1.905819
H	1.090061	0.0	0.0
N	0.826388	1.031453	-2.028273
H	0.556731	1.928505	-1.634525
H	1.710735	0.780277	-1.552061
C	0.155204	-1.275696	-2.186166
H	-0.600113	-2.016881	-1.924892
H	0.170741	-1.127984	-3.2655
H	1.132101	-1.614917	-1.840859
N	-0.63246	-1.239452	0.533138
O	-1.836234	-1.194496	0.803932
O	0.056864	-2.257769	0.616783
N	-0.520352	1.138432	0.69424
H	-1.296223	1.560551	0.205564
H	0.224266	1.801918	0.844148
F	2.655483	0.0	0.0
