15
Coordinates from ORCA-job run
  C   -0.62783419930413      0.59394924096541     -0.32655275902886
  C   0.57639236541112     -0.34945827554380     -0.29001735834658
  H   -0.44252100317473      1.41021770725103     -1.02773845772015
  H   0.76897397360899     -0.69765824477258     -1.30570493508924
  C   -0.94081637442855      1.10013287824030      1.00248823056856
  N   -1.11969976740992      1.49976647780899      2.09243164069349
  N   -1.79122060313543     -0.19668106053105     -0.89352365368288
  O   -1.60829258491755     -0.61529631823023     -2.02974573447615
  O   -2.78510901813682     -0.34706037692193     -0.19924841720723
  N   0.36187456899840     -1.42152219318995      0.59214207864577
  H   1.05443640213489     -2.14912610840412      0.48588992516683
  H   0.32934851906708     -1.12788098726196      1.56077425554121
  N   1.78844981906120      0.55075610111237      0.04058062313579
  O   2.41807959897040      0.29868652867420      1.06052532224495
  O   2.01793830325507      1.44917463080331     -0.76330076044549
