15
Coordinates from ORCA-job run
  C   -0.58272001852013      0.61020310824309     -0.34766732961860
  C   0.56100410139042     -0.38490616325387     -0.26561378834919
  H   -0.31373301191028      1.43360358048439     -1.02132988101019
  H   0.78123828230613     -0.74220090741836     -1.26716778129194
  C   -0.96208645654742      1.11024885787538      0.96352420928286
  N   -1.22200884688338      1.61994831994081      2.01604209449168
  N   -1.73983847296883     -0.14412021775964     -1.00235633243929
  O   -2.81135765961452     -0.20954036590588     -0.36996962451143
  O   -1.49099380831269     -0.60402093888955     -2.10150734790375
  N   0.28187104345857     -1.44061693275464      0.63352700097794
  H   0.16570912259578     -1.10901218733578      1.61856055621535
  H   1.02789359240598     -2.17271040658621      0.62142605835635
  N   1.80336940724915      0.48601064719411      0.09078684873061
  O   2.13152262828405      1.34724242558535     -0.69578779561631
  O   2.37213009706716      0.19987118058077      1.12853311268593
