15
Coordinates from ORCA-job run
  C   -0.55935206818330      0.56671048645917     -0.33997367084344
  C   0.70569150718217     -0.31398930198806     -0.24580613348115
  H   -0.38932487128240      1.40377066197462     -1.02455357547602
  H   0.97489708702710     -0.62247113555604     -1.25452627616716
  C   -0.96872068995824      1.04208154970811      0.97310469553916
  N   -1.22391994977958      1.39556275474655      2.06403213636636
  N   -1.68274827545046     -0.24664342695617     -0.96383463807022
  O   -1.34435544723017     -1.05912748977288     -1.81732042539218
  O   -2.82408332604588      0.00613831590624     -0.60506551009919
  N   0.66537056122988     -1.42933116209862      0.61636758997308
  H   0.21163984277402     -2.22497047193573      0.19390484462987
  H   0.30935838609662     -1.23084183895174      1.54091977923614
  N   1.79313997025378      0.65665394277012      0.18773396722197
  O   2.10689065134748      1.49603898157818     -0.65332268541548
  O   2.22651662201897      0.56041813411626      1.32733990197824
