15
Coordinates from ORCA-job run
  C   -0.54602752239750      0.64009088489908     -0.36623020819758
  C   0.56906894464526     -0.39508832150498     -0.21496212688896
  H   -0.21195145355887      1.46025214861269     -1.00760118398636
  H   0.82545873971109     -0.76194173085397     -1.20941026324123
  C   -0.99046125191139      1.12741076985799      0.93213070868265
  N   -1.25455545912010      1.47051983901678      2.02496094824830
  N   -1.68480068100030     -0.02691171065353     -1.11779933878702
  O   -1.37725058697446     -0.45788222739958     -2.22276441433748
  O   -2.78887923724516     -0.05409143617262     -0.59323368035271
  N   0.19343088801697     -1.44162752158792      0.64274969891210
  H   0.81875331314664     -2.23239999666148      0.57792402538671
  H   0.12135070177432     -1.14339230189190      1.60723556254383
  N   1.81288584310537      0.41066562886590      0.21973042925832
  O   2.24931929720728      1.20264123189452     -0.61023760307015
  O   2.26365846460084      0.20175474357903      1.33850744582960
