15
Coordinates from ORCA-job run
  C   -0.51084834940199      0.60332977854977     -0.36319933629494
  C   0.70418965437319     -0.33820722959969     -0.20677456823008
  H   -0.25722795822957      1.44057408850366     -1.02077645960718
  H   1.02771357231538     -0.63429091656771     -1.20323918492306
  C   -0.98120438759610      1.07505935192956      0.93034805729575
  N   -1.29187443178688      1.42312201237692      2.00858909856296
  N   -1.61999659854924     -0.15450211313730     -1.07332256090406
  O   -2.77087596544177      0.05806342058805     -0.71835812493715
  O   -1.25620893214475     -0.89280579199437     -1.98187610760996
  N   0.55174731194353     -1.46939259324554      0.62050685458564
  H   0.10850219273895     -2.24091855116618      0.14585705599817
  H   0.13190210911009     -1.27913395142353      1.51956278901916
  N   1.80232184930825      0.57004888133492      0.32512145611691
  O   2.14774872827075      0.43050336839722      1.48992719255183
  O   2.21411120509015      1.40955024545423     -0.47236616162400
