16

C	-0.407442	0.063886	-1.470339
C	0.0	0.0	0.0
Cl	-2.209619	0.326109	-1.63221
H	1.090106	0.0	0.0
C	0.329675	1.207403	-2.145834
H	0.097338	1.244537	-3.212164
H	0.034846	2.136606	-1.659654
H	1.402172	1.043624	-1.979208
C	-0.118473	-1.205052	-2.142392
N	0.087859	-2.217838	-2.701624
C	-0.51356	-1.193302	0.661438
N	-0.94994	-2.14061	1.206519
N	-0.335256	1.240535	0.683716
H	-1.170535	1.14742	1.245491
H	0.453871	1.470351	1.281
H	2.654509	0.0	0.0
