16

C	-0.33125	0.058396	-1.495801
C	0.0	0.0	0.0
Cl	-2.12723	0.342351	-1.762568
H	1.097428	0.0	0.0
C	0.448636	1.181997	-2.156761
H	0.119693	2.140138	-1.752875
H	0.296948	1.178531	-3.23744
H	1.50564	1.028432	-1.900752
C	-0.025614	-1.217439	-2.14239
N	0.22183	-2.241985	-2.662651
C	-0.549484	-1.19726	0.623663
N	-0.975768	-2.165173	1.137952
N	-0.345848	1.186742	0.754912
H	0.447048	1.818366	0.725665
H	-1.180714	1.639583	0.405406
H	2.644351	0.0	0.0
