16

C	-0.433055	-0.097598	-1.473288
C	0.0	0.0	0.0
Cl	0.146114	1.379652	-2.323147
H	1.101933	0.0	0.0
C	0.220376	-1.310746	-2.12218
H	1.295828	-1.237567	-1.934945
H	-0.164061	-2.227443	-1.668894
H	0.01992	-1.326576	-3.194946
C	-1.891437	-0.121472	-1.604053
N	-3.062597	-0.197835	-1.678686
C	-0.439594	-1.191044	0.712097
N	-0.775963	-2.145822	1.313477
N	-0.447317	1.228838	0.638272
H	-1.056506	1.04472	1.419965
H	0.38553	1.705656	0.969744
H	2.677829	0.0	0.0
