16

C	-0.451134	0.049357	-1.470064
C	0.0	0.0	0.0
Cl	0.250715	-1.35723	-2.352541
H	1.095372	0.0	0.0
C	-1.96694	-0.009531	-1.655313
H	-2.341009	-0.946314	-1.238508
H	-2.223791	0.042194	-2.715475
H	-2.44596	0.827229	-1.138448
C	0.056245	1.277588	-2.093648
N	0.353979	2.282811	-2.62493
C	-0.553209	-1.184946	0.643331
N	-0.991065	-2.146323	1.16192
N	-0.314914	1.205095	0.756159
H	-1.087678	1.731345	0.372223
H	0.522715	1.784076	0.730562
H	2.611048	0.0	0.0
