16

C	-0.406387	0.046772	-1.469797
C	0.0	0.0	0.0
Cl	-2.213067	0.292988	-1.637677
H	1.096436	0.0	0.0
C	0.321066	1.188475	-2.157614
H	0.09233	1.210032	-3.224495
H	1.39395	1.036473	-1.986538
H	0.016557	2.121134	-1.684379
C	-0.106576	-1.227504	-2.126279
N	0.143191	-2.2451	-2.660075
C	-0.50638	-1.186674	0.677938
N	-0.91664	-2.112157	1.278282
N	-0.337314	1.245855	0.672102
H	-1.173146	1.155647	1.233167
H	0.450095	1.480894	1.269488
H	2.644139	0.0	0.0
