16

C	-0.332013	0.057056	-1.497061
C	0.0	0.0	0.0
Cl	-2.134895	0.331796	-1.760954
H	1.09743	0.0	0.0
C	0.440963	1.187357	-2.154397
H	1.49803	1.041197	-1.895834
H	0.103795	2.144478	-1.752794
H	0.295612	1.182086	-3.233443
C	-0.018945	-1.216696	-2.144751
N	0.228156	-2.242571	-2.662784
C	-0.54793	-1.198126	0.621125
N	-0.971496	-2.168173	1.133485
N	-0.348009	1.184029	0.755811
H	-1.197412	1.621401	0.420159
H	0.433844	1.829193	0.710569
H	2.64231	0.0	0.0
