16

C	-0.406818	0.04526	-1.469496
C	0.0	0.0	0.0
Cl	-2.210522	0.303149	-1.635576
H	1.096419	0.0	0.0
C	0.327667	1.17912	-2.161813
H	0.028604	2.114864	-1.691647
H	0.09901	1.198011	-3.228933
H	1.399023	1.021168	-1.989383
C	-0.118236	-1.232281	-2.123185
N	0.11513	-2.251496	-2.659665
C	-0.50873	-1.183992	0.681053
N	-0.918267	-2.10588	1.287482
N	-0.333744	1.248236	0.670169
H	0.451978	1.479262	1.271709
H	-1.17394	1.162767	1.226186
H	2.644209	0.0	0.0
