16
Coordinates from ORCA-job run
  C   0.70741149495648     -0.01914766879488      0.21844662535488
  C   -0.70664962296924     -0.60127590897297      0.42972176564858
  Br  2.01797957091768     -1.37626760371572      0.67054869393575
  H   -0.74680999830216     -1.00018245623652      1.44450187845974
  N   0.89966210162600      1.09383312540999      1.24504813565532
  O   1.54234674150852      2.07777759100944      0.89932682561755
  O   0.40729474397021      0.90312946491078      2.35278593947866
  C   0.94221568421800      0.49794009973555     -1.17780805110771
  H   1.94740771536615      0.90273432492974     -1.27210480087061
  H   0.82458382393301     -0.32812206342115     -1.87966684582093
  H   0.22504031469761      1.29063185543735     -1.40772530918270
  N   -0.95480869241576     -1.66757637835899     -0.52249102829983
  H   -1.61045074285636     -2.33403669481909     -0.13744973410155
  H   -1.34340837851306     -1.30467272145919     -1.38365193474411
  C   -1.68178706844458      0.50327225906437      0.33618595014398
  N   -2.47002768769249      1.36196277528129      0.18533188983296
