16
Coordinates from ORCA-job run
  C   0.59356177458083      0.05188285226380      0.19019350833206
  C   -0.90299102606006     -0.16553292370661     -0.08341914166191
  Br  1.16060728149380     -1.05641234057225      1.66910631463337
  H   -1.14885728952367      0.51129359057122     -0.90791858138020
  N   0.71357842958219      1.53486201386000      0.56153155075544
  O   1.20106046727053      1.86458024626821      1.62828383146013
  O   0.30475398853535      2.28680744328633     -0.31877998379838
  C   1.47295522358830     -0.20087977697391     -1.01841352689359
  H   1.41819112217198     -1.25155139381778     -1.30484605335842
  H   1.13718409418640      0.42354728436962     -1.84865751296820
  H   2.51040255937311      0.04270086188993     -0.78339048330414
  N   -1.68584876859960      0.23963183351469      1.06492473483214
  H   -1.63358080928300     -0.45483246810088      1.80042239017475
  H   -2.65613608044925      0.36254179234302      0.80480288619254
  C   -1.12859706488588     -1.54591005920035     -0.54952178596170
  N   -1.35528390198102     -2.64272895599502     -0.90531814705390
