16
Coordinates from ORCA-job run
  C   0.67297108555691     -0.02539937494327      0.17841511231723
  C   -0.75755829168474     -0.58771278824778      0.32290951508491
  Br  1.92392974561262     -1.50768931502488      0.38277539765895
  H   -0.83248001530773     -1.05518846234005      1.31048696322124
  N   0.94579901900673      0.89550213634857      1.36595602479614
  O   0.37494396304796      0.62745087542156      2.41882263221118
  O   1.73199703036738      1.81675242183487      1.18536558404501
  C   0.91592889609660      0.69910431830205     -1.11974441180151
  H   0.66047451110245      0.02993838945854     -1.93985723764240
  H   1.95430932163607      1.01362639514004     -1.19571204365320
  H   0.27711398483576      1.58496940042521     -1.16541787294066
  N   -1.04529003106465     -1.48039080012261     -0.79554764927782
  H   -2.04607157830849     -1.60619064256623     -0.88459195659077
  H   -0.62940033387565     -2.38588467192871     -0.61368145194099
  C   -1.69577825317802      0.54087727926570      0.29387973337947
  N   -2.45088905384322      1.43923483897698      0.25594166113323
