17

C	-0.360806	-0.079451	-1.479756
C	0.0	0.0	0.0
Cl	-2.164692	-0.3057	-1.732374
H	1.104058	0.0	0.0
C	-0.041744	1.187427	-2.14418
N	0.179902	2.195105	-2.707161
C	0.387056	-1.22374	-2.143324
H	0.205527	-1.23988	-3.219661
H	1.451994	-1.074286	-1.921706
H	0.06232	-2.169479	-1.705966
C	-0.428582	-1.211307	0.678146
N	-0.749548	-2.184941	1.255325
C	-0.483264	1.248638	0.724823
H	-0.131096	1.214573	1.758216
H	-0.043463	2.132075	0.256701
H	-1.573054	1.33791	0.72086
H	2.677097	0.0	0.0
