17

C	-0.398444	0.063059	-1.483935
C	0.0	0.0	0.0
Cl	0.050213	-1.493262	-2.278901
H	1.096524	0.0	0.0
C	-1.847004	0.220895	-1.654352
N	-3.00447	0.39379	-1.777588
C	0.366232	1.183558	-2.183338
H	1.423648	1.065173	-1.92427
H	0.009826	2.154905	-1.834824
H	0.219869	1.123863	-3.26347
C	-0.541151	-1.180412	0.651282
N	-0.987621	-2.109144	1.218796
C	-0.40418	1.261328	0.767573
H	0.18711	2.108226	0.414877
H	-1.471767	1.490667	0.688967
H	-0.155023	1.118832	1.821168
H	2.727679	0.0	0.0
