12

C	-0.389907	0.047801	-1.471612
C	0.0	0.0	0.0
Cl	-0.140916	-1.544674	-2.2357
H	1.090598	0.0	0.0
H	-1.432131	0.327451	-1.62787
H	0.273059	0.75	-1.9684
C	-0.571218	-1.101785	0.740463
N	-1.019444	-2.024973	1.31413
N	-0.373393	1.277851	0.6422
O	-0.466649	2.267359	-0.091191
O	-0.500307	1.304913	1.86513
F	2.451743	0.0	0.0
