12

C	-0.523566	-0.091474	-1.416882
C	0.0	0.0	0.0
Cl	0.381519	0.930237	-2.567148
H	1.090913	0.0	0.0
H	-0.394982	-1.119808	-1.752337
H	-1.571812	0.199573	-1.487029
C	-0.451992	-1.144263	0.76791
N	-0.81328	-2.112436	1.329657
N	-0.445506	1.231783	0.693136
O	-0.953677	2.131222	0.019455
O	-0.238407	1.295945	1.903455
F	2.447351	0.0	0.0
