12

C	-0.247049	-0.001381	-1.477696
C	0.0	0.0	0.0
Cl	-1.987554	0.009699	-1.954029
H	1.0952	0.0	0.0
H	0.20034	-0.901764	-1.895073
H	0.218297	0.879593	-1.908938
C	-0.540425	-1.145563	0.693359
N	-0.934541	-2.123336	1.213434
N	-0.425099	1.260378	0.639272
O	-0.768346	1.227077	1.821016
O	-0.337645	2.287125	-0.034132
F	2.448649	0.0	0.0
