12

C	-0.390035	0.105864	-1.470359
C	0.0	0.0	0.0
Cl	-0.172542	-1.463889	-2.288791
H	1.090628	0.0	0.0
H	-1.427229	0.408747	-1.614431
H	0.285851	0.813599	-1.943485
C	-0.574084	-1.126128	0.700908
N	-1.023312	-2.065364	1.247058
N	-0.367366	1.254433	0.689154
O	-0.452884	2.27055	-0.00679
O	-0.491977	1.238742	1.910922
F	2.453326	0.0	0.0
