12

C	-0.383528	0.071809	-1.472729
C	0.0	0.0	0.0
Cl	-0.146678	-1.514586	-2.254679
H	1.090663	0.0	0.0
H	-1.422901	0.36291	-1.630076
H	0.2888	0.773761	-1.956974
C	-0.574337	-1.112315	0.721959
N	-1.019856	-2.041845	1.287914
N	-0.36594	1.27014	0.65907
O	-0.515291	1.276881	1.880633
O	-0.419525	2.276044	-0.056717
F	2.450603	0.0	0.0
