14

C	-0.415028	0.02343	-1.444296
C	0.0	0.0	0.0
F	-1.807795	0.183182	-1.582004
H	1.091564	0.0	0.0
H	-0.144903	-0.905147	-1.941837
C	0.212677	1.164872	-2.125822
N	0.656115	2.075378	-2.717782
N	-0.45761	-1.305846	0.591877
O	-0.800413	-1.342524	1.768534
O	-0.390225	-2.301433	-0.137546
N	-0.449456	1.111767	0.763584
H	-1.244407	1.591061	0.366575
H	0.323339	1.741487	0.922549
F	2.515641	0.0	0.0
