14

C	-0.550745	-0.013636	-1.421274
C	0.0	0.0	0.0
F	-0.13076	1.131555	-2.079405
H	1.090019	0.0	0.0
H	-1.648202	0.010848	-1.403945
C	-0.124741	-1.189082	-2.19698
N	0.183662	-2.104729	-2.863
N	-0.593355	-1.231354	0.631818
O	-1.811671	-1.203435	0.851351
O	0.131866	-2.19456	0.865935
N	-0.430263	1.146094	0.741902
H	0.345936	1.792987	0.759943
H	-1.25924	1.594745	0.374787
F	2.554674	0.0	0.0
