14

C	-0.5155	0.060223	-1.424016
C	0.0	0.0	0.0
F	-0.009183	-0.906646	-2.263566
H	1.093489	0.0	0.0
H	-0.187704	1.030882	-1.798707
C	-1.991934	0.015858	-1.481478
N	-3.16613	0.013622	-1.496206
N	-0.471119	-1.226439	0.697633
O	-0.68965	-2.233935	0.022276
O	-0.573821	-1.181265	1.927017
N	-0.395488	1.203768	0.677602
H	0.341295	1.438667	1.329445
H	-1.254291	1.077456	1.198722
F	2.516827	0.0	0.0
