11
Coordinates from ORCA-job run
  C   -0.77669761530043     -0.30708495597555      0.25994801824685
  C   0.49674690091100      0.46970690880604     -0.03097359501250
  Br  -0.35149304250624     -2.04507433809175      1.02854565582434
  H   1.13465064742717      0.56398108344587      0.84528062724163
  H   -1.30811777513204     -0.50760921000584     -0.67136899280725
  H   0.24993993925038      1.45479743841217     -0.43597917235987
  C   -1.62194626258388      0.44879570093946      1.17253010730962
  N   -2.28728473559822      1.09200440068947      1.89611958861173
  N   1.29282714165291     -0.22843613325967     -1.08798434712756
  O   0.66881305247311     -0.63807085322106     -2.06228234919118
  O   2.50356174940625     -0.30401004173915     -0.91383554073582
