11
Coordinates from ORCA-job run
  C   -0.56985686293524     -0.40339531718524      0.52618463881117
  C   0.21768826747789      0.52073022624192     -0.38775660398432
  Br  0.50246879035759     -0.90382149809388      2.07323356620655
  H   0.60288578311065      1.39286045676873      0.13618380512140
  H   -0.80048519226605     -1.33220653947216      0.00276420495279
  H   -0.40122349245877      0.82360877667236     -1.23661083478310
  C   -1.79517286741691      0.25123526243687      0.96007315933485
  N   -2.78331132712236      0.80138464661445      1.27776514877825
  N   1.39082821677041     -0.20702605046201     -0.96441413270916
  O   1.17934202874983     -1.34016124459195     -1.38615218254346
  O   2.45683665573296      0.39679128107090     -1.00127076918498
