11
Coordinates from ORCA-job run
  C   -0.84574519852143     -0.42964705577937      0.24497989525465
  C   0.62163642547706     -0.50818927530879     -0.14596162587915
  Br  -1.31488540646812     -2.07997932778402      1.17172055703519
  H   1.27818287633806     -0.54135150570075      0.72155329937020
  H   -1.47663721299039     -0.37787038460952     -0.64100041835359
  H   0.80405980027022     -1.37495480886493     -0.78353412490622
  C   -1.11122265154744      0.71563473510658      1.10423396975457
  N   -1.30153668436691      1.64453664976542      1.79759042218301
  N   1.01488634655403      0.69724432617200     -0.94794962349513
  O   2.19136576445557      1.03233659016803     -0.88840911891126
  O   0.13989594079937      1.22124005683532     -1.63322323205230
