13
Coordinates from ORCA-job run
  C   -0.57675868671090      0.09791153496977      0.43017648643092
  C   0.65150409514946     -0.78734313306684      0.23511397275560
  Br  -1.64540319210979     -0.89719250793838      1.85871520459477
  H   0.34943373331026     -1.78691602417411     -0.07266945659439
  H   1.25700694299830     -0.81777204282298      1.13887360191763
  N   -1.25284892589643      0.28696120708713     -0.78398366658729
  H   -1.48832756812134     -0.58012184136241     -1.24969160658402
  H   -2.05838602112565      0.89345067975725     -0.70997986783572
  C   -0.26051518621512      1.38744006531080      1.04129483360783
  N   -0.03701452103854      2.43302064218956      1.52883377143931
  N   1.48734736494125     -0.22073538468641     -0.86652643965739
  O   1.41919612685677     -0.77972252732726     -1.95803019654465
  O   2.15476583796173      0.77201933206387     -0.59212663694262
