13
Coordinates from ORCA-job run
  C   -0.58068882313965      0.04393384600440      0.43320710995693
  C   0.70705103274645     -0.74494548086948      0.21052348008154
  Br  -1.57012683740930     -1.06555339513282      1.83431269478043
  H   0.47585132704635     -1.75400660729119     -0.12644904704624
  H   1.31632994005264     -0.75895263817371      1.11216975256690
  N   -1.27317725505722      0.21845839063310     -0.77377962656106
  H   -1.44627970607205     -0.64944440486222     -1.26462072374297
  H   -2.12042456769952      0.76230865607519     -0.68113494287485
  C   -0.35542018490245      1.33473248005925      1.08107233365129
  N   -0.20586293187060      2.37656133653561      1.60365906912150
  N   1.49615061038749     -0.08792479798937     -0.87519500260523
  O   2.08960306794623      0.94322317334281     -0.57368960976913
  O   1.46599432797162     -0.61939055833156     -1.98207548755909
