13
Coordinates from ORCA-job run
  C   -0.54804635308320      0.20542892657450      0.42814710895926
  C   0.78906403745283     -0.53112853877951      0.44199530953162
  Br  -1.32284553745465     -0.20178797637791      2.27482960430744
  H   0.63103406387542     -1.59350216974697      0.61969356941436
  H   1.46244431799912     -0.10219501130668      1.18161848120964
  N   -1.34063776794269     -0.22040939594410     -0.64770869999987
  H   -2.22562799541142      0.26367102334433     -0.71587222783579
  H   -1.46956339048581     -1.22395277715294     -0.67583406875481
  C   -0.39940228583703      1.65916081281760      0.40752779651956
  N   -0.30767049846977      2.83071700068789      0.39342255232040
  N   1.42761944599647     -0.39868186928079     -0.90271928547700
  O   1.36638295423666     -1.37583296179871     -1.64420853537189
  O   1.93624900912408      0.68751293696329     -1.16189160482293
