13
Coordinates from ORCA-job run
  C   -0.56021290550064      0.26937742051442      0.33405876720325
  C   0.46862876616105     -0.65184318482515     -0.33487337275209
  Br  -0.20741276545504      0.24319647120068      2.26808316882914
  H   0.31262897904332     -1.67539692450936      0.00234615219392
  H   0.35960311474815     -0.57755557526975     -1.42032803422192
  N   -1.91607591172635     -0.17219265194335      0.12876867710615
  H   -2.03187648410547     -1.14335667260324      0.39251320821836
  H   -2.20719310594475     -0.02605455832237     -0.83115108163782
  C   -0.46173016348776      1.65243405109666     -0.13546299393270
  N   -0.46498376378334      2.74769670742468     -0.56074245162520
  N   1.88559959142622     -0.30746433908793     -0.02018811371706
  O   2.58337501109665     -1.19803291962601      0.45589381655738
  O   2.23964963752796      0.83919217595071     -0.27791774222140
