12
Coordinates from ORCA-job run
  C   -0.64776057401771      0.07778311059766     -0.40588779422097
  C   0.47730940637147     -0.51221071390743      0.44646726742174
  F   -0.40163969788567     -0.25806457447460     -1.72752503867952
  H   0.27358511713752     -0.26957392287206      1.49229852336318
  H   0.41496158415389     -1.60337296588791      0.33133604259607
  C   -0.68667997243721      1.54442124775690     -0.29156088702998
  N   -0.75062225820729      2.71046750808082     -0.17386412686610
  C   -1.95049049899524     -0.48893482985961     -0.01578956109757
  N   -2.96316700729703     -0.96998409548926      0.33303516594879
  N   1.72451848909108      0.08924397242348      0.02851864687270
  H   2.09874416762725     -0.37825150689173     -0.78495577202353
  H   2.41124124445894      0.05947677052373      0.76792753371519
