12
Coordinates from ORCA-job run
  C   -0.69682097681731     -0.01690923578844     -0.32593057805500
  C   0.50706087054034     -0.33875952490299      0.56179128360255
  F   -0.67646252503757     -0.88731895976663     -1.40370957309191
  H   0.36073852147326     -1.36605867894753      0.92375521050118
  H   0.48057100774403      0.33123455699307      1.42457386076786
  C   -0.62741303982586      1.36304728917311     -0.83216985454834
  N   -0.59628066435834      2.47612306948064     -1.20314145098084
  C   -1.95626966583721     -0.21782548874085      0.41158722107204
  N   -2.92998012808923     -0.39655717900937      1.04292953022993
  N   1.71050044997502     -0.11383936082178     -0.20827687350722
  H   1.92799852580361     -0.91436655219553     -0.78477468517017
  H   2.49835762442928      0.08023006452630      0.39236590917990
