12
Coordinates from ORCA-job run
  C   -0.77752515742831     -0.04291889676868     -0.45028331943936
  C   0.59772080732770     -0.67590462804543     -0.19245263296388
  F   -1.48351510218188     -0.84282594307062     -1.32861421937969
  H   0.41371645322375     -1.70487872565294      0.13789854806887
  H   1.11053461117721     -0.71705141987235     -1.15630940464024
  C   -0.62322005109752      1.29518464498310     -1.04220484673219
  N   -0.48081654737596      2.33909877850786     -1.55992687194390
  C   -1.52546284158281      0.04871617217953      0.81523514235923
  N   -2.08990566651840      0.06856633346580      1.84458629740314
  N   1.31150281121479      0.15455196352818      0.75227817497063
  H   2.27524417568727      0.29289091325721      0.49004503449176
  H   1.27172650755416     -0.21542919251167      1.69074809780563
