12
Coordinates from ORCA-job run
  C   -0.78136505620736     -0.05867200114524     -0.44137107409257
  C   0.57846034497525     -0.70520211948225     -0.14001823278505
  F   -1.45077798726780     -0.83122357995997     -1.37147593830646
  H   1.08376156071471     -0.84026370443902     -1.10346681691149
  H   0.37106105655001     -1.69462327683480      0.27440439949821
  C   -0.57676616146289      1.28803444746344     -1.00141166453736
  N   -0.35787639355725      2.34106242546889     -1.47239960964643
  C   -1.59272265915794      0.02300537260305      0.78333805083383
  N   -2.24386106196599      0.03294675356571      1.76005342843424
  N   1.27937016160934      0.13024136262694      0.81010932959056
  H   1.96623373986775      0.72050374336148      0.36415173217998
  H   1.72448245590216     -0.40680942322824      1.53808639574256
