18

C	-0.465425	0.002235	-1.461007
C	0.0	0.0	0.0
F	-0.074829	-1.251759	-1.983396
H	1.101747	0.0	0.0
C	-1.97122	0.068414	-1.616721
H	-2.238351	-0.072316	-2.668226
H	-2.348652	1.036927	-1.281587
H	-2.433018	-0.715769	-1.015068
C	0.287859	1.060021	-2.23778
H	-0.007499	2.059901	-1.909589
H	0.070081	0.95936	-3.305185
H	1.358349	0.931611	-2.055182
N	-0.524237	-1.193598	0.697921
H	-0.097657	-1.971604	0.20241
H	-0.079047	-1.19526	1.612766
C	-0.476431	1.208525	0.662882
N	-0.839875	2.190342	1.198151
H	2.848766	0.0	0.0
