18

C	-0.502107	-0.039713	-1.446208
C	0.0	0.0	0.0
F	-0.227211	1.222864	-2.007749
H	1.100581	0.0	0.0
C	0.292246	-1.066253	-2.22491
H	0.088331	-2.064267	-1.834141
H	0.017519	-1.024255	-3.283155
H	1.357102	-0.85439	-2.099983
C	-2.001895	-0.235653	-1.544937
H	-2.52072	0.579575	-1.032733
H	-2.309175	-0.237457	-2.594859
H	-2.283216	-1.186154	-1.089144
N	-0.352863	-1.248555	0.695801
H	0.470951	-1.519156	1.22556
H	-1.113078	-1.101472	1.346968
C	-0.496287	1.18488	0.695519
N	-0.920205	2.097992	1.304755
H	2.78271	0.0	0.0
