18

C	-0.503047	-0.027387	-1.446287
C	0.0	0.0	0.0
F	-0.228351	1.239509	-1.996355
H	1.094781	0.0	0.0
C	0.292095	-1.045542	-2.234217
H	0.018429	-0.990962	-3.292361
H	0.086856	-2.047618	-1.854392
H	1.356798	-0.83631	-2.106085
C	-2.001938	-0.224661	-1.545856
H	-2.522652	0.587599	-1.031758
H	-2.309204	-0.224692	-2.595165
H	-2.280919	-1.176522	-1.09247
N	-0.35164	-1.255178	0.68336
H	-1.110543	-1.114559	1.338259
H	0.475088	-1.53728	1.204831
C	-0.499465	1.176745	0.707019
N	-0.94058	2.079441	1.319305
H	2.787837	0.0	0.0
