16
Coordinates from ORCA-job run
  C   -0.58580441330212     -0.00950588817764     -0.37983701607554
  C   0.77909964501031      0.66327409067969     -0.14295990612104
  Cl  -0.88834942391700     -0.07882385870537     -2.12332052055253
  H   0.79251628034791      1.64064905903669     -0.62241892060792
  C   -0.76021052049506     -1.36448117360858      0.25648215236737
  H   -1.76490510997977     -1.72818993126077      0.05235399636806
  H   -0.03060176562864     -2.06198149515085     -0.15053805870660
  H   -0.61954053670050     -1.29238306487013      1.33703125248519
  N   -1.63851158760833      0.96273179020509      0.19267963862369
  O   -1.32209163830173      2.14540425360880      0.26264599660408
  O   -2.71933271784863      0.47833911756328      0.49236599091073
  N   1.88024352064279     -0.14030996990254     -0.80315582026156
  O   2.21741639594800     -1.18323041680409     -0.25367788928321
  O   2.33564019246446      0.33239445121691     -1.83769310458839
  C   1.05974383415815      0.77535234513154      1.28180078448137
  N   1.26368784521014      0.86276069103796      2.43524142435628
