16
Coordinates from ORCA-job run
  C   -0.57385337567155      0.16340845968138     -0.08270299142415
  C   0.94235275066808     -0.03527523332509      0.03171586428865
  Cl  -0.91921038664622      1.65517913554050     -0.93908236972571
  H   1.12580361804737     -0.82337201213493      0.76874523616420
  C   -1.25011496411105     -1.01500015867240     -0.76078030318797
  H   -0.93301380093909     -1.08126017366097     -1.80114362955065
  H   -2.33084616383432     -0.86460973867646     -0.73323845219367
  H   -1.00140559927624     -1.94042657919002     -0.23834170476205
  N   -1.14909682118219      0.21030752332047      1.34846293369136
  O   -1.95055886484577      1.07998687694728      1.63343255792964
  O   -0.78042387661609     -0.72021903621359      2.05599226997224
  N   1.61096678822077      1.20601485668315      0.60006977038448
  O   2.60767290706041      1.62865065348146      0.03313889165233
  O   1.08640065737937      1.65061922509667      1.61239604869381
  C   1.52990839504051     -0.38547370479574     -1.25143720317163
  N   1.98641873670602     -0.72753009408172     -2.27822691876089
