17

C	-0.127695	-0.076629	-1.545939
C	0.0	0.0	0.0
Cl	-0.147547	-1.835149	-1.998438
H	1.097457	0.0	0.0
N	-1.480586	0.434113	-2.036611
O	-1.526925	1.114595	-3.050887
O	-2.446354	0.094783	-1.356222
N	0.939899	0.544164	-2.233911
H	1.77196	0.390273	-1.631113
H	0.749652	1.538425	-2.270106
N	-0.567975	-0.978087	0.841835
H	0.095432	-1.718813	1.006627
H	-1.439083	-1.339387	0.483016
N	-0.412965	1.380227	0.440507
O	-0.582778	1.57967	1.635669
O	-0.503475	2.260542	-0.425146
F	2.595291	0.0	0.0
