17

C	-0.542509	0.322206	-1.395724
C	0.0	0.0	0.0
Cl	0.38452	1.668124	-2.156179
H	1.103036	0.0	0.0
N	-0.188641	-0.879768	-2.325356
O	-0.987546	-1.107998	-3.236255
O	0.852677	-1.482131	-2.129352
N	-1.919448	0.566587	-1.438168
H	-2.402893	0.358657	-0.578121
H	-2.36271	0.242422	-2.281849
N	-0.442704	-1.260706	0.515466
H	0.296207	-1.927247	0.342795
H	-1.323409	-1.592194	0.145866
N	-0.531496	1.091361	0.889468
O	-1.65432	0.925812	1.386328
O	0.158178	2.089165	1.06584
F	2.53291	0.0	0.0
