17

C	-0.128336	-0.25502	-1.534429
C	0.0	0.0	0.0
Cl	-1.671569	-1.107108	-2.00916
H	1.092792	0.0	0.0
N	-0.249429	1.09576	-2.339071
O	-1.27506	1.752246	-2.215671
O	0.715949	1.392854	-3.034618
N	0.988679	-0.996536	-1.883503
H	1.139588	-1.040688	-2.880319
H	1.827364	-0.667361	-1.338254
N	-0.469133	-1.039736	0.848384
H	0.224843	-1.774767	0.841708
H	-1.365186	-1.40488	0.555736
N	-0.596575	1.30202	0.390587
O	0.061773	2.311082	0.144885
O	-1.704702	1.29357	0.925594
F	2.640915	0.0	0.0
