17

C	-0.081619	0.009117	-1.55477
C	0.0	0.0	0.0
Cl	-0.767731	-1.809609	-2.149701
H	1.103753	0.0	0.0
N	-1.227362	0.804801	-2.169778
O	-2.27239	0.844128	-1.531679
O	-1.026143	1.337172	-3.255568
N	1.110986	0.305548	-2.064996
H	1.944813	0.206258	-1.408871
H	1.188135	0.519266	-3.043184
N	-0.565853	-1.029956	0.773814
H	-1.477948	-1.30262	0.434575
H	0.053418	-1.826548	0.754039
N	-0.451032	1.35745	0.472627
O	-1.141578	1.438698	1.480998
O	-0.059517	2.320509	-0.187559
F	2.672624	0.0	0.0
