16

C	0.0	0.0	0.0
C	-0.516343	-0.090035	-1.421872
Cl	1.783188	0.0	0.0
H	0.006529	-0.904607	-1.922736
H	-1.575816	-0.352034	-1.34555
N	-0.532971	1.075168	0.713143
H	-1.554632	1.026512	0.601906
H	-0.308395	0.984049	1.697209
N	-0.288549	-1.374755	0.718063
O	-0.430431	-1.326682	1.934772
O	-0.295269	-2.391298	0.036616
C	-0.358966	1.224589	-2.173774
H	0.678443	1.56975	-2.1735
H	-0.677971	1.092112	-3.211245
H	-0.981574	1.99755	-1.723636
Br	-3.781138	0.0	0.0
