16

C	0.0	0.0	0.0
C	-0.543379	0.209366	-1.392963
Cl	1.826115	0.0	0.0
H	-1.613266	-0.06168	-1.362441
H	-0.022543	-0.479411	-2.057724
N	-0.491934	0.869056	0.931149
H	-1.041945	1.685188	0.640209
H	-0.310753	0.731477	1.908283
N	-0.258024	-1.456323	0.462445
O	-0.280587	-1.6405	1.67625
O	-0.340624	-2.323608	-0.394776
C	-0.372824	1.649931	-1.861352
H	0.624226	2.036477	-1.634424
H	-1.120197	2.30802	-1.409671
H	-0.515171	1.710367	-2.94087
Br	-4.029106	0.0	0.0
