16

C	0.0	0.0	0.0
C	-0.509796	-0.033811	-1.435395
Cl	1.782499	0.0	0.0
H	-1.601525	0.000158	-1.375448
H	-0.175471	0.92689	-1.836174
N	-0.518783	1.118704	0.669279
H	-1.539219	1.073049	0.544627
H	-0.317455	1.046781	1.65989
N	-0.311869	-1.322856	0.787258
O	-0.478856	-1.199364	1.995171
O	-0.307879	-2.384119	0.17798
C	-0.066595	-1.156176	-2.368682
H	-0.618209	-2.072379	-2.175902
H	1.000193	-1.37109	-2.282767
H	-0.265986	-0.845198	-3.398469
Br	-3.78103	0.0	0.0
