14

C	-0.545871	0.087438	-1.415532
C	0.0	0.0	0.0
Cl	-2.454618	0.185318	-1.241566
H	1.099845	0.0	0.0
H	-0.375822	-0.891135	0.496226
N	-0.007827	1.114455	-2.180359
H	-0.404046	1.189772	-3.104884
H	0.027797	1.989875	-1.679261
C	-0.365317	-1.202307	-2.089572
N	-0.22611	-2.222195	-2.654663
N	-0.427179	1.143782	0.842499
O	-0.705203	0.899463	2.012763
O	-0.437312	2.268358	0.341527
Cl	3.242439	0.0	0.0
