16

C	-0.490111	-0.064317	-1.452964
C	0.0	0.0	0.0
Cl	0.158137	1.402105	-2.28362
H	1.089787	0.0	0.0
C	0.078008	-1.200515	-2.199421
N	0.449345	-2.091411	-2.870417
N	-1.937204	0.02001	-1.542029
H	-2.213653	0.071488	-2.517079
H	-2.298452	-0.84356	-1.148864
N	-0.463337	-1.224974	0.727574
O	-1.044979	-2.123863	0.094087
O	-0.205491	-1.296857	1.920235
N	-0.454613	1.15359	0.706449
H	0.319841	1.7972	0.779739
H	-1.243093	1.586959	0.243438
F	2.516647	0.0	0.0
