16

C	-0.61767	-0.008265	-1.40291
C	0.0	0.0	0.0
Cl	0.204052	1.392121	-2.298667
H	1.094212	0.0	0.0
C	-0.328908	-1.172223	-2.246164
N	-0.180146	-2.027913	-3.037258
N	-2.022661	0.178535	-1.302845
H	-2.436852	0.331651	-2.213754
H	-2.158626	0.998252	-0.716498
N	-0.445442	-1.225864	0.722418
O	-0.303458	-2.300993	0.146908
O	-0.880039	-1.115764	1.872897
N	-0.450198	1.192402	0.690242
H	-0.925348	0.906495	1.53992
H	0.39446	1.683438	0.959238
F	2.514393	0.0	0.0
