16

C	-0.118014	-0.018921	-1.547882
C	0.0	0.0	0.0
Cl	-1.773802	-0.540244	-2.100079
H	1.092164	0.0	0.0
C	0.018465	1.380265	-1.991089
N	0.143647	2.489816	-2.35585
N	0.908953	-0.791615	-2.204866
H	0.733692	-1.755565	-1.939961
H	1.761748	-0.530374	-1.672988
N	-0.474985	-1.303695	0.562949
O	-1.147105	-1.305635	1.58884
O	-0.13342	-2.330078	-0.031304
N	-0.55721	1.096671	0.699384
H	-1.418633	1.440714	0.296622
H	0.127234	1.836764	0.758063
F	2.575861	0.0	0.0
