16

C	-0.558749	-0.046221	-1.437771
C	0.0	0.0	0.0
Cl	0.354307	-1.185673	-2.487412
H	1.093504	0.0	0.0
C	-1.964721	-0.518145	-1.453683
N	-3.097379	-0.831614	-1.504971
N	-0.424001	1.267763	-1.997113
H	-0.733781	1.93177	-1.297811
H	-0.941375	1.347191	-2.861176
N	-0.45015	-1.233652	0.726006
O	-1.118237	-1.10438	1.758584
O	-0.111866	-2.31751	0.256414
N	-0.445868	1.19171	0.671788
H	0.351233	1.534781	1.198305
H	-1.194834	0.974161	1.32147
F	2.5092	0.0	0.0
