16

C	-0.58476	0.007656	-1.412888
C	0.0	0.0	0.0
Cl	-0.119321	1.556351	-2.190765
H	1.090026	0.0	0.0
C	0.008002	-1.035456	-2.27538
N	0.371352	-1.877137	-3.010906
N	-2.039883	-0.040802	-1.393215
H	-2.389521	0.133164	-2.329087
H	-2.297846	-0.986653	-1.130712
N	-0.420205	-1.264488	0.690113
O	-0.286559	-1.304675	1.910871
O	-0.847054	-2.215639	0.018789
N	-0.382747	1.152637	0.741758
H	-1.287487	1.066277	1.182241
H	0.334698	1.334629	1.428268
F	2.507569	0.0	0.0
