16

C	-0.618869	-0.07486	-1.404431
C	0.0	0.0	0.0
Cl	-0.048791	1.418462	-2.252585
H	1.092795	0.0	0.0
C	-0.115827	-1.192731	-2.210183
N	0.252044	-2.046994	-2.926282
N	-2.065922	-0.06145	-1.435531
H	-2.383323	-0.964313	-1.097186
H	-2.34043	0.652023	-0.763706
N	-0.438151	-1.167702	0.787381
O	-0.725392	-2.210001	0.187635
O	-0.441305	-1.073275	2.019159
N	-0.477671	1.212108	0.662564
H	-0.599767	0.973499	1.641286
H	0.31152	1.852265	0.633635
F	2.50217	0.0	0.0
