16

C	-0.452205	0.016097	-1.452341
C	0.0	0.0	0.0
Cl	-2.447722	-0.080149	-1.400717
H	1.09293	0.0	0.0
C	-0.285649	1.358421	-2.013244
N	-0.130552	2.42213	-2.489782
N	0.088631	-0.934892	-2.287097
H	0.166651	-1.837669	-1.843749
H	-0.279488	-0.938841	-3.226448
N	-0.43901	-1.284258	0.644871
O	-0.213688	-2.330934	0.02237
O	-0.94308	-1.259578	1.758675
N	-0.412461	1.115223	0.764357
H	0.33211	1.795194	0.793519
H	-1.297721	1.518678	0.494191
F	2.493061	0.0	0.0
