16

C	-0.140702	0.074211	-1.553638
C	0.0	0.0	0.0
Cl	-0.12778	-1.661492	-2.267824
H	1.091907	0.0	0.0
C	-1.412989	0.633921	-2.023458
N	-2.409257	1.138987	-2.389491
N	0.955846	0.85237	-1.956068
H	1.813238	0.569531	-1.419522
H	1.078954	0.881919	-2.957992
N	-0.687535	-1.196916	0.542287
O	-0.022323	-2.106078	1.026369
O	-1.919881	-1.172319	0.483076
N	-0.493343	1.146228	0.697401
H	0.204562	1.873972	0.635833
H	-1.381864	1.474178	0.337823
F	2.652744	0.0	0.0
