16

C	-0.211751	0.059422	-1.538223
C	0.0	0.0	0.0
Cl	-0.11036	-1.586056	-2.267333
H	1.090757	0.0	0.0
C	-1.536036	0.591608	-1.887558
N	-2.59964	1.031488	-2.124628
N	0.844187	0.8712	-2.099292
H	0.648492	1.824811	-1.806968
H	1.699763	0.590862	-1.579321
N	-0.634811	-1.198254	0.63484
O	0.031701	-2.221401	0.759577
O	-1.814731	-1.08238	0.994887
N	-0.46912	1.231044	0.554536
H	-1.449918	1.173557	0.801782
H	0.085759	1.458418	1.369215
F	2.609329	0.0	0.0
