16

C	-0.134694	-0.129368	-1.553378
C	0.0	0.0	0.0
Cl	-1.719449	-0.938082	-2.074317
H	1.092377	0.0	0.0
C	-0.265949	1.233161	-2.108181
N	-0.305888	2.29448	-2.613681
N	0.988364	-0.839563	-2.032604
H	1.178972	-0.647664	-3.006219
H	1.806592	-0.641123	-1.409578
N	-0.518826	-1.256293	0.612121
O	0.136182	-2.280121	0.439273
O	-1.587194	-1.197307	1.221582
N	-0.569157	1.130894	0.638603
H	-1.512214	1.33466	0.33367
H	0.033916	1.929025	0.501524
F	2.630883	0.0	0.0
