15

C	-0.359195	-0.044807	-1.480708
C	0.0	0.0	0.0
F	-0.247338	-1.414943	-1.883864
H	1.096093	0.0	0.0
H	-1.399219	0.209361	-1.695435
N	0.538553	0.810955	-2.141109
H	1.49457	0.636233	-1.819786
H	0.46424	0.752779	-3.145851
N	-0.520343	-1.062585	0.814665
H	-1.067265	-1.70206	0.249527
H	0.283007	-1.572772	1.170028
N	-0.529358	1.298936	0.543808
O	0.202718	1.974204	1.262025
O	-1.70142	1.583622	0.279091
H	2.860746	0.0	0.0
