15

C	-0.592194	-0.011857	-1.386785
C	0.0	0.0	0.0
F	-2.017068	0.178322	-1.241722
H	1.09067	0.0	0.0
H	-0.261505	0.839897	-1.977014
N	-0.304988	-1.233918	-2.020576
H	-0.490384	-1.985818	-1.368142
H	-0.845806	-1.338006	-2.867748
N	-0.410042	-1.14781	0.75222
H	-1.26878	-0.958023	1.252595
H	0.321365	-1.346418	1.427169
N	-0.368252	1.288367	0.651772
O	-0.200387	2.318108	-0.004823
O	-0.731567	1.272443	1.833809
H	2.660881	0.0	0.0
