15

C	-0.363208	0.05568	-1.481922
C	0.0	0.0	0.0
F	-0.197494	-1.264409	-1.989947
H	1.091548	0.0	0.0
H	-1.419626	0.280076	-1.663962
N	0.487378	0.998652	-2.085419
H	0.428303	0.976134	-3.094117
H	1.448942	0.845755	-1.769856
N	-0.498947	-1.111737	0.748566
H	0.240694	-1.803471	0.779047
H	-1.320373	-1.51713	0.317168
N	-0.54213	1.264096	0.598978
O	0.231751	2.146196	0.95621
O	-1.773748	1.328919	0.689712
H	2.869835	0.0	0.0
