15

C	-0.549937	-0.059808	-1.410186
C	0.0	0.0	0.0
F	0.133211	0.79484	-2.279826
H	1.092812	0.0	0.0
H	-0.350758	-1.073676	-1.760556
N	-1.960832	0.186855	-1.444676
H	-2.101222	1.167202	-1.228657
H	-2.304991	0.024017	-2.383579
N	-0.40704	-1.174368	0.710799
H	0.15744	-1.249435	1.548216
H	-1.384053	-1.108755	0.969595
N	-0.402503	1.249058	0.690917
O	-0.557756	2.280083	0.018205
O	-0.461675	1.224671	1.927104
H	2.647263	0.0	0.0
