15

C	-0.563997	0.004125	-1.409295
C	0.0	0.0	0.0
F	-0.275391	1.146579	-2.125429
H	1.094085	0.0	0.0
H	-0.051119	-0.81546	-1.931379
N	-2.003771	-0.127388	-1.371157
H	-2.199322	-0.951958	-0.815144
H	-2.340956	-0.301393	-2.311553
N	-0.406369	-1.234246	0.641518
H	-1.070019	-1.003233	1.372877
H	0.426694	-1.603576	1.09295
N	-0.453769	1.196021	0.759977
O	-0.133688	2.295069	0.314865
O	-1.084213	1.034206	1.815645
H	2.693367	0.0	0.0
