15

C	-0.561982	-0.001533	-1.400361
C	0.0	0.0	0.0
F	-1.989526	0.170003	-1.283956
H	1.090681	0.0	0.0
H	-0.227095	0.861891	-1.971223
N	-0.242149	-1.21089	-2.04243
H	-0.414714	-1.975749	-1.404202
H	-0.765073	-1.315296	-2.897989
N	-0.431158	-1.151251	0.729819
H	0.243094	-1.325049	1.465162
H	-1.335844	-0.986955	1.148868
N	-0.388556	1.287348	0.647265
O	-0.186751	2.322164	0.009228
O	-0.814473	1.261391	1.806885
H	2.67579	0.0	0.0
