15

C	-0.356948	0.038739	-1.485098
C	0.0	0.0	0.0
F	-0.194358	-1.289276	-1.975504
H	1.091557	0.0	0.0
H	-1.41157	0.264738	-1.675256
N	0.500755	0.969129	-2.09619
H	1.461317	0.817161	-1.778753
H	0.43916	0.943637	-3.104489
N	-0.503929	-1.103435	0.759025
H	-1.315177	-1.518895	0.322304
H	0.235489	-1.792632	0.806535
N	-0.546217	1.270123	0.583769
O	-1.779174	1.34403	0.644471
O	0.223481	2.145772	0.961515
H	2.870265	0.0	0.0
