16

C	-0.425585	0.035994	-1.459181
C	0.0	0.0	0.0
Br	0.194098	-1.597736	-2.379423
H	1.095635	0.0	0.0
N	-1.863042	0.090556	-1.632983
H	-2.220125	0.873324	-1.096345
H	-2.095339	0.233555	-2.609325
C	0.26152	1.146863	-2.146716
N	0.666147	2.084401	-2.730651
C	-0.554683	-1.151465	0.681199
N	-0.977227	-2.057274	1.302087
C	-0.350747	1.296292	0.74
H	-1.425244	1.47487	0.870287
H	0.107832	1.243639	1.729148
H	0.106466	2.14224	0.222067
F	2.517007	0.0	0.0
