16

C	-0.096819	-0.060358	-1.553981
C	0.0	0.0	0.0
Br	0.17253	1.78585	-2.270918
H	1.096911	0.0	0.0
N	0.951446	-0.882283	-2.094636
H	1.784599	-0.692989	-1.496068
H	0.685988	-1.856588	-1.992452
C	-1.419863	-0.457498	-2.044756
N	-2.498527	-0.783577	-2.382345
C	-0.44015	-1.299087	0.485241
N	-0.794356	-2.35111	0.876194
C	-0.675685	1.140302	0.739446
H	-0.168496	2.077972	0.517563
H	-0.603982	0.962274	1.815583
H	-1.735158	1.234885	0.475952
F	2.612458	0.0	0.0
