16

C	-0.103134	0.002026	-1.55469
C	0.0	0.0	0.0
Br	0.131121	1.883182	-2.197625
H	1.107791	0.0	0.0
N	0.952006	-0.779545	-2.136948
H	0.698239	-1.76089	-2.084007
H	1.783404	-0.611791	-1.532128
C	-1.420688	-0.395874	-2.05809
N	-2.485997	-0.740426	-2.418559
C	-0.437531	-1.317705	0.435192
N	-0.794596	-2.379276	0.797165
C	-0.66957	1.108261	0.793045
H	-0.163152	2.054093	0.605612
H	-1.731397	1.213936	0.544625
H	-0.587456	0.886116	1.859961
F	2.607261	0.0	0.0
