16

C	-0.07883	0.083229	-1.530279
C	0.0	0.0	0.0
Br	-1.875218	0.771467	-2.191832
H	1.099912	0.0	0.0
N	0.956431	0.976093	-1.944034
H	1.795489	0.73318	-1.361917
H	1.157629	0.866765	-2.928044
C	0.010887	-1.246704	-2.156016
N	0.166323	-2.286954	-2.685807
C	-0.606348	-1.189739	0.550976
N	-1.106232	-2.128484	1.053623
C	-0.45393	1.272145	0.705994
H	-0.064096	1.265948	1.726316
H	-1.542923	1.367696	0.735069
H	-0.029264	2.128593	0.179924
F	2.616879	0.0	0.0
