16

C	-0.480421	0.055887	-1.443645
C	0.0	0.0	0.0
Br	0.362727	-1.509188	-2.439316
H	1.094282	0.0	0.0
N	-1.901266	0.043247	-1.571252
H	-2.180883	0.001822	-2.544534
H	-2.272995	-0.765847	-1.081965
C	0.046688	1.2372	-2.131878
N	0.381589	2.200834	-2.714524
C	-0.554187	-1.177827	0.633619
N	-1.03979	-2.114317	1.157819
C	-0.384365	1.271595	0.763483
H	-1.460348	1.465501	0.776374
H	0.137971	2.118836	0.313201
H	-0.014804	1.172794	1.786578
F	2.515949	0.0	0.0
