16

C	-0.399821	0.035584	-1.429804
C	0.0	0.0	0.0
Br	-2.634875	-0.071455	-1.533875
H	1.108941	0.0	0.0
N	-0.001913	1.166863	-2.120801
H	-0.316264	1.182899	-3.080018
H	-0.230239	2.022354	-1.636764
C	-0.086191	-1.179808	-2.170132
N	0.193069	-2.135839	-2.794788
C	-0.465958	-1.192261	0.670026
N	-0.797085	-2.147741	1.271779
C	-0.333847	1.268599	0.778922
H	-1.392185	1.543375	0.715056
H	0.302082	2.084142	0.423804
H	-0.065884	1.110075	1.824749
F	2.462555	0.0	0.0
