16

C	-0.484311	-0.042569	-1.443018
C	0.0	0.0	0.0
Br	0.374343	-1.659508	-2.338596
H	1.107395	0.0	0.0
N	-1.904389	-0.079965	-1.563714
H	-2.265291	-0.856105	-1.018746
H	-2.188037	-0.190865	-2.529837
C	0.027436	1.097473	-2.208899
N	0.352193	2.031975	-2.843242
C	-0.557108	-1.129286	0.713936
N	-1.052646	-2.024471	1.29716
C	-0.380176	1.320752	0.678854
H	-1.455817	1.519829	0.67867
H	0.145127	2.13447	0.174361
H	-0.012559	1.290104	1.706627
F	2.512281	0.0	0.0
