16

C	-0.09433	-0.1276	-1.539492
C	0.0	0.0	0.0
Br	0.023343	1.867968	-2.361585
H	1.108889	0.0	0.0
N	0.959983	-0.910902	-1.945993
H	1.071502	-1.013899	-2.946395
H	1.824269	-0.670922	-1.398393
C	-1.401742	-0.517431	-2.064029
N	-2.469347	-0.871005	-2.408202
C	-0.496634	-1.246989	0.560144
N	-0.956843	-2.213112	1.049229
C	-0.651696	1.198387	0.667806
H	-1.692181	1.327215	0.355249
H	-0.633258	1.050205	1.751091
H	-0.093761	2.102948	0.435978
F	2.627978	0.0	0.0
