16

C	-0.420977	-0.135206	-1.454384
C	0.0	0.0	0.0
Br	0.202649	-1.864735	-2.175367
H	1.11003	0.0	0.0
N	-1.857327	-0.102113	-1.640668
H	-2.084592	-0.073652	-2.62884
H	-2.217466	0.737995	-1.200252
C	0.268469	0.889541	-2.263316
N	0.671333	1.757793	-2.946778
C	-0.561547	-1.05787	0.812122
N	-1.004722	-1.873158	1.535907
C	-0.34621	1.376818	0.578946
H	0.104544	1.43873	1.571424
H	-1.420834	1.576991	0.678833
H	0.12088	2.153624	-0.031352
F	2.51284	0.0	0.0
