14

C	0.0	0.0	0.0
C	-0.545278	0.318828	-1.395815
Br	1.961605	0.0	0.0
H	-0.269661	-0.493481	-2.074682
H	-1.645249	0.332954	-1.289488
C	-0.365764	1.054222	0.949405
N	-0.598738	1.913479	1.716585
C	-0.501658	-1.360007	0.464755
H	-0.149946	-2.131612	-0.224615
H	-0.133926	-1.581308	1.467428
H	-1.596055	-1.319582	0.464714
C	-0.070424	1.584742	-1.941116
N	0.307549	2.595605	-2.403866
Br	-3.822942	0.0	0.0
