14

C	0.0	0.0	0.0
C	-0.53327	0.297004	-1.405363
Br	1.96164	0.0	0.0
H	-1.635446	0.272182	-1.324314
H	-0.209034	-0.504916	-2.076551
C	-0.391452	1.055197	0.935109
N	-0.644831	1.919454	1.69059
C	-0.489825	-1.363827	0.469911
H	-1.584731	-1.337757	0.484072
H	-0.106875	-1.581172	1.468559
H	-0.138326	-2.132406	-0.222944
C	-0.088669	1.577994	-1.939828
N	0.270422	2.603071	-2.386095
Br	-3.801323	0.0	0.0
