14

C	0.0	0.0	0.0
C	-0.547877	-0.161663	-1.424028
Br	1.962609	0.0	0.0
H	-0.227921	0.674658	-2.05196
H	-1.649413	-0.132296	-1.322117
C	-0.372321	1.324669	0.503195
N	-0.592154	2.402074	0.918522
C	-0.491245	-1.102171	0.926882
H	-0.140889	-2.070342	0.562174
H	-0.113504	-0.944014	1.938461
H	-1.586132	-1.069812	0.92573
C	-0.130482	-1.417497	-2.036108
N	0.202355	-2.425979	-2.537059
Br	-3.811415	0.0	0.0
