14

C	0.0	0.0	0.0
C	-0.546737	0.321709	-1.394497
Br	1.962202	0.0	0.0
H	-1.646507	0.335216	-1.286126
H	-0.271858	-0.488779	-2.075925
C	-0.363593	1.053567	0.951742
N	-0.593793	1.913411	1.719297
C	-0.502145	-1.360416	0.462946
H	-0.133503	-1.583451	1.465164
H	-1.596699	-1.320512	0.46371
H	-0.151484	-2.130987	-0.228008
C	-0.072598	1.588636	-1.937816
N	0.307222	2.59967	-2.398992
Br	-3.82235	0.0	0.0
