14

C	0.0	0.0	0.0
C	-0.549505	-0.181007	-1.420817
Br	1.96287	0.0	0.0
H	-1.649816	-0.153655	-1.316633
H	-0.23329	0.646806	-2.060794
C	-0.372281	1.331051	0.484383
N	-0.592873	2.414836	0.882121
C	-0.490135	-1.090311	0.942136
H	-0.137792	-2.0625	0.591367
H	-1.584517	-1.058612	0.937555
H	-0.115302	-0.914796	1.951507
C	-0.132253	-1.44428	-2.017748
N	0.200598	-2.457793	-2.508967
Br	-3.81305	0.0	0.0
