14

C	0.0	0.0	0.0
C	-0.52761	-0.184175	-1.429703
Br	1.962872	0.0	0.0
H	-0.194165	0.639143	-2.066787
H	-1.629286	-0.15512	-1.34854
C	-0.381287	1.325484	0.49027
N	-0.609286	2.405411	0.894576
C	-0.480993	-1.105739	0.930049
H	-1.575377	-1.105089	0.906851
H	-0.12921	-0.924948	1.946877
H	-0.093203	-2.065626	0.582428
C	-0.095123	-1.450813	-2.009053
N	0.250844	-2.467327	-2.48443
Br	-3.790755	0.0	0.0
