14

C	0.0	0.0	0.0
C	-0.544115	0.31589	-1.396691
Br	1.962319	0.0	0.0
H	-1.644891	0.326979	-1.291686
H	-0.264284	-0.497251	-2.074071
C	-0.367606	1.054919	0.94804
N	-0.600362	1.917209	1.712349
C	-0.500217	-1.35987	0.466377
H	-0.145858	-2.132918	-0.220076
H	-1.594941	-1.320838	0.464583
H	-0.133686	-1.578508	1.470634
C	-0.071542	1.581748	-1.943785
N	0.30218	2.593487	-2.407913
Br	-3.821911	0.0	0.0
