18

C	0.0	0.0	0.0
C	-0.415263	-0.09805	-1.475563
F	1.364471	0.0	0.0
H	0.252924	-0.858552	-1.894545
C	-0.58153	1.127149	0.793793
H	-0.298829	2.071112	0.325365
H	-1.670409	1.041411	0.824595
H	-0.197282	1.098085	1.813499
N	-0.348853	-1.351287	0.637513
O	-1.019694	-1.363902	1.662542
O	0.12375	-2.334114	0.070287
C	-0.086329	1.171072	-2.130939
N	0.167909	2.166996	-2.698003
C	-1.868034	-0.507293	-1.718011
H	-2.085062	-0.449619	-2.786311
H	-2.024938	-1.538415	-1.398288
H	-2.606468	0.092826	-1.18312
Cl	-4.73648	0.0	0.0
