18

C	0.0	0.0	0.0
C	-0.557091	-0.0491	-1.418317
F	1.360292	0.0	0.0
H	-1.601508	-0.38071	-1.323604
C	-0.52757	1.122768	0.841787
H	-1.620292	1.108042	0.794416
H	-0.135603	2.067594	0.461167
H	-0.187005	0.98032	1.867091
N	-0.317965	-1.340684	0.701542
O	-0.795276	-2.255216	0.037962
O	0.013802	-1.408271	1.883304
C	0.199939	-1.00114	-2.235683
N	0.820864	-1.69947	-2.947516
C	-0.545567	1.329906	-2.089478
H	0.44681	1.787093	-2.047836
H	-0.833789	1.224375	-3.136861
H	-1.278173	1.974598	-1.60278
Cl	-3.69155	0.0	0.0
