18

C	0.0	0.0	0.0
C	-0.358794	-0.019114	-1.49786
F	1.367991	0.0	0.0
H	0.225741	-0.848307	-1.907597
C	-0.608661	1.094899	0.81507
H	-1.695045	0.961639	0.835685
H	-0.221902	1.064296	1.832494
H	-0.363453	2.054828	0.357776
N	-0.345635	-1.370384	0.599364
O	-0.162217	-2.345264	-0.124893
O	-0.680464	-1.408043	1.777529
C	0.180929	1.211419	-2.084766
N	0.602408	2.194318	-2.570198
C	-1.828525	-0.202089	-1.856137
H	-2.215153	-1.132308	-1.444242
H	-2.466492	0.583356	-1.46008
H	-1.925955	-0.230962	-2.943873
Cl	-4.52014	0.0	0.0
