16

C	0.0	0.0	0.0
C	-0.400904	-0.052964	-1.479055
Cl	1.789168	0.0	0.0
H	0.152042	-0.865222	-1.961252
H	-0.312724	0.955262	0.419707
C	-0.5654	-1.163801	0.777625
H	-1.655938	-1.059766	0.786685
H	-0.287378	-2.112768	0.310503
H	-0.187562	-1.156632	1.802769
N	0.223683	1.188723	-2.16493
O	0.079558	2.281101	-1.624118
O	0.74982	1.012926	-3.263971
N	-1.773482	-0.057869	-1.765975
H	-2.484271	0.060925	-0.961463
H	-2.038623	-0.861538	-2.317419
H	-3.572935	0.0	0.0
