16

C	0.0	0.0	0.0
C	-0.442923	0.110897	-1.458653
Cl	1.788489	0.0	0.0
H	0.292397	-0.351575	-2.12355
H	-0.309856	0.897087	0.532577
C	-0.531286	-1.242156	0.681678
H	-0.260011	-2.140346	0.1235
H	-1.621318	-1.161729	0.727614
H	-0.12264	-1.311843	1.693592
N	-0.273713	1.61227	-1.88809
O	-0.064883	1.785017	-3.092086
O	-0.435443	2.518792	-1.075757
N	-1.728682	-0.387335	-1.679616
H	-2.02727	-0.26552	-2.639373
H	-2.507452	-0.124924	-0.976502
H	-3.597292	0.0	0.0
