16

C	0.0	0.0	0.0
C	-0.44458	0.028924	-1.462036
Cl	1.787506	0.0	0.0
H	0.294044	-0.463383	-2.102281
H	-0.308702	0.925554	0.481565
C	-0.531401	-1.201472	0.751101
H	-0.262149	-2.130058	0.244019
H	-0.1213	-1.214176	1.764719
H	-1.621397	-1.116642	0.793846
N	-0.288622	1.508486	-1.975792
O	-0.157626	1.616694	-3.197856
O	-0.38265	2.458844	-1.202815
N	-1.726728	-0.49023	-1.6571
H	-2.022955	-0.422357	-2.622649
H	-2.506458	-0.190666	-0.971605
H	-3.592403	0.0	0.0
