16

C	0.0	0.0	0.0
C	-0.651194	0.04142	-1.360869
Cl	1.795227	0.0	0.0
H	-1.756563	-0.00291	-1.075864
H	-0.288878	0.960404	0.431252
C	-0.483096	-1.113937	0.906011
H	-1.579552	-1.090697	0.866771
H	-0.11032	-2.085315	0.5817
H	-0.140897	-0.921888	1.92672
N	-0.338043	-1.197511	-2.16303
O	0.261563	-1.063956	-3.237084
O	-0.728333	-2.280501	-1.723991
N	-0.34908	1.241282	-2.070202
H	0.570865	1.171602	-2.493923
H	-1.02712	1.366221	-2.812725
H	-3.150899	0.0	0.0
