16

C	0.0	0.0	0.0
C	-0.404894	-0.116131	-1.474609
Cl	1.789349	0.0	0.0
H	0.15894	-0.938714	-1.924533
H	-0.314116	0.970696	0.3821
C	-0.564086	-1.133012	0.823836
H	-0.285941	-2.099618	0.393829
H	-1.654986	-1.028375	0.8295
H	-0.185502	-1.08638	1.847922
N	0.191634	1.105656	-2.209205
O	0.714416	0.899186	-3.304973
O	0.033201	2.214416	-1.705614
N	-1.778799	-0.158679	-1.761757
H	-2.490423	0.006048	-0.968269
H	-2.032004	-1.012104	-2.239053
H	-3.576272	0.0	0.0
