16

C	-0.239564	0.042605	-1.508288
C	0.0	0.0	0.0
Cl	-1.998197	0.272666	-1.919302
H	1.101077	0.0	0.0
H	-0.004648	-0.936669	-1.943006
N	0.512021	1.143015	-2.060725
H	0.521881	1.0846	-3.071325
H	1.472074	1.045979	-1.724547
C	-0.54077	-1.256472	0.645912
H	-0.236995	-1.273446	1.692775
H	-1.634534	-1.284161	0.598734
H	-0.149556	-2.151706	0.155619
N	-0.458464	1.18062	0.718128
H	-1.452193	1.294924	0.539276
H	0.006027	1.989838	0.319691
Cl	3.493754	0.0	0.0
