16

C	-0.46541	0.020736	-1.455428
C	0.0	0.0	0.0
Cl	0.154884	-1.456512	-2.360585
H	1.094016	0.0	0.0
H	0.018701	0.85389	-1.965042
N	-1.886012	0.155296	-1.568037
H	-2.337484	-0.67368	-1.201843
H	-2.154944	0.25263	-2.539165
C	-0.536784	-1.181394	0.792778
H	-0.084281	-1.15149	1.784244
H	-0.288489	-2.135374	0.324156
H	-1.623096	-1.110439	0.926252
N	-0.405221	1.252264	0.654391
H	0.304486	1.952403	0.471748
H	-1.283607	1.56782	0.255956
Cl	3.537908	0.0	0.0
