16

C	-0.575634	0.023589	-1.403354
C	0.0	0.0	0.0
Cl	0.111011	1.390266	-2.348623
H	1.100459	0.0	0.0
H	-1.642465	0.27486	-1.308307
N	-0.307394	-1.200948	-2.136799
H	-0.895726	-1.934667	-1.756277
H	-0.563493	-1.071573	-3.10939
C	-0.472899	-1.254303	0.722467
H	-0.019413	-2.143612	0.282572
H	-0.149876	-1.215247	1.766168
H	-1.566708	-1.333559	0.708708
N	-0.534324	1.177909	0.712378
H	-0.108099	1.998026	0.290162
H	-0.150614	1.143921	1.652549
Cl	3.642788	0.0	0.0
