17

C	-0.388366	-0.004705	-1.467312
C	0.0	0.0	0.0
Cl	0.502169	1.181441	-2.381312
H	1.093171	0.0	0.0
N	-0.121183	-1.394778	-2.050928
O	-1.101667	-2.099216	-2.271598
O	1.047056	-1.696895	-2.20962
N	-1.888161	0.211025	-1.713261
O	-2.257915	0.525091	-2.836367
O	-2.624994	0.01198	-0.750231
N	-0.415226	-1.247162	0.608718
H	-1.350521	-1.193973	0.992402
H	0.255498	-1.480221	1.329521
N	-0.439964	1.258085	0.575857
H	-1.333821	1.149148	1.040276
H	0.261659	1.551926	1.24444
F	2.588488	0.0	0.0
