17

C	-0.541917	0.003911	-1.4096
C	0.0	0.0	0.0
Cl	0.325503	1.101774	-2.44744
H	1.096776	0.0	0.0
N	-0.468476	-1.405892	-1.996783
O	-1.526548	-2.014434	-2.121028
O	0.646208	-1.819486	-2.258057
N	-2.042037	0.344439	-1.46234
O	-2.514032	0.764667	-2.509452
O	-2.675643	0.124045	-0.43407
N	-0.395049	-1.221705	0.67156
H	-1.273215	-1.125833	1.164956
H	0.349347	-1.468942	1.310917
N	-0.346447	1.287039	0.595996
H	-1.144626	1.204058	1.213143
H	0.464403	1.591104	1.121547
F	2.579103	0.0	0.0
