17

C	-0.543726	-0.013922	-1.408626
C	0.0	0.0	0.0
Cl	0.328318	-1.110733	-2.443646
H	1.09678	0.0	0.0
N	-2.042017	-0.363385	-1.45573
O	-2.677401	-0.116873	-0.434683
O	-2.511625	-0.814133	-2.491361
N	-0.47789	1.393325	-2.002849
O	0.638223	1.818768	-2.239939
O	-1.541078	1.986845	-2.159508
N	-0.350937	-1.279509	0.607582
H	-1.16316	-1.192618	1.205393
H	0.450203	-1.57201	1.152921
N	-0.391683	1.229667	0.661658
H	0.359751	1.485575	1.288879
H	-1.263234	1.136677	1.166823
F	2.579257	0.0	0.0
