17

C	-0.375049	-0.026385	-1.486006
C	0.0	0.0	0.0
Cl	0.004094	-1.552492	-2.250618
H	1.099094	0.0	0.0
N	-1.860904	0.265933	-1.665226
O	-2.188194	1.359776	-2.105698
O	-2.621861	-0.606823	-1.256537
N	0.321017	1.089851	-2.277046
O	0.354296	0.96759	-3.495414
O	0.739944	2.041312	-1.636746
N	-0.421252	-1.178821	0.724734
H	0.319771	-1.863237	0.664067
H	-1.285346	-1.56746	0.368878
N	-0.643944	1.179343	0.590465
H	-0.789708	0.925905	1.56013
H	0.037345	1.930935	0.56544
F	2.598671	0.0	0.0
