17

C	-0.588354	0.102201	-1.388302
C	0.0	0.0	0.0
Cl	-2.351318	0.006413	-1.429629
H	1.100068	0.0	0.0
N	-0.121339	1.413819	-2.017771
O	-0.913316	2.334754	-2.131715
O	1.06143	1.410781	-2.329864
N	-0.081922	-0.965399	-2.350955
O	-0.332955	-0.780431	-3.537194
O	0.511753	-1.925028	-1.879132
N	-0.498463	-1.226099	0.655757
H	0.168662	-1.953276	0.4159
H	-0.366816	-1.056852	1.647559
N	-0.399708	1.203852	0.691759
H	-1.287488	1.090317	1.16804
H	0.332541	1.441339	1.348223
F	2.584503	0.0	0.0
