17

C	-0.58768	0.000866	-1.393087
C	0.0	0.0	0.0
Cl	-2.35102	0.108596	-1.42753
H	1.095498	0.0	0.0
N	-0.078533	1.131704	-2.277046
O	0.500199	2.061787	-1.731965
O	-0.322319	1.030609	-3.475773
N	-0.127608	-1.266724	-2.113149
O	-0.924767	-2.170195	-2.297055
O	1.057029	-1.250487	-2.416458
N	-0.39828	-1.254527	0.598566
H	0.333668	-1.533569	1.239483
H	-1.287368	-1.177764	1.080812
N	-0.502716	1.168493	0.750579
H	0.14402	1.92148	0.547032
H	-0.341102	0.932283	1.72249
F	2.584722	0.0	0.0
