16

C	0.0	0.0	0.0
C	-0.665748	-0.001642	-1.405948
Br	1.896071	0.0	0.0
H	-1.753856	-0.031082	-1.362659
N	-0.476715	1.304774	0.584169
O	0.209917	2.33558	0.886057
O	-1.736771	1.084511	0.952586
N	-0.355839	-1.392337	0.652645
O	0.11997	-1.531356	1.840295
O	-1.64337	-1.709695	0.470895
C	-0.243429	-1.129764	-2.19796
N	-0.050202	-2.000378	-2.972038
N	-0.368793	1.235504	-2.220506
O	-1.391401	1.824359	-2.61008
O	0.788982	1.617881	-2.388968
H	-1.659357	0.0	0.0
