16

C	0.0	0.0	0.0
C	-0.636082	-0.01183	-1.417972
Br	1.893428	0.0	0.0
H	-1.713511	-0.215412	-1.311628
N	-0.569924	1.276267	0.717943
O	0.155828	2.233218	0.924526
O	-1.757772	1.166146	1.047841
N	-0.543903	-1.210363	0.728116
O	-0.519555	-2.270488	0.054666
O	-0.497331	-1.136036	1.978528
C	-0.083815	-0.963719	-2.352846
N	0.24071	-1.716954	-3.195088
N	-0.593911	1.357592	-2.07019
O	0.489212	1.932282	-2.106608
O	-1.688798	1.809923	-2.415561
H	-1.559498	0.0	0.0
