17
Coordinates from ORCA-job run
  C   -0.59340573530945     -0.48012457586029     -0.13659536479499
  C   0.87865187827384     -0.25132723630893      0.21949243664930
  Cl  -0.51483170132497     -1.92958884646102     -1.28006398173157
  H   1.30024461215424     -1.14452948278254      0.67386079707100
  N   -1.23780667739877     -0.77071534794856      1.09137838394568
  H   -2.23895794439352     -0.85854771275132      0.97665971065499
  H   -0.87509435650713     -1.60034859884730      1.54503235909020
  C   -1.32968649354437      0.62642042161432     -0.86421542110366
  H   -1.34126770913422      1.52728124781157     -0.25195629408912
  H   -2.35507466030625      0.28992148764098     -1.03497342004968
  H   -0.87434431714195      0.84895620622019     -1.82363507154073
  N   1.01734240919535      0.83996865198344      1.24673297486737
  O   0.76114478985840      1.98606660726408      0.89821707117486
  O   1.36882493569290      0.46674923740800      2.36149085751695
  N   1.77947800269683      0.07344532972615     -0.93235649709244
  O   2.79349254249585     -0.61700588847663     -1.01165559140539
  O   1.46029042469321      0.99437849976785     -1.67541294916277
