17
Coordinates from ORCA-job run
  C   -0.57589123425682     -0.31397915112724     -0.35337086316802
  C   0.85279638218611      0.19805156678074     -0.16200648530591
  Cl  -0.41004064682737     -1.44042277784417     -1.82732941295182
  H   1.17753827135697      0.78477915752547     -1.01798422815598
  N   -1.06378013745379     -0.93319160968523      0.80867081096134
  H   -0.50071160493761     -1.71889219253366      1.10454778930745
  H   -2.03558785684123     -1.19588937200766      0.71668756500103
  C   -1.50732567135063      0.80131716507547     -0.79810104501546
  H   -1.11239520313401      1.32329255209241     -1.66912837105220
  H   -1.65599809355244      1.50962002847349      0.01621928038054
  H   -2.46844391101110      0.36219090121415     -1.07294713975504
  N   1.89397709059738     -0.86440873854178      0.03186460269631
  O   1.58207129318674     -1.89549651817192      0.61615557123726
  O   3.00847829349854     -0.57403167061770     -0.39253124392165
  N   0.92891215167511      1.09636265399468      1.04806196018341
  O   0.55935315666620      2.24893117535640      0.85307756160623
  O   1.32504772019794      0.61276683001654      2.09911364795253
