17
Coordinates from ORCA-job run
  C   -0.57370122963006     -0.50539945980078     -0.12856299945589
  C   0.85167886093452     -0.20152597255250      0.34226989425471
  Cl  -0.36876374230166     -2.09685322374200     -1.04477307827495
  H   1.22685236516111     -1.01464958535912      0.95864888663815
  N   -1.34180172338745     -0.63648349456208      1.05497365176646
  H   -2.32542725931175     -0.75463407887794      0.85065284911753
  H   -1.02721009458574     -1.39177840006328      1.65181769369118
  C   -1.23524566090331      0.47549427565769     -1.07528974133848
  H   -0.67724841000620      0.58066069573019     -1.99986870511715
  H   -2.23119424854745      0.09282343914372     -1.31067226557576
  H   -1.32506805207484      1.44883870214555     -0.59458473646229
  N   0.87731773374372      1.02467008160414      1.21371261711551
  O   1.11781979963662      0.81897816043152      2.39923527922434
  O   0.64814479214187      2.10485181684311      0.68327137605124
  N   1.86852180808301     -0.02390014244708     -0.74359602284922
  O   2.88714891467887     -0.70073438911893     -0.61825121506868
  O   1.62817614636875      0.77864157496780     -1.63798348371670
