17
Coordinates from ORCA-job run
  C   -0.57322350145769     -0.40422878672086     -0.37479294714180
  C   0.85336488529223      0.16320723922743     -0.32683476697086
  Cl  -0.66223092878135     -1.37957307985516     -1.88687762101923
  H   1.15427828012073      0.56914250943975     -1.28974976609426
  N   -0.77474057656715     -1.30785964045485      0.72381154116735
  H   -0.69659205290552     -0.80313319972366      1.59970603617729
  H   -1.69047872792671     -1.73534218120194      0.65790879467867
  C   -1.58515498323540      0.72920382632156     -0.52995400509302
  H   -1.32994942833716      1.38726853178943     -1.36436114856987
  H   -2.56604665430101      0.29529886382048     -0.73086594516223
  H   -1.64432172617849      1.31066117386183      0.39065620996296
  N   1.86566170058603     -0.89229095096861      0.04317149579826
  O   2.31044251851781     -1.53660844740272     -0.89703896710705
  O   2.14113293781608     -1.01654524091408      1.22874714471934
  N   1.01264516536608      1.26895398987436      0.67373743389363
  O   0.37595911810848      1.20250290535839      1.72167869851723
  O   1.80925397388305      2.15034248754864      0.36105781224359
