17
Coordinates from ORCA-job run
  C   -0.62741722892777     -0.18152610237226     -0.28645222160005
  C   0.74573246256312      0.07646572716176      0.34515321611922
  Cl  -0.54824026054649      0.18827974136174     -2.07209210654827
  H   0.63965618603966      0.09455899080232      1.42896426031726
  N   -0.97168384969286     -1.53061115513707      0.01151215439272
  H   -0.44146603992525     -2.18243133751356     -0.55249343891157
  H   -1.96063229528493     -1.68500186037486     -0.13674621440290
  C   -1.66818578426569      0.75224775486860      0.31256671204094
  H   -1.43050413005183      1.79574161535885      0.12354231520336
  H   -1.73599277047930      0.58292311514128      1.38950492584332
  H   -2.63465600499197      0.53113692359821     -0.14497596774826
  N   1.34495045855143      1.39742611891849     -0.05007642654108
  O   0.88008664579938      2.37043328511175      0.53473824658311
  O   2.21733480212608      1.39670803038837     -0.90781687464884
  N   1.79458880162625     -0.95973903845366      0.06129905031732
  O   1.66379588580941     -1.69801613250707     -0.90820767227825
  O   2.73363312165076     -0.94859567635289      0.85058004186195
