17
Coordinates from ORCA-job run
  C   -0.61704444366044     -0.50351727521069     -0.17039082527771
  C   0.83738080457940     -0.39688524771969      0.30757079834195
  Cl  -0.65458847613056     -1.99869929991877     -1.16585675565504
  H   1.15869095610022     -1.34685084512794      0.72714489437068
  N   -1.38434923792732     -0.77249219926180      1.03390810130223
  H   -2.20129643361191     -1.32347586433736      0.80215312710824
  H   -1.68501779736538      0.10646796244792      1.43959151578757
  C   -1.11920022541209      0.64156671399763     -1.03396675998905
  H   -1.06315581128339      1.57844508923312     -0.48074867466569
  H   -0.54795074067402      0.74086213805325     -1.95638061852449
  H   -2.15961524742289      0.43680497823552     -1.29324475491298
  N   1.04810881564833      0.63306808090897      1.38418635671117
  O   2.11633148248444      0.53049410069608      1.97708385293292
  O   0.18746127522072      1.48510666429286      1.57785954054788
  N   1.79813548146342     -0.02783065219039     -0.78181988417747
  O   1.83721615656264      1.15951842901038     -1.09510041504035
  O   2.44789344142883     -0.94358277310909     -1.27298949885986
