17
Coordinates from ORCA-job run
  C   -0.60095555982266     -0.30097517436049     -0.32175593883201
  C   0.83442161044161      0.21838629507469     -0.22120722246794
  Cl  -0.55169519314903     -1.33997335632746     -1.86548080189843
  H   1.08078071597033      0.85777268336471     -1.06555599136979
  N   -0.98362322722744     -0.99089335219121      0.84038535609353
  H   -1.95712503117106     -1.26213473164096      0.81387965713435
  H   -0.39059193148024     -1.78446111704458      1.04190189313307
  C   -1.57577089626980      0.82571091419195     -0.62138860288216
  H   -1.26087296642807      1.40057275285735     -1.49174053970451
  H   -2.55352368823681      0.39072773083542     -0.83802989946859
  H   -1.65980755089405      1.48511169410573      0.24174218937882
  N   1.89687007983862     -0.83963620266317     -0.17827527429537
  O   1.64470579849527     -1.90595047290442      0.37058548863654
  O   2.96816007146445     -0.51189257452138     -0.67974621166657
  N   1.00487680839998      1.04623237345396      1.02874057668239
  O   1.49171617467817      0.50802089303463      2.01299819912733
  O   0.61143478539074      2.20338164473524      0.93294712239933
