17
Coordinates from ORCA-job run
  C   -0.62842451245590     -0.26856130292828     -0.29625108856073
  C   0.83863221099765      0.16231183369781     -0.25161257306908
  Cl  -0.69208818345139     -1.33619877811822     -1.82101463582289
  H   1.09649556014172      0.77041517148663     -1.11538506415263
  N   -1.01470121017772     -0.91276960786718      0.89018082790543
  H   -0.46705052542106     -1.73881641766051      1.08915230307703
  H   -2.00396587112528     -1.12035696376048      0.90173840986374
  C   -1.54203952088105      0.91024771490763     -0.58784126482962
  H   -1.55785351906081      1.58928837917000      0.26389533430883
  H   -2.55071729591584      0.53178108625296     -0.76528505025959
  H   -1.22107655298075      1.44865748562502     -1.47900440224874
  N   1.83458164921163     -0.95923823225204     -0.22192805140474
  O   2.90618041491124     -0.70873890678336     -0.76545254821062
  O   1.53584216682354     -1.99685298183035      0.35769601811211
  N   1.10080325005708      0.99969313714408      0.97615286096303
  O   1.58863445931797      0.45058426710389      1.95385424231001
  O   0.77374748000895      2.17655411581241      0.87110468201846
