17
Coordinates from ORCA-job run
  C   -0.58023970093103     -0.30439860444197     -0.35486726648706
  C   0.85193650090954      0.19910041349634     -0.16648293008854
  Cl  -0.43409958306370     -1.39853501744260     -1.85370892826206
  H   1.17019558743575      0.80467764506485     -1.01170574490048
  N   -1.05824164821359     -0.94715637524370      0.79911825146118
  H   -2.03200401221718     -1.20399542061581      0.71047092067262
  H   -0.49580188346641     -1.74238407494537      1.06986441816677
  C   -1.51235278814321      0.82367953220044     -0.76454397813429
  H   -1.64919294612966      1.51421294979286      0.06693629076160
  H   -1.12521660028038      1.36323048587964     -1.62832522821821
  H   -2.47814642146942      0.39409079837338     -1.03810804137841
  N   1.89160664953830     -0.87066311268245     -0.00781469349422
  O   3.00235681143013     -0.57398645727257     -0.43780096377372
  O   1.58282265298808     -1.91374881837302      0.55645691249286
  N   0.94315210579932      1.06904657837354      1.06319767826497
  O   0.57465540465462      2.22670691778498      0.89872273285344
  O   1.34856987115885      0.56012256005145      2.09859057006355
