17
Coordinates from ORCA-job run
  C   -0.70413260228629     -0.33348074951465     -0.07957580665386
  C   0.69617072202543      0.17013470020019      0.36032493146884
  Cl  -0.55719690438988     -2.04657265581150     -0.57885164214437
  H   0.57579021448642      1.08803708207675      0.93595254488020
  N   -1.68221290336161     -0.26945690016967      0.96921504755499
  H   -1.34524210493569     -0.70841134776465      1.81648515853193
  H   -1.94262837608783      0.69158958983299      1.15727922657212
  C   -1.18896578027691      0.49658317281137     -1.25767024865222
  H   -1.18068113684069      1.56152918532109     -1.00247365991441
  H   -2.21153508004768      0.19171044377822     -1.47893215657444
  H   -0.57238762551748      0.33816122287241     -2.14070491460673
  N   1.58451912768300      0.52272937300183     -0.78789995102595
  O   1.94647820677623      1.69932668216490     -0.82716169540762
  O   1.84691569608920     -0.35237178505641     -1.60292578098621
  N   1.41360418121765     -0.79226011670690      1.26963792120214
  O   0.79390241176620     -1.07856298275682      2.28896195644570
  O   2.52860195369992     -1.18068491427917      0.95833906930988
