17
Coordinates from ORCA-job run
  C   -0.67747033004979     -0.24221959782412      0.02655712800461
  C   0.72975688639540      0.30171037594195      0.31761710888834
  Cl  -0.60383154932253     -2.06992840645578     -0.02496607876849
  H   0.63836869602670      1.35202822090208      0.59640400394577
  N   -1.56055528553294      0.25494693042429      1.02540947337968
  H   -1.31555209280754     -0.09972243166576      1.94104081248815
  H   -2.51457532603699     -0.00502036518435      0.80802578937001
  C   -1.13963741175568      0.23032176765877     -1.34341395714677
  H   -2.16856149289943     -0.09921307466432     -1.49817033840903
  H   -1.10615898697311      1.32097540755726     -1.38991914474275
  H   -0.52981194479059     -0.19432393227040     -2.13932123814846
  N   1.60497198345513      0.25862386745306     -0.89233033649544
  O   1.94116508393426     -0.83952810201429     -1.31561732797318
  O   1.87090565470350      1.35419718694259     -1.38459565114759
  N   1.44026424655628     -0.36994665377517      1.46492160493859
  O   2.63988564377689     -0.57237168103157      1.35290089038232
  O   0.75083622532044     -0.57952951199424      2.45645726143423
