17
Coordinates from ORCA-job run
  C   -0.62256177173501     -0.33370128539119     -0.09627371140842
  C   0.69593928360434      0.37182157252582      0.24313089243232
  Cl  -0.26301193331987     -1.99153747687476     -0.76992364506748
  H   0.49947877669659      1.43056898854011      0.40652996614093
  N   -1.40141907311228     -0.34869438067156      1.09553410378155
  H   -2.36973331400317     -0.55185044852521      0.88343026445218
  H   -1.05265795511250     -1.02950899322220      1.75819553131369
  C   -1.36715994540134      0.43173037803781     -1.17972307948233
  H   -1.58680770659619      1.44254877897478     -0.82887877430568
  H   -2.30602841872043     -0.08638121195993     -1.38564372879527
  H   -0.79536725327761      0.48392700339986     -2.10248701354724
  N   1.71665958217984      0.28854259826339     -0.85755012946110
  O   1.52989985232828      1.05859512259581     -1.79398774629280
  O   2.62094203810428     -0.52696039118040     -0.73913204256437
  N   1.38465538717160     -0.10666097929708      1.48828515638490
  O   1.12053616121121     -1.21832400996284      1.93155544133651
  O   2.19863628998226      0.68888473474759      1.94593851508261
