17
Coordinates from ORCA-job run
  C   -0.63201374770575     -0.16453384348013     -0.28595848950248
  C   0.75001405447254      0.05707937978032      0.34006869364483
  Cl  -0.56963501905356      0.27769362734569     -2.05590758219029
  H   0.65635723395966      0.03294541051792      1.42491166090776
  N   -0.98400765966844     -1.52212538023224     -0.04000782246489
  H   -0.46427734420745     -2.15352737517930     -0.63628896101579
  H   -1.97539142029453     -1.66245849133029     -0.18639730487197
  C   -1.65886805038307      0.75161245867081      0.36266342389574
  H   -1.71550902585296      0.53885843766156      1.43251912621163
  H   -1.41565685975705      1.80021360637286      0.21327742163438
  H   -2.63218596758789      0.55594215981199     -0.09196535521858
  N   1.35619122481513      1.38758381447730     -0.00970856088994
  O   0.90485432445615      2.34069727747408      0.61684176567675
  O   2.22012007782040      1.41355250579378     -0.87547542376440
  N   1.78678732772882     -0.97557955847664      0.00325918625541
  O   2.73343328107052     -1.00529102569314      0.78278612892218
  O   1.63978757018748     -1.67166300351456     -0.99461790723035
