17
Coordinates from ORCA-job run
  C   -0.67426830023699     -0.12687315533919     -0.37833250754202
  C   0.70657905889965      0.02340617502445      0.29773748992995
  Cl  -0.52780994367254      0.30859093689190     -2.10794355153426
  H   0.58583153132204     -0.04336216656118      1.37952931677183
  N   -1.19074988718096     -1.46327825918540     -0.28843321492278
  H   -1.43600481601099     -1.70551005227109      0.66312633011797
  H   -0.56441201020430     -2.14574137179184     -0.69234600160901
  C   -1.66856253712237      0.82357024492563      0.27092267130498
  H   -2.63681589429683      0.65271082567475     -0.19901390717811
  H   -1.74887714903310      0.61426363820465      1.34229118561257
  H   -1.37993550274034      1.86409059571160      0.14299892834744
  N   1.37135895279189      1.34719757337048      0.03780655276446
  O   2.23247785047505      1.39138587847407     -0.83060765696305
  O   0.95989221514009      2.27768709896505      0.72353748531759
  N   1.72775082197407     -1.02443076132845     -0.04818432025091
  O   1.57858032210292     -1.70473937585669     -1.05635587348852
  O   2.66296528779271     -1.08796782490875      0.74426707332189
