17
Coordinates from ORCA-job run
  C   -0.60839449631290     -0.26704935834873     -0.33727986012238
  C   0.84566318964501      0.18915280754370     -0.20479781197696
  Cl  -0.58097905740434     -1.26545213199192     -1.90813624175561
  H   1.12994298855416      0.83946482224685     -1.02865257871949
  N   -1.03501794775544     -0.97140400080378      0.80061456220075
  H   -2.01860429954041     -1.20032179536560      0.75475586484032
  H   -0.47865330085302     -1.79454782402519      0.98736330121457
  C   -1.53166635903965      0.90689014120954     -0.61797864649571
  H   -2.52340829509036      0.51866484134881     -0.85859319444087
  H   -1.60019470027712      1.54582945952715      0.26173626758580
  H   -1.18164228788801      1.49116717870564     -1.46839038561860
  N   1.86298133797307     -0.91302074037953     -0.17682189068982
  O   2.95409500451430     -0.61637176494165     -0.65426859586833
  O   1.55930171953099     -1.98225383107108      0.33922726737718
  N   1.03349930731634      0.97618106219977      1.06874743947074
  O   1.48528259954330      0.39246353591305      2.04380051842463
  O   0.68879459708408      2.15060759823296      0.99967398457378
