17
Coordinates from ORCA-job run
  C   -0.62684349243848     -0.49179602041296     -0.16923073172239
  C   0.82528955607174     -0.41122446298530      0.32079836246840
  Cl  -0.68892014638849     -1.99894755621676     -1.14516604232917
  H   1.12125462810486     -1.36264334304294      0.75551697648444
  N   -1.41107078642573     -0.72779585083073      1.03108774266003
  H   -1.69267086779171      0.16326464958663      1.42390921827328
  H   -2.23988201622722     -1.26018014633030      0.79783681233255
  C   -1.09528765930065      0.65261879682901     -1.05243738433432
  H   -1.02163343085042      1.59556615139953     -0.51169334748577
  H   -2.13829513379417      0.46884789910935     -1.31702213083452
  H   -0.51486781926191      0.72573048659082     -1.97157747268516
  N   1.05005611116538      0.62771525910886      1.38579582827323
  O   2.11132104947062      0.51009155807790      1.98817990807623
  O   0.20680874649717      1.50085731331563      1.56131603299648
  N   1.80362005698608     -0.07818566708154     -0.76469935692048
  O   1.87163308892581      1.10364629919866     -1.09331268797589
  O   2.43748811525710     -1.01456536631587     -1.23730172727694
