17
Coordinates from ORCA-job run
  C   -0.67096407344751     -0.32404140466138     -0.24247104952473
  C   0.66574052303425      0.21236652166941      0.31604683831318
  Cl  -0.35770787861389     -1.82569639942482     -1.16400818312927
  H   0.51574369332160      1.22200300480221      0.70000504474465
  N   -1.62424005505179     -0.61612715709437      0.79089153644857
  H   -1.27076424687144     -1.28519610730470      1.46081495843741
  H   -1.94686955820972      0.22701911741053      1.24868184244401
  C   -1.27849282231136      0.69965084879833     -1.18923496875065
  H   -1.44271347856196      1.64769841344226     -0.66736768948437
  H   -2.23839763091927      0.30560149581771     -1.52215403257490
  H   -0.64182252651370      0.88524645006019     -2.05095602044838
  N   1.75669760733683      0.32093454738818     -0.71402562648910
  O   2.59155086990974     -0.57269549668273     -0.75606856853618
  O   1.68730700009531      1.30744543983749     -1.44004969025798
  N   1.25828191685454     -0.55915612896710      1.46230873459188
  O   0.89650958450141     -1.71187526077905      1.66670523307799
  O   2.09914107544696      0.06682211568786      2.10088164113785
