17
Coordinates from ORCA-job run
  C   -0.57702793359960     -0.39385497139492     -0.37910779596687
  C   0.85306163277448      0.16471054322821     -0.32717601430515
  Cl  -0.67721007457665     -1.34431013302071     -1.90553514269140
  H   1.15207215846678      0.58676500361011     -1.28381302954983
  N   -0.77952414685274     -1.31447580211075      0.70561549207042
  H   -0.70784094993419     -0.82210267047405      1.58900651998807
  H   -1.69288255460150     -1.74516745969711      0.62875251956756
  C   -1.58300704441143      0.74769581146871     -0.51186647287480
  H   -2.56704089126698      0.32262752700977     -0.71625028585685
  H   -1.32683588503208      1.41784956492270     -1.33631455968952
  H   -1.63563642838067      1.31449354810587      0.41816908489854
  N   1.86099424086437     -0.90261923745691      0.01903836306432
  O   2.29583741406430     -1.53481131093883     -0.93395893234493
  O   2.14268296062501     -1.04786553447459      1.20076502296555
  N   1.02404709417484      1.25028658177840      0.69351770398930
  O   1.83174716950876      2.12724158489592      0.39761355557476
  O   0.38556323817730      1.17253695454817      1.73954397116084
