17
Coordinates from ORCA-job run
  C   -0.60059875334732     -0.52190481026712     -0.17365519173582
  C   0.84393342733336     -0.37055006775836      0.32250623085047
  Cl  -0.58447273539551     -2.02725278625949     -1.15359366987134
  H   1.18552912305848     -1.30769252045252      0.75461634497402
  N   -1.37609127625893     -0.79888417871252      1.02359395510854
  H   -1.71044411352634      0.07502535567977      1.41330826002656
  H   -2.17115692886779     -1.37979368385595      0.78914403481980
  C   -1.12173716454392      0.60062293960969     -1.05550055311083
  H   -2.15284148127446      0.36583235243198     -1.32623200393956
  H   -0.54098679904210      0.70583454297073     -1.97130843390231
  H   -1.09792421035881      1.54408382524722     -0.51123942133254
  N   1.01115900313327      0.67391344449317      1.39272141100295
  O   0.12645820853574      1.50577389255491      1.56437575311882
  O   2.07226164555484      0.60407757168140      2.00301344277285
  N   1.80871464074514      0.01621274822532     -0.75738023328813
  O   1.82165240305416      1.20201671150643     -1.07832938965248
  O   2.48654501120018     -0.88631533709465     -1.23504053584101
