17
Coordinates from ORCA-job run
  C   -0.59027624658829     -0.48296580768192     -0.13854552770498
  C   0.88037063299018     -0.24662162426750      0.21791485543705
  Cl  -0.50301502756991     -1.92659872289583     -1.28950246802657
  H   1.30833097370897     -1.13951426487849      0.66687170479278
  N   -1.23236923029583     -0.78393224445077      1.08810144269273
  H   -0.86361732064629     -1.61317203879469      1.53762881361894
  H   -2.23286534959585     -0.87853770269481      0.97298010166652
  C   -1.33396164098472      0.62210039032530     -0.86070995627218
  H   -0.87941364486443      0.85367353090301     -1.81837122171739
  H   -2.35676125282276      0.27926714613095     -1.03422770742057
  H   -1.35252635160500      1.51929883594796     -0.24322765647717
  N   1.01240867078442      0.83981153306080      1.25078885924501
  O   1.36846272708635      0.46312277256915      2.36295341288648
  O   0.74652468584459      1.98576970137640      0.90918504265057
  N   1.77832931069312      0.09017634517944     -0.93304737872705
  O   1.45443145578481      1.01477829080889     -1.66934258205790
  O   2.79494760808064     -0.59565614063790     -1.01844973458628
