17
Coordinates from ORCA-job run
  C   -0.63244912866144     -0.28519715529666     -0.36343755775946
  C   0.73950518768707     -0.01777118562814      0.31102224931515
  Cl  -0.38799826380044     -0.34682530359272     -2.13598470315900
  H   0.66657569036162     -0.26950403211245      1.36919711999668
  N   -1.22532599935900     -1.52977188501969      0.03647581447717
  H   -1.55736701236086     -1.47717852802234      0.99235384693660
  H   -0.57448087083724     -2.29832632014411     -0.06200486297198
  C   -1.58783507012128      0.84789284673734     -0.02409870197718
  H   -2.56754406300708      0.58571068180264     -0.42279528530338
  H   -1.26613141832787      1.78968190979966     -0.46525341413686
  H   -1.66427814341872      0.96952802265402      1.06153777566670
  N   1.15094545080588      1.41799053947477      0.26121138000441
  O   1.27828572032766      1.94203318448775     -0.83789265132276
  O   1.28803387896629      1.96118199905355      1.35796487637770
  N   1.84852547385320     -0.87492009191702     -0.23896508083878
  O   2.85591473013434     -0.33461062523346     -0.66835348223007
  O   1.63462383775785     -2.08091405704315     -0.16897732307493
