17
Coordinates from ORCA-job run
  C   -0.64920897956948     -0.34127517862938     -0.40924288244769
  C   0.80105081885877      0.18607141637579     -0.27292790576495
  Cl  -0.60893234255739     -1.21625320391145     -1.98390043648206
  H   1.09950639468372      0.76372174553833     -1.14372463539061
  N   -1.14557052652628     -1.24718447215537      0.57507111665903
  H   -0.54538048456995     -2.05636875252547      0.67464699532204
  H   -1.19473016820820     -0.77819720320520      1.47128413319827
  C   -1.58287042248328      0.85134202007612     -0.53630730437901
  H   -1.65186806292059      1.37946090311738      0.41781644506293
  H   -2.57249055351634      0.47944152123808     -0.79946800636946
  H   -1.24398369043185      1.54363978667990     -1.30895660138616
  N   1.81596731478381     -0.90492309926353     -0.12816046346278
  O   1.72987949608577     -1.61165973621066      0.87372556212681
  O   2.64207222590587     -1.00193493571294     -1.02961272484142
  N   0.98131955815403      1.09158969507030      0.91295707890259
  O   0.39891150252234      0.80862900472804      1.95614688182337
  O   1.72532791978904      2.05290048879007      0.73165274742911
