17
Coordinates from ORCA-job run
  C   -0.57403390086879     -0.39357354415220     -0.38445413467992
  C   0.85050257365410      0.17805856963717     -0.32620540146981
  Cl  -0.66888377636172     -1.31816287587312     -1.92749225611373
  H   1.14421597412339      0.61669758952510     -1.27694281131293
  N   -0.76522341548941     -1.33454543882914      0.68439702219898
  H   -0.68671792848303     -0.85914518698713      1.57648052130813
  H   -1.67856035275735     -1.76535094468520      0.60759640370047
  C   -1.59106356421344      0.74057218573063     -0.49522008776125
  H   -1.34277288148592      1.42733780081422     -1.30833562680239
  H   -1.64674872189986      1.29049325576784      0.44476528297863
  H   -2.57158544015828      0.31017365649701     -0.70519580264422
  N   1.86953462681552     -0.88532626248482      0.00155130388315
  O   2.30900702905608     -1.49731257945409     -0.96242140368791
  O   2.15434721235358     -1.04755216322931      1.18024553239312
  N   1.01196952192039      1.24944892548739      0.71030793506391
  O   0.38181448282522      1.14461615695846      1.75910442132039
  O   1.80419856096953      2.14357085527720      0.42381910162538
