17
Coordinates from ORCA-job run
  C   -0.61368548114353     -0.44433971971875     -0.16449521062149
  C   0.83390625939980     -0.29872477037059      0.31456948387794
  Cl  -0.54451464624619     -1.96401743131890     -1.21334815960979
  H   1.14318871336645     -1.18943976418619      0.85580768190309
  N   -1.38530528057946     -0.61157922045114      1.01206975251217
  H   -1.12933263424813     -1.43539177830966      1.54259906733524
  H   -2.37603123851228     -0.63456101341029      0.80932008494502
  C   -1.19606653722052      0.66405012939303     -1.01801854455293
  H   -2.22319958304813      0.38844362053896     -1.26861146500604
  H   -0.63879568068813      0.79726957304489     -1.93942429636657
  H   -1.19790594974813      1.59855418488681     -0.45831354729211
  N   0.96392710042452      0.84275943164239      1.28616936100886
  O   1.18703689664765      0.51779560571224      2.44813085100493
  O   0.82640804349216      1.97944009338157      0.85053674433313
  N   1.85665887623782     -0.11277786618966     -0.76435010916458
  O   2.81760894755946     -0.87736366034784     -0.70800477951551
  O   1.67710219430664      0.77888258570315     -1.58563691479137
