17
Coordinates from ORCA-job run
  C   -0.61665867564606     -0.33241204006911     -0.44218285608943
  C   0.83716964067249      0.14140332569800     -0.21671200089901
  Cl  -0.49365942393460     -1.27024051467326     -1.98557912478133
  H   1.18879427090041      0.76029153150187     -1.03798715867411
  N   -1.20922179519108     -1.15366601047614      0.55348226131704
  H   -0.58323116604038     -1.87800380326811      0.87592983765873
  H   -1.55034352890292     -0.60682139464165      1.33224741939405
  C   -1.49478713018166      0.88186642989536     -0.69744994189691
  H   -1.08786660032381      1.50978737714325     -1.48993646258526
  H   -2.48181989017094      0.52692087429130     -0.99320235712886
  H   -1.59290253164087      1.48445164424975      0.20940124946761
  N   1.85376848926081     -0.95179267817710     -0.06502305617025
  O   1.51984273689486     -1.99901694029007      0.47795436195585
  O   2.97273218130701     -0.67588917561227     -0.48989686903273
  N   0.91139177385638      0.97905328932030      1.02311700818497
  O   0.90664437669830      0.38821630186185      2.09959405430347
  O   0.92114727244205      2.19485178324603      0.84924363497619
