17
Coordinates from ORCA-job run
  C   -0.60028112398690     -0.29905736728449     -0.32442663223311
  C   0.80893460682466      0.28948500197743     -0.23381899516592
  Cl  -0.57664576244330     -1.16051803971112     -1.97494964459351
  H   0.97546840962079      1.03002967295837     -1.01246519345216
  N   -0.88471235318893     -1.13153696761410      0.77021711579933
  H   -1.84245705951345     -1.45475498048691      0.75935011968080
  H   -0.24021211258700     -1.90546707705057      0.85703182758768
  C   -1.64770005266479      0.79455630653512     -0.45214180588917
  H   -1.71978752570608      1.35218633747744      0.48094922227579
  H   -2.61138699185892      0.32893557537042     -0.66820432781708
  H   -1.41081071663228      1.47617912300955     -1.26847533549801
  N   1.92669219924363     -0.70311646031746     -0.35944721083274
  O   1.76184149362926     -1.83413522801640      0.08263451262965
  O   2.94941741280367     -0.26254289536272     -0.87545070710613
  N   1.00141945090365      0.98545859045745      1.09092835685955
  O   0.54288454070376      2.12124955374878      1.14289837390059
  O   1.56733558485223      0.37304885430922      1.98537032385443
