17
Coordinates from ORCA-job run
  C   -0.60339693232333     -0.52013703560641     -0.17164695631965
  C   0.83854554297424     -0.37441057408517      0.33353851904774
  Cl  -0.59250130503049     -2.03715709348527     -1.13440204401368
  H   1.17121431723002     -1.30966599311761      0.77668711257088
  N   -1.39126014633098     -0.77845408207556      1.02151720207287
  H   -1.70973939203618      0.10364424088770      1.40630701618369
  H   -2.19711293279110     -1.34241355264242      0.78205964676261
  C   -1.10777202081996      0.59632090633765     -1.07075329811416
  H   -1.07660613993378      1.54647041726720     -0.53849159426669
  H   -2.14001102437961      0.36932346497171     -1.34381483876591
  H   -0.52157306273516      0.68346747889749     -1.98503888600358
  N   1.00673577040131      0.67937550875177      1.39419407744762
  O   0.12686431644287      1.51901184005388      1.55241395588134
  O   2.06403605558654      0.60862178993861      2.01082119570271
  N   1.81214630860587     -0.00478807953007     -0.74470748120664
  O   1.83883390252357      1.17882762524113     -1.07282156350515
  O   2.48259674261616     -0.91703686180462     -1.21386206347401
