17
Coordinates from ORCA-job run
  C   -0.66077538424497     -0.28775638373757     -0.43114526214596
  C   0.81156057117496      0.15878421500340     -0.25432297431225
  Cl  -0.64187896276089     -1.09802343132261     -2.04034923638508
  H   1.15134080804893      0.75870078064673     -1.09452909203468
  N   -1.21631387877951     -1.20854907800368      0.50774712577781
  H   -1.24196252359805     -0.77957104733517      1.42482162012580
  H   -0.66371985227500     -2.05460293694694      0.57032882625819
  C   -1.53239772912542      0.95430081813757     -0.52014668593671
  H   -2.53412792499832      0.64367650320004     -0.81492553889871
  H   -1.14632748492962      1.66211792832957     -1.25572376205137
  H   -1.59271938518251      1.44219184300791      0.45559169394759
  N   1.76707553884756     -0.98869988201174     -0.14690263072463
  O   2.59479703731437     -1.09525144955738     -1.04567194299411
  O   1.63595708855740     -1.72719244615026      0.82696985062778
  N   1.02629215938352      0.99822291065431      0.97398769792917
  O   1.85500971572095      1.89796076503059      0.85562599034034
  O   0.38919020684662      0.72569089105522      1.98764432047682
