17
Coordinates from ORCA-job run
  C   -0.64810138530794     -0.28925340909515     -0.42745607613124
  C   0.82928455033201      0.12959102578688     -0.25061225265437
  Cl  -0.63047595026805     -1.14278708674582     -2.02336790293109
  H   1.15909290314246      0.78315735368797     -1.05381836659362
  N   -1.21747122313761     -1.14835100381143      0.55006779450941
  H   -0.59959388535705     -1.90829254575527      0.79797147176261
  H   -1.49656663538375     -0.63663450509886      1.37614350128850
  C   -1.49835066630386      0.96253113943231     -0.57071614534064
  H   -1.53204300397133      1.51540923985046      0.37188556697012
  H   -1.11114243416284      1.62219736747834     -1.34714520362068
  H   -2.50978065253083      0.65412547141688     -0.83441566803259
  N   1.81632332895716     -0.99956878679503     -0.21234007301078
  O   1.48090454187260     -2.06048862187877      0.30274705240055
  O   2.91595434599384     -0.73904401679981     -0.69375985498854
  N   0.99044280545582      0.89470380830689      1.02726700622030
  O   1.00811367973540      0.24670676405657      2.07020296853055
  O   1.04140968093397      2.11699780596385      0.91734618162152
