17
Coordinates from ORCA-job run
  C   -0.57375521580872     -0.56001914648858     -0.14243235922935
  C   0.89041550959272     -0.31510952231415      0.24711002713792
  Cl  -0.52588122296313     -2.03670455653025     -1.16442392613555
  H   1.32872640422207     -1.23400471038748      0.62826089261088
  N   -1.23232763062219     -0.92168579143438      1.10135405441379
  H   -1.59541171584906     -0.08385577397154      1.54137337957268
  H   -2.00086531528300     -1.55212967024177      0.91032512185071
  C   -1.24092347436625      0.54157221228450     -0.94888092707085
  H   -0.74259316820000      0.71106933725982     -1.90278720138127
  H   -1.24232666991621      1.47113085596551     -0.38065875468850
  H   -2.27062519479989      0.23805880365590     -1.14688979910760
  N   1.06573510064569      0.71667370243890      1.32868275938892
  O   2.17591356138695      0.71675779626478      1.84889772350219
  O   0.13790872831864      1.47331160774889      1.59450541659408
  N   1.73997761316257      0.16200626683812     -0.89139869980868
  O   1.64028558952032      1.35076968703343     -1.18519185461532
  O   2.44574710095951     -0.67784109812171     -1.43784585303405
