17
Coordinates from ORCA-job run
  C   -0.66985527939844     -0.48085433620050     -0.23951379771220
  C   0.79347731754444     -0.32803124544471      0.25319766511418
  Cl  -0.56101478074424     -1.75128497731720     -1.50903632778099
  H   1.08547490679859     -1.21252299732909      0.82097692400107
  N   -1.54945800609555     -0.99325411348598      0.77499335087561
  H   -1.62745907384334     -0.32453984648983      1.53095022235173
  H   -1.22392163910385     -1.88117435309460      1.13898777551272
  C   -1.26333143776765      0.78007882351336     -0.83672685729695
  H   -1.35698785957796      1.54895755752397     -0.06619581593757
  H   -0.65512514760687      1.16189284934564     -1.65249221619105
  H   -2.25978606994774      0.53221248528840     -1.20090996550502
  N   0.98260031848173      0.85468983506120      1.18238547507908
  O   0.08288374064335      1.05963315005834      1.99087127057306
  O   2.03512598822952      1.47227754642446      1.10011301660778
  N   1.81205469500411     -0.17861433765656     -0.83331293248003
  O   1.66416814076388      0.75422719511352     -1.61340473230939
  O   2.71115418662003     -1.01369323531041     -0.84288305490204
