17
Coordinates from ORCA-job run
  C   -0.66125565654485     -0.49752840315764     -0.22977154832594
  C   0.79647315642328     -0.30870624364458      0.26670899615860
  Cl  -0.52454493724771     -1.80184655319175     -1.46195470105858
  H   1.09947910730650     -1.17406395367944      0.85768698987531
  N   -1.53967642815988     -0.99489838203999      0.79339253972485
  H   -1.62992209091332     -0.30809188667719      1.53152332988887
  H   -1.20422310516761     -1.86879235410122      1.18151314878434
  C   -1.26985000775197      0.73665505963515     -0.86619796285834
  H   -1.38132139141087      1.52423544210133     -0.11732038500233
  H   -0.66162753982063      1.10602403626695     -1.68767276637743
  H   -2.25957484224057      0.46330872399036     -1.23040558995834
  N   0.96238443541236      0.90056657907316      1.16640991126455
  O   0.05120372552810      1.11860131023884      1.95852631615317
  O   2.01037810831606      1.52537286518173      1.08080051206406
  N   1.81854818677936     -0.17062177483568     -0.81788279880408
  O   2.72829278399857     -0.99407156274823     -0.80497894362276
  O   1.66323649549318      0.74285709758821     -1.61937704790591
