17
Coordinates from ORCA-job run
  C   -0.60860223451679     -0.51526786335453     -0.16565478951493
  C   0.82817549420176     -0.37546623709723      0.35543479061169
  Cl  -0.60474331865329     -2.05821771642422     -1.08619706020043
  H   1.13882673139761     -1.30135007220709      0.83293674822162
  N   -1.41527072349359     -0.72938296517790      1.02377245765786
  H   -2.22011260156802     -1.29807561130936      0.79262320723747
  H   -1.73478593219459      0.16637182685656      1.37444457467412
  C   -1.08643605690431      0.58232672484272     -1.10167312117483
  H   -2.11689932702010      0.35919165024364     -1.38446006648827
  H   -0.48516628195479      0.63880006105292     -2.00846996424214
  H   -1.05276149606004      1.54589661835596     -0.59436359086187
  N   0.99764512349414      0.70872265177115      1.38526895781398
  O   2.04718915547121      0.64470347707978      2.01566557046134
  O   0.12547231169173      1.56213949455053      1.50876178125911
  N   1.82403370530643     -0.05531444793774     -0.71778851628510
  O   2.49408869877025     -0.99030440567465     -1.14078471583123
  O   1.86834675203241      1.11522681442944     -1.08851626333839
