17
Coordinates from ORCA-job run
  C   -0.68840449287001     -0.47635270417188     -0.24691934757215
  C   0.74115366088089     -0.40070870515399      0.32983724351685
  Cl  -0.65269226786624     -1.97304573918988     -1.25062330522279
  H   1.00843912482988     -1.33882776188699      0.81524438914704
  N   -1.67171481196938     -0.68080370063255      0.77880646164186
  H   -1.44770101105625     -1.46499844833049      1.37927734031357
  H   -1.79236729767745      0.16253060406856      1.32474049397341
  C   -1.09245038899869      0.68544317344071     -1.13374392546808
  H   -2.11116052899771      0.49430057252653     -1.47086232906720
  H   -1.06425261887810      1.62003831997327     -0.57422978142788
  H   -0.44087408480562      0.77392499013363     -2.00047066845495
  N   0.94454764712757      0.67425153779398      1.37151453134596
  O   2.01735942611293      0.60206614906454      1.96088565259106
  O   0.07106084337982      1.51574891201196      1.55380095196638
  N   1.80459649051965     -0.13187509498785     -0.69531280893079
  O   2.48625253659724     -1.08731913451958     -1.04637842919833
  O   1.88820777367145      1.02662702986005     -1.09456646915397
