17
Coordinates from ORCA-job run
  C   -0.57370426310000     -0.56002543984905     -0.14181449178686
  C   0.89173599003649     -0.31451040035646      0.24291942829336
  Cl  -0.52778072722365     -2.03422800851967     -1.16769291268778
  H   1.33249959659676     -1.23431969925977      0.61893397198063
  N   -1.22720819519009     -0.92549845915685      1.10342782532704
  H   -1.59011484420171     -0.08930243877106      1.54665552202976
  H   -1.99516501758549     -1.55701978291057      0.91384865915513
  C   -1.24540990830843      0.54244336749924     -0.94340114172272
  H   -0.75059858825432      0.71513487789175     -1.89854087967499
  H   -1.24647704361529      1.47042970352560     -0.37265926666549
  H   -2.27522487378645      0.23754295514257     -1.13863314562142
  N   1.06969264584888      0.71351884297768      1.32716563724694
  O   0.14306462906727      1.47120697815848      1.59467901840920
  O   2.17960843794992      0.70980919569964      1.84795957926351
  N   1.73636988510764      0.16713112600513     -0.89721826109983
  O   1.63387769167199      1.35663434402587     -1.18718966446543
  O   2.44183458498648     -0.66994716210253     -1.44843987798106
