16

C	-0.478539	-0.003258	-1.468902
C	0.0	0.0	0.0
Br	0.227363	1.570339	-2.420731
H	1.100651	0.0	0.0
C	-0.026757	-1.18875	-2.196674
N	0.327578	-2.139532	-2.789468
C	-1.940179	0.06793	-1.535989
N	-3.114677	0.07545	-1.573853
C	-0.504546	-1.245167	0.712266
H	-1.596152	-1.240241	0.798628
H	-0.068563	-1.265484	1.714709
H	-0.181441	-2.154756	0.203257
N	-0.546577	1.202109	0.630839
H	-0.614663	1.032269	1.627649
H	0.129308	1.951233	0.515067
Br	3.524171	0.0	0.0
