16

C	-0.423818	-0.026553	-1.48327
C	0.0	0.0	0.0
Br	-2.414144	-0.008984	-1.635739
H	1.102744	0.0	0.0
C	0.036786	1.16932	-2.186009
N	0.367095	2.132105	-2.773199
C	0.021329	-1.232583	-2.178691
N	0.338035	-2.22669	-2.720484
C	-0.460043	-1.230904	0.76336
H	-0.153708	-2.154445	0.266691
H	0.016747	-1.21133	1.745988
H	-1.546836	-1.242064	0.893992
N	-0.438541	1.263125	0.567534
H	-1.179269	1.12903	1.243226
H	0.350128	1.710086	1.017926
Br	3.44879	0.0	0.0
