16

C	-0.421603	-0.007913	-1.513156
C	0.0	0.0	0.0
Br	0.362307	1.536317	-2.445558
H	1.094889	0.0	0.0
C	0.006097	-1.215139	-2.215446
N	0.296268	-2.208483	-2.773922
C	-1.875681	0.120271	-1.621602
N	-3.046603	0.233677	-1.623173
C	-0.52389	-1.257715	0.676653
H	-1.619415	-1.273815	0.709795
H	-0.16553	-2.163741	0.184522
H	-0.147339	-1.250711	1.699928
N	-0.445484	1.173965	0.708953
H	-1.42929	1.369586	0.560387
H	0.109106	1.977681	0.445644
Br	3.507708	0.0	0.0
