16

C	-0.481431	-0.024288	-1.468021
C	0.0	0.0	0.0
Br	0.22609	1.533825	-2.442661
H	1.100721	0.0	0.0
C	-0.032102	-1.22078	-2.179429
N	0.322167	-2.1806	-2.757843
C	-1.943393	0.048081	-1.533227
N	-3.117994	0.054048	-1.573302
C	-0.505319	-1.234418	0.729773
H	-0.183462	-2.151559	0.233788
H	-1.596828	-1.226846	0.816565
H	-0.068848	-1.240693	1.732082
N	-0.54516	1.211395	0.614583
H	-0.611756	1.055293	1.613709
H	0.131114	1.957798	0.487478
Br	3.522383	0.0	0.0
