16

C	-0.490546	0.082225	-1.471652
C	0.0	0.0	0.0
Br	0.208853	-1.399529	-2.559802
H	1.097604	0.0	0.0
C	-1.953014	0.012641	-1.515091
N	-3.127051	-0.057206	-1.495351
C	-0.060743	1.330122	-2.102366
N	0.226775	2.330667	-2.646159
C	-0.498369	-1.247703	0.705779
H	-0.181022	-2.157847	0.194792
H	-0.062222	-1.26223	1.708455
H	-1.591802	-1.250971	0.794433
N	-0.475255	1.232639	0.622157
H	-1.124494	1.042316	1.37391
H	0.317439	1.743804	0.990066
Br	3.498328	0.0	0.0
