16

C	-0.423058	0.302487	-1.451309
C	0.0	0.0	0.0
Br	-2.415709	0.313948	-1.601522
H	1.110466	0.0	0.0
C	0.009385	1.635063	-1.866447
N	0.324424	2.706437	-2.233147
C	0.0469	-0.702649	-2.404081
N	0.399252	-1.521362	-3.171031
C	-0.451122	-1.375063	0.464568
H	-0.146457	-2.158658	-0.233143
H	0.032176	-1.581103	1.42212
H	-1.537098	-1.419788	0.59684
N	-0.443653	1.101412	0.836453
H	-1.212905	0.824161	1.431903
H	0.331551	1.406427	1.412938
Br	3.472217	0.0	0.0
