16

C	-0.484985	-0.024826	-1.467797
C	0.0	0.0	0.0
Br	0.240119	1.521262	-2.44657
H	1.100053	0.0	0.0
C	-0.051695	-1.229471	-2.175854
N	0.289602	-2.198377	-2.747008
C	-1.946201	0.064889	-1.52712
N	-3.120631	0.106188	-1.54383
C	-0.505674	-1.230934	0.735522
H	-1.596414	-1.217783	0.831276
H	-0.194393	-2.151078	0.238398
H	-0.060533	-1.237886	1.733756
N	-0.535339	1.21787	0.610188
H	0.165936	1.945564	0.522849
H	-0.656495	1.052239	1.602219
Br	3.516524	0.0	0.0
