16

C	-0.484182	0.007067	-1.475757
C	0.0	0.0	0.0
Br	0.234058	-1.521499	-2.485445
H	1.095028	0.0	0.0
C	-1.946141	-0.074821	-1.530259
N	-3.118644	-0.154571	-1.564504
C	-0.049772	1.225797	-2.158671
N	0.283765	2.197957	-2.728004
C	-0.50647	-1.207322	0.767102
H	-0.058194	-1.184024	1.763176
H	-0.209396	-2.142195	0.292287
H	-1.598293	-1.189532	0.867248
N	-0.487863	1.258698	0.557693
H	0.302498	1.839061	0.815377
H	-1.059795	1.099503	1.375465
Br	3.498188	0.0	0.0
