17

C	-0.146876	0.03704	-1.532633
C	0.0	0.0	0.0
Cl	0.088668	-1.764624	-2.140745
H	1.091628	0.0	0.0
C	-1.497383	0.336596	-2.020567
N	-2.59589	0.566728	-2.37227
N	0.843458	0.886893	-2.005526
H	1.720139	0.702417	-1.472979
H	0.949724	0.876011	-3.010305
C	-0.6825	-1.116029	0.746653
H	-1.740728	-1.211359	0.490082
H	-0.165183	-2.050556	0.537713
H	-0.605809	-0.919021	1.819017
N	-0.489881	1.322856	0.503199
O	-1.675141	1.393814	0.851999
O	0.303008	2.259612	0.553051
F	2.621183	0.0	0.0
