17

C	-0.145886	-0.12659	-1.518789
C	0.0	0.0	0.0
Cl	-1.77275	-0.749332	-2.037154
H	1.093427	0.0	0.0
C	0.058227	1.155772	-2.21424
N	0.269358	2.131411	-2.832733
N	0.881689	-1.029971	-2.023401
H	1.73619	-0.763796	-1.491519
H	0.634744	-1.971453	-1.738148
C	-0.467022	-1.201929	0.795747
H	-0.058115	-2.111305	0.355368
H	-1.557348	-1.281683	0.828636
H	-0.072244	-1.115966	1.807202
N	-0.591052	1.213492	0.592503
O	-1.343067	1.915894	-0.088112
O	-0.322208	1.434984	1.772682
F	2.59218	0.0	0.0
