17

C	-0.155769	-0.039897	-1.518073
C	0.0	0.0	0.0
Cl	-1.836237	-0.577163	-2.036917
H	1.107834	0.0	0.0
C	0.049777	1.23945	-2.222815
N	0.294203	2.128473	-2.952876
N	0.813724	-1.015549	-1.952182
H	0.955432	-0.940753	-2.952709
H	1.689452	-0.789646	-1.44055
C	-0.468611	-1.267371	0.683687
H	-0.168015	-2.112773	0.065985
H	-1.552641	-1.285606	0.821289
H	0.016967	-1.348359	1.654902
N	-0.549327	1.191206	0.662574
O	-0.712746	1.118963	1.882479
O	-0.781046	2.20644	0.003095
F	2.578688	0.0	0.0
