17

C	-0.139926	0.1625	-1.532907
C	0.0	0.0	0.0
Cl	-0.324439	-1.671619	-2.278353
H	1.093766	0.0	0.0
C	-1.394426	0.724202	-2.041635
N	-2.407119	1.153212	-2.457496
N	0.994779	0.778987	-1.988243
H	1.089037	0.872628	-2.9872
H	1.846332	0.523029	-1.429904
C	-0.630153	-1.189476	0.679678
H	-0.123911	-2.096468	0.35826
H	-1.698318	-1.277573	0.454123
H	-0.498278	-1.081299	1.755825
N	-0.410936	1.272567	0.670307
O	-0.577327	2.28519	-0.009361
O	-0.50885	1.250415	1.898246
F	2.632636	0.0	0.0
