17

C	-0.142465	-0.033309	-1.523878
C	0.0	0.0	0.0
Cl	-1.772922	-0.611232	-2.080608
H	1.09381	0.0	0.0
C	0.074547	1.284282	-2.143702
N	0.296826	2.288795	-2.709327
N	0.878994	-0.915376	-2.079196
H	0.622077	-1.869273	-1.847162
H	1.735691	-0.685515	-1.533551
C	-0.472108	-1.247164	0.719788
H	-0.066116	-2.13027	0.225343
H	-0.079768	-1.225086	1.736064
H	-1.562844	-1.323574	0.74618
N	-0.585716	1.179229	0.664059
O	-1.307152	1.942729	0.016307
O	-0.338189	1.314939	1.862931
F	2.592556	0.0	0.0
