17

C	-0.134775	0.259541	-1.520685
C	0.0	0.0	0.0
Cl	-0.344606	-1.528779	-2.383146
H	1.101411	0.0	0.0
C	-1.381151	0.865744	-1.997128
N	-2.387196	1.335514	-2.384401
N	1.005954	0.885163	-1.939278
H	1.099755	1.051095	-2.928229
H	1.855451	0.596706	-1.394293
C	-0.63234	-1.229951	0.599375
H	-0.505416	-1.191489	1.679793
H	-1.698556	-1.303679	0.364348
H	-0.125636	-2.11436	0.222165
N	-0.409886	1.228122	0.748078
O	-0.544401	2.287677	0.135604
O	-0.535897	1.124428	1.969342
F	2.635091	0.0	0.0
