17

C	-0.489661	0.124427	-1.443756
C	0.0	0.0	0.0
Cl	0.095888	1.692329	-2.126012
H	1.097322	0.0	0.0
C	0.188544	-0.927687	-2.219614
N	0.635192	-1.805095	-2.859539
N	-1.91012	0.014237	-1.731898
H	-2.389816	0.628184	-1.08259
H	-2.198994	-0.943342	-1.564431
C	-0.394756	-1.325202	0.638138
H	0.068871	-1.369558	1.623778
H	-1.480016	-1.453062	0.741501
H	0.017546	-2.144937	0.047438
N	-0.526228	1.072707	0.865145
O	-0.010253	1.193129	1.974229
O	-1.477523	1.770772	0.478357
F	2.512891	0.0	0.0
