17

C	-0.508613	0.065916	-1.436371
C	0.0	0.0	0.0
Cl	0.443951	1.33734	-2.378193
H	1.09999	0.0	0.0
C	-0.162943	-1.191599	-2.117214
N	0.045296	-2.189434	-2.701102
N	-1.924182	0.251265	-1.551597
H	-2.193855	0.256827	-2.528086
H	-2.146107	1.151042	-1.140656
C	-0.404967	-1.286595	0.702645
H	-0.041473	-1.239949	1.726955
H	0.09889	-2.121606	0.215949
H	-1.486661	-1.453387	0.694404
N	-0.444245	1.158977	0.790279
O	-0.954346	2.138686	0.225723
O	-0.237999	1.124902	2.00285
F	2.49576	0.0	0.0
