16
Coordinates from ORCA-job run
  C   0.55972933455188      0.15923406459657     -0.34974995803781
  C   -0.74718000943713      0.65135936420314      0.31498211582224
  F   1.03733460602719      1.33897113568521     -0.97329970140048
  H   -0.50558064596751      1.42832986346250      1.04184489196864
  C   1.61809408396433     -0.26633368048247      0.64188982612043
  H   2.54775567127796     -0.43504158651066      0.09356339704501
  H   1.79337496398359      0.52176967489146      1.37405159029139
  H   1.33323954344919     -1.18101723837367      1.15778659299269
  N   0.26696028373335     -0.86375037177899     -1.26945986931543
  H   -0.36119838227189     -0.56303020469266     -2.00452388348462
  H   1.10574356491111     -1.25884006902124     -1.67233003483912
  N   -1.38219298867668     -0.47548836273279      1.08966074491458
  O   -0.93546112410948     -0.64549285058411      2.22072017421964
  O   -2.25243083747556     -1.13388195215530      0.53639013329399
  C   -1.67943915310534      1.15603110846824     -0.68510128612520
  N   -2.39974891085500      1.56618110502479     -1.51642473346597
