16
Coordinates from ORCA-job run
  C   0.40984970392279      0.00548444798008     -0.46444660633071
  C   -0.71652065154270      0.13712907747823      0.58195112204624
  F   0.24806123468401      1.06252103952958     -1.35607619707073
  H   -0.58051315049828     -0.60736362049349      1.36957166937930
  C   1.76660065614118      0.20089396543680      0.18843153706865
  H   1.95997426519113     -0.58560189683622      0.92066149059883
  H   2.52968774250351      0.14920277169237     -0.59199066007868
  H   1.84143462185010      1.17816972184713      0.66794272839667
  N   0.24059503108291     -1.21093168454801     -1.17991653793767
  H   -0.21545124891655     -1.95240600658607     -0.67052945680212
  H   1.09862131790444     -1.53093385902137     -1.60418088370381
  N   -2.04251098881024     -0.19391340602828     -0.06147240670366
  O   -2.63535642838051      0.70540141606389     -0.63808512381576
  O   -2.38625126305399     -1.36987930596553      0.03142165722655
  C   -0.76120617871915      1.47611436593344      1.15085749455007
  N   -0.75501466335863      2.53611297351745      1.65486017317682
