16
Coordinates from ORCA-job run
  C   0.57715127481406      0.22211121121584     -0.29317245319126
  C   -0.90252135419620      0.49375070921223      0.06042967361161
  F   1.27656290097365      1.28161219945269      0.31888558501859
  H   -1.21793579619925      1.41546921783890     -0.43363233325680
  C   1.13252137256147     -1.07038273382910      0.25567296525856
  H   0.60559135396484     -1.92645290343687     -0.16522159306929
  H   1.05021841514336     -1.09360660634021      1.34009844986167
  H   2.18993002629504     -1.12989522062037     -0.01211638771398
  N   0.66664351149459      0.26588616919547     -1.70345112661691
  H   1.56864789320884     -0.05425438116179     -2.03073572619822
  H   0.48862240900857      1.19607364609217     -2.06203578898320
  N   -1.04775902566885      0.77233087496123      1.53604031161446
  O   -0.99385648792083     -0.19200385754411      2.29180859682112
  O   -1.18255676553162      1.94832290209729      1.85131428026608
  C   -1.75930422292909     -0.61884165376680     -0.32015166156277
  N   -2.45295550501856     -1.51211957336657     -0.63473279185964
