16
Coordinates from ORCA-job run
  C   0.54261261577110      0.29095924468857     -0.29839449856633
  C   -0.96713368430960      0.35566804655681      0.02480625980893
  F   1.06450588142730      1.47380612666277      0.26240877375570
  H   -1.40682856427175      1.19388187551769     -0.52041515573029
  C   1.27481858202494     -0.87343150393310      0.32467793310058
  H   1.17191532049536     -0.85718343430524      1.40755088208864
  H   2.33494838191726     -0.78284424234059      0.07674691974787
  H   0.89378874358761     -1.81914156904276     -0.06046719021043
  N   0.65007623354811      0.27464685994900     -1.70831685631062
  H   0.34761496907224      1.15035242289958     -2.11713518371275
  H   1.59444786548626      0.07137712638292     -2.00833650627955
  N   -1.17942031106595      0.68462054770638      1.48199596250108
  O   -0.99751396636054     -0.22119103033226      2.28867505397884
  O   -1.49261982369255      1.84199870400276      1.73271243021282
  C   -1.64170550871792     -0.89043082527978     -0.30519275371329
  N   -2.18850673491186     -1.89208834913275     -0.58031607067125
