16
Coordinates from ORCA-job run
  C   0.55486126822009      0.18764672956945     -0.34175131749913
  C   -0.75912964452353      0.61822308492795      0.35065450855374
  F   1.00933454976445      1.40861100075865     -0.90026746176130
  H   -0.53045056344187      1.36063386613857      1.11677629518204
  C   1.62315350193884     -0.27181113178668      0.62385412317762
  H   2.55551742891701     -0.38892010464438      0.06674948919149
  H   1.78283027082177      0.47610502740733      1.40026337549460
  H   1.35833352206857     -1.22062576719367      1.08578956814158
  N   0.27940780029749     -0.78843683130612     -1.31595784849599
  H   -0.35684657455245     -0.46049320461693     -2.03226208525001
  H   1.12452436874026     -1.14463386363892     -1.74135232242140
  N   -1.36945981492620     -0.56049280220101      1.06574262653010
  O   -2.22622373092668     -1.20691538741848      0.47838622687640
  O   -0.91492126764721     -0.78298693248903      2.18441259605389
  C   -1.70460914515482      1.15772243844814     -0.61844979149996
  N   -2.42832196959574      1.61537387804513     -1.42158798227364
