16
Coordinates from ORCA-job run
  C   0.45744463677643     -0.14532463183885     -0.43184844213361
  C   -0.76132030741478      0.17565461367615      0.49415980606224
  F   0.19682135518128      0.59283796877964     -1.58360077375222
  H   -0.74755715949655     -0.50136148476196      1.35109904758115
  C   1.74214825224504      0.36408616857670      0.18437747364850
  H   1.72195932277723      1.45044571857003      0.25872012049989
  H   1.90162832060688     -0.05761523712461      1.18001426797621
  H   2.56695819055636      0.07152396341715     -0.46682796793719
  N   0.58174070505435     -1.50906494435856     -0.79470664046095
  H   1.16145672525412     -2.03125299754925     -0.15526915764587
  H   -0.30438802376836     -1.97341231996033     -0.93894400885255
  N   -2.03247459630931     -0.13445634467599     -0.25965924413944
  O   -2.29603792794287     -1.33174925651565     -0.36368335750487
  O   -2.67097464070546      0.79506082439114     -0.73033912548096
  C   -0.78068838683138      1.56343748894920      0.93239099158724
  N   -0.73771646598298      2.66919047042518      1.32511701055246
