16
Coordinates from ORCA-job run
  C   0.44314936367983     -0.05542207774084     -0.46596959699813
  C   -0.74546494616118      0.06829361503761      0.54232655039369
  F   0.13119484764038      0.87486439698410     -1.45460710632757
  H   -0.69263441473438     -0.75184867368267      1.26174085248013
  C   1.74271490988220      0.35928246380338      0.18872703122889
  H   1.70899779587277      1.41196612191544      0.46570438803922
  H   2.54571409338890      0.21139795136079     -0.53467115718505
  H   1.94731467163299     -0.23720798321940      1.08143473171648
  N   0.57167721335300     -1.32808656665966     -1.07408100220884
  H   1.18816080379761     -1.94366492354938     -0.56579850590720
  H   -0.31220091757384     -1.77898045922733     -1.26605446250006
  N   -2.03921409451837     -0.12512478304044     -0.21277058300066
  O   -2.70760788309374      0.86149562006889     -0.48342026045583
  O   -2.29020076909146     -1.28854721002366     -0.52439148253298
  C   -0.76843337688384      1.35278191801210      1.22659118912150
  N   -0.72416729719093      2.36780058996108      1.81523941413644
