16
Coordinates from ORCA-job run
  C   0.56753329301066      0.23581384014188     -0.30020572624910
  C   -0.89210596086590      0.49941302450863      0.13347013263710
  F   1.30726462982876      1.24011285329192      0.35599933930811
  H   -1.21317780864950      1.45789825311051     -0.28040789228754
  C   1.12532984938544     -1.09952406462140      0.13086033969840
  H   1.08029191009323     -1.20369328947830      1.21273352459931
  H   2.17195456413653     -1.14856693776629     -0.17819597599778
  H   0.57329295661382     -1.91620046490938     -0.33398723412389
  N   0.60008912879242      0.38046479667971     -1.70644875637072
  H   0.42895496727483      1.33785183123348     -1.98855028246549
  H   1.48051434057712      0.06732572362352     -2.09373190568140
  N   -0.97280034594271      0.67358811201991      1.62995191047287
  O   -0.90048464725496     -0.34265177756469      2.31276271753658
  O   -1.07476919664600      1.82577536276018      2.03327596341856
  C   -1.78047024924888     -0.57264443669935     -0.28877271610774
  N   -2.49941743110486     -1.43296282633031     -0.63675343838727
