16
Coordinates from ORCA-job run
  C   0.63716318006957      0.25395702480591     -0.35865767915449
  C   -0.78105905154900      0.65449720550104      0.17650120180800
  F   1.08076335627712      1.45304016048654     -0.90588439030411
  H   -0.69107828787313      1.52411877628282      0.82824413295286
  C   1.55408031380945     -0.13661758176412      0.77787931527041
  H   1.54203357663450      0.62186874916602      1.56141135650260
  H   1.26759836486566     -1.09542950672355      1.21426812102963
  H   2.56189127012524     -0.22250817524925      0.37252663246962
  N   0.66158198169038     -0.71405319286633     -1.39468024096638
  H   0.45021887888029     -1.64120193326538     -1.05334910841691
  H   0.02825762070170     -0.47841369613935     -2.14958702790942
  N   -1.30412541717751     -0.46574041838028      1.02645675573867
  O   -1.25984628679805     -0.29572408119227      2.24112872278444
  O   -1.66884162646029     -1.48250369570801      0.44236800458888
  C   -1.69355006825173      0.91269310121877     -0.92591196745949
  N   -2.38408780494419      1.11101726382738     -1.85471382893427
