16
Coordinates from ORCA-job run
  C   0.58142058120060      0.21852548091531     -0.28766857969360
  C   -0.88453285541262      0.51973191293275      0.09692259137565
  F   1.32176517953853      1.22165844173885      0.36985074155859
  H   -1.17228136335366      1.47784123901901     -0.34168088640138
  C   1.09935324170252     -1.11809397494873      0.18703334627681
  H   0.53751613815190     -1.93356949754065     -0.26806328953844
  H   2.15029143024270     -1.19953030737800     -0.09983558362039
  H   1.03127504763420     -1.19358720362574      1.27006698413732
  N   0.65809457429621      0.33273176602153     -1.69489317858737
  H   1.54548944775312      0.00006854098067     -2.04855624235393
  H   0.50867755613329      1.28593834956135     -2.00239115434315
  N   -1.00636689950775      0.72054132837211      1.58730770611638
  O   -1.09755934911054      1.88101445063809      1.96883068421720
  O   -0.97907954513895     -0.28579265568518      2.28783680706987
  C   -1.78312874292334     -0.54001477926719     -0.33465070009058
  N   -2.51293444120626     -1.38846309173413     -0.68910924612298
