16
Coordinates from ORCA-job run
  C   0.58645395098129      0.28081935089956     -0.42060554709205
  C   -0.73988802917099      0.64058622841562      0.33323877965212
  F   0.96869027080565      1.51971128382802     -0.92440531023207
  H   -0.55027322392357      1.45251931298073      1.03600911747333
  C   1.64379241464166     -0.20400695659622      0.54484465632403
  H   1.40532897678756     -1.19387574080947      0.93864393867206
  H   1.74996242926707      0.48880479208070      1.38036271996263
  H   2.58569797284740     -0.26074989676650     -0.00013428039437
  N   0.45627091947390     -0.59915897392620     -1.52454946435709
  H   0.28854681654810     -1.55211861082109     -1.23428185418903
  H   -0.27361976858356     -0.30473673892479     -2.16239228532658
  N   -1.16047831900271     -0.54443444800580      1.15217327686238
  O   -1.61686435657671     -1.50745136073058      0.54207442167435
  O   -0.95056112166810     -0.47582301201548      2.35948457510780
  C   -1.78994866424885      0.99280001892012     -0.60915300150971
  N   -2.60311026817811      1.26511475147132     -1.41130974262773
