16
Coordinates from ORCA-job run
  C   0.54038318614377      0.36541383775109     -0.29443818255753
  C   -0.92731374057184      0.52944608665330      0.16499207178996
  F   1.21386897080087      1.46790675140985      0.19885519478485
  H   -1.24373577973664      1.52849847504535     -0.13611536976506
  C   1.22450799324317     -0.87715854527538      0.23409465084245
  H   0.68621698061965     -1.77637548781167     -0.07170533263168
  H   2.23445631758603     -0.90918225318312     -0.17929429832104
  H   1.29151975529576     -0.86500050692652      1.32176837554504
  N   0.51257845295483      0.51616459846419     -1.73151165742646
  H   1.42634374712085      0.83357919300513     -2.03526118975214
  H   0.31660191382989     -0.37053445739329     -2.18190724889262
  N   -1.02561514643234      0.47413145098783      1.66597334654642
  O   -1.10122662202223     -0.63622178670721      2.18386281933598
  O   -0.97768836043694      1.55389253512808      2.24431709083679
  C   -1.76669773928003     -0.49937827931294     -0.43001244318239
  N   -2.40519992911479     -1.33418161183470     -0.95361782715246
