16
Coordinates from ORCA-job run
  C   0.57698338301016      0.32827183890888     -0.27069251795646
  C   -0.87718612028855      0.59826005149006      0.18053495864792
  F   1.33733818058235      1.34103670013549      0.28486713661582
  H   -1.10118633864125      1.63432605556119     -0.07500980002968
  C   1.14155729795173     -0.99468412394980      0.20100408859684
  H   1.19814037469074     -1.03976678588651      1.28838730511020
  H   2.14877724893341     -1.09841112124588     -0.20724385326906
  H   0.52778928685754     -1.82639635103173     -0.15035307510552
  N   0.58393632970834      0.55206568502879     -1.69875778090568
  H   0.31803276386143     -0.29075048525947     -2.19516614022742
  H   1.52698967930087      0.80090229648055     -1.97579740636544
  N   -1.00181541287158      0.47980643856371      1.67596742617105
  O   -0.87398519979200      1.52304534845643      2.30683959825755
  O   -1.17379076797469     -0.64435200909233      2.13827566880447
  C   -1.79692768917588     -0.32119501186563     -0.47210066036373
  N   -2.53365301615263     -1.04315852629379     -1.03275494798089
