16
Coordinates from ORCA-job run
  C   0.56685808796727      0.32465748480162     -0.28119509350705
  C   -0.89624672262895      0.58312311382846      0.14833574980328
  F   1.29902720412726      1.37779404257333      0.23673171839450
  H   -1.14521822700711      1.59591209692637     -0.16929693876306
  C   1.15673633013870     -0.96509547198983      0.24657545912494
  H   1.19410918803862     -0.97161069467169      1.33551031432500
  H   2.17314639217602     -1.05544176835778     -0.14143833024866
  H   0.57050290574537     -1.82388469858608     -0.08611191735985
  N   0.57853921759919      0.48577330165424     -1.71819288028588
  H   1.49967568241091      0.80703817468237     -1.99347488693429
  H   0.39614166997759     -0.39740600936960     -2.18035505519647
  N   -1.02966794253716      0.55131513914141      1.64731603985040
  O   -1.15888542812812     -0.54877701757944      2.17666500605690
  O   -0.95956347121338      1.63632611645121      2.21357341212058
  C   -1.78455275244375     -0.39904830310984     -0.45467898402809
  N   -2.46160213422245     -1.20167550639476     -0.97996361335229
