16
Coordinates from ORCA-job run
  C   0.57826221552479      0.32400394739428     -0.26914742456265
  C   -0.87504306636152      0.60887960931875      0.17721727030431
  F   1.34637923541656      1.33066338291376      0.28652878696192
  H   -1.08858595205198      1.64650289432971     -0.08084463644552
  C   1.12764792797645     -1.00348169064284      0.20753324900021
  H   1.17469294734810     -1.04939826453872      1.29534773934826
  H   0.50984720055920     -1.82973959170514     -0.14948083003495
  H   2.13734184045318     -1.11542711628144     -0.19228792512425
  N   0.59185271539327      0.54390277786627     -1.69761503243319
  H   0.32983741359956     -0.30024086038583     -2.19358780067078
  H   1.53522577047788      0.79533299805226     -1.97082545539833
  N   -1.00536680466018      0.49498336169343      1.67246382606852
  O   -0.86326841482620      1.53759120981845      2.30140656778907
  O   -1.19710373300752     -0.62513846813965      2.13674460358125
  C   -1.79776082301454     -0.30605050862484     -0.47750474048648
  N   -2.50295847282710     -1.05238368106840     -1.04694819789733
