16

C	0.0	0.0	0.0
C	-0.285293	-0.071119	-1.527102
Br	1.958747	0.0	0.0
H	0.139305	-1.031505	-1.854621
H	0.319774	0.70919	-1.986994
N	-0.596516	1.190078	0.616786
O	-0.50401	1.232969	1.865785
O	-0.635366	2.232437	-0.098744
N	-0.276852	-1.175389	0.830955
H	-0.259396	-1.994362	0.235837
H	-1.22509	-1.045917	1.146243
C	-1.706854	0.061447	-2.101719
H	-2.151201	1.006239	-1.788317
H	-2.382853	-0.747455	-1.804152
H	-1.630855	0.047709	-3.214215
H	-2.09939	0.0	0.0
