16

C	0.0	0.0	0.0
C	-0.49259	0.110803	-1.427024
Br	1.954384	0.0	0.0
H	-1.562739	0.348998	-1.304892
H	0.015558	0.934957	-1.927079
N	-0.242264	1.409802	0.701204
O	-0.216836	2.422248	0.01161
O	-0.404641	1.384768	1.916297
N	-0.642709	-1.01182	0.681151
H	-0.462627	-0.932195	1.677044
H	-1.693419	-0.778216	0.501473
C	-0.348683	-1.19563	-2.191832
H	-0.949113	-1.973069	-1.718514
H	0.691258	-1.533571	-2.2284
H	-0.702858	-1.062715	-3.219913
H	-2.985283	0.0	0.0
