16

C	0.0	0.0	0.0
C	-0.381458	0.032782	-1.487201
Br	2.032116	0.0	0.0
H	-1.362312	0.503553	-1.546663
H	0.384412	0.586714	-2.025001
N	-0.278941	1.330012	0.694645
O	-0.329623	1.296492	1.921607
O	-0.364936	2.338032	-0.002127
N	-0.334458	-1.145714	0.710093
H	0.035466	-1.083679	1.651571
H	-1.362299	-1.047858	0.742262
C	-0.493662	-1.360719	-2.033918
H	0.399102	-1.964172	-1.841833
H	-1.327455	-1.865758	-1.547155
H	-0.694348	-1.314202	-3.116122
H	-2.611941	0.0	0.0
