16

C	0.0	0.0	0.0
C	-0.280673	-0.055275	-1.524657
Br	1.990081	0.0	0.0
H	-1.365563	-0.131796	-1.617854
H	0.134435	-1.020941	-1.841916
N	-0.699393	1.089774	0.700901
O	-0.69961	2.214429	0.118947
O	-0.690411	0.997527	1.969177
N	-0.365476	-1.259781	0.638674
H	-0.636603	-0.989182	1.584376
H	0.461855	-1.840094	0.706437
C	0.225948	1.06208	-2.434454
H	1.313547	1.154518	-2.413118
H	-0.211589	2.013532	-2.133612
H	-0.071517	0.836103	-3.467386
H	-2.066375	0.0	0.0
