13

C	-0.504432	-0.013535	-1.435623
C	0.0	0.0	0.0
Br	-2.491778	-0.096873	-1.466275
H	1.093673	0.0	0.0
H	-0.370254	0.882925	0.518608
C	-0.152354	1.26142	-2.06375
N	0.104141	2.277762	-2.595743
C	-0.007311	-1.110288	-2.26647
N	0.393573	-1.94683	-2.988223
N	-0.458937	-1.177433	0.768724
O	-0.588396	-2.242541	0.170487
O	-0.640439	-1.006827	1.970764
Cl	3.171481	0.0	0.0
