13

C	-0.508566	0.014815	-1.435098
C	0.0	0.0	0.0
Br	-2.496587	0.099389	-1.461147
H	1.09369	0.0	0.0
H	-0.368899	-0.883876	0.517888
C	-0.014076	1.114733	-2.259245
N	0.395289	1.944854	-2.983336
C	-0.155895	-1.258942	-2.065312
N	0.105228	-2.281874	-2.582339
N	-0.460615	1.175433	0.77003
O	-0.570478	2.245532	0.175697
O	-0.664974	0.99943	1.968451
Cl	3.173787	0.0	0.0
