13

C	-0.536177	-0.026167	-1.429564
C	0.0	0.0	0.0
Br	-0.005542	-1.772218	-2.17424
H	1.090537	0.0	0.0
H	-0.364021	-0.863352	0.556186
C	-2.000565	0.025012	-1.466768
N	-3.176225	0.018917	-1.469879
C	0.021964	1.008176	-2.297446
N	0.432138	1.809534	-3.052764
N	-0.475189	1.207104	0.720935
O	-0.87481	2.161526	0.050793
O	-0.411852	1.169667	1.944098
Cl	3.200517	0.0	0.0
