13

C	-0.533547	0.052025	-1.433475
C	0.0	0.0	0.0
Br	-0.014535	-1.659099	-2.265279
H	1.09059	0.0	0.0
H	-0.36815	-0.891345	0.507212
C	-1.997555	0.116298	-1.468783
N	-3.173353	0.135213	-1.479319
C	0.029927	1.126605	-2.253305
N	0.447906	1.968241	-2.960457
N	-0.474244	1.170197	0.781445
O	-0.429087	1.061552	2.00181
O	-0.852623	2.165961	0.160674
Cl	3.194351	0.0	0.0
