13

C	-0.535914	0.006694	-1.432999
C	0.0	0.0	0.0
Br	0.366314	1.327893	-2.568403
H	1.088676	0.0	0.0
H	-0.353255	-0.892418	0.520145
C	-0.272029	-1.31196	-2.016367
N	-0.147349	-2.392585	-2.462352
C	-1.981596	0.241952	-1.496159
N	-3.150563	0.357715	-1.547127
N	-0.472853	1.159062	0.797139
O	-0.363674	1.043867	2.013564
O	-0.907507	2.147403	0.206792
Cl	3.199526	0.0	0.0
