13

C	-0.504832	0.000784	-1.435292
C	0.0	0.0	0.0
Br	-2.492816	0.075104	-1.462605
H	1.093651	0.0	0.0
H	-0.370427	-0.877981	0.526893
C	-0.006998	1.090643	-2.274579
N	0.404148	1.915661	-3.003536
C	-0.150028	-1.279532	-2.051079
N	0.102661	-2.304774	-2.567735
N	-0.461624	1.184469	0.756257
O	-0.584322	2.24496	0.148041
O	-0.650965	1.024228	1.958814
Cl	3.174579	0.0	0.0
