14
Coordinates from ORCA-job run
  C   0.58546927876195     -0.27651034536470     -0.46454997603395
  C   -0.74767691614106     -0.07647599482139      0.28945231540070
  Cl  0.11152167984768     -0.89134952353881     -2.14157800088090
  H   -1.20457764112211     -1.07732027825027      0.36495828165634
  N   1.41987232376872     -1.16934190813809      0.24236324453776
  H   0.99709257550151     -2.08463217513566      0.33749836430754
  H   2.33699124998157     -1.25600778892272     -0.17619132587736
  C   1.26399423224622      1.00340838249938     -0.66782551181319
  N   1.83486448722539      2.01370010535064     -0.84784968755455
  N   -1.56649231619311      0.91078057346755     -0.38825694045518
  H   -2.02303157347100      0.49912532891428     -1.19167169809396
  H   -2.27014714926355      1.28212176444088      0.23625977418714
  C   -0.45644111799977      0.38285670616412      1.65176222907325
  N   -0.27943911314242      0.74064515333477      2.75562893154636
