14
Coordinates from ORCA-job run
  C   0.60838890470550      0.02441617502608     -0.44500959689236
  C   -0.61441643193798      0.19215066195887      0.48760138993092
  Cl  0.38972230745666      0.97325510961486     -1.93073284937596
  H   -0.36257804954347     -0.39323435981576      1.39080714784499
  N   0.69248801981036     -1.38037225985765     -0.80265987570558
  H   1.07478000657278     -1.90540863339623     -0.02146535658397
  H   1.31411264264800     -1.49890025671409     -1.59453849981043
  C   1.81421832665665      0.52128499231472      0.23936363505626
  N   2.78913071143699      0.83132678407194      0.81898680216224
  N   -1.80661236648830     -0.24495452561732     -0.20425600532497
  H   -1.65940920548277     -1.19093990171181     -0.53485739490297
  H   -2.60434504598077     -0.21741469227238      0.41756838609854
  C   -0.75064886937286      1.59049041605823      0.90796769289125
  N   -0.88383095048081      2.69830049034055      1.27222452461204
