14
Coordinates from ORCA-job run
  C   0.53022052648138     -0.52079310577988     -0.48169907332474
  C   -0.85521513072302     -0.00451645170299     -0.03160040715229
  Cl  0.39578794621098     -2.22867630459312     -0.97706129628259
  H   -1.51642375546587     -0.02999110573740     -0.90371922885986
  N   1.43710933683353     -0.42115313010151      0.63078464453174
  H   1.59298987197011      0.56364561634484      0.82257852418115
  H   2.32494931498998     -0.85388287867805      0.40306979971943
  C   0.93667555565666      0.25506270276879     -1.66897107417127
  N   1.27953576426177      0.89986219803029     -2.58994939095249
  N   -0.68364578419631      1.36559545969735      0.43434718978317
  H   -0.70618717659797      1.41372340973590      1.44435238348878
  H   -1.40284429202550      1.97195817277400      0.06618263321567
  C   -1.41839874732918     -0.88789719169190      0.99844916742182
  N   -1.91455343006654     -1.52193739106632      1.85323612840147
