13

C	-0.506569	0.029017	-1.432622
C	0.0	0.0	0.0
Br	-2.351941	0.648698	-1.547746
H	1.092315	0.0	0.0
H	0.08992	0.691502	-2.058292
H	-0.299492	0.952952	0.456059
N	-0.390339	-1.342986	-2.050474
O	-1.362546	-2.083962	-2.093899
O	0.744094	-1.610592	-2.431853
N	-0.483088	-1.176681	0.702459
H	0.242416	-1.50009	1.326505
H	-1.319627	-0.983864	1.234872
Cl	3.43567	0.0	0.0
