13

C	-0.479736	-0.009575	-1.428823
C	0.0	0.0	0.0
Br	-0.145645	1.661277	-2.348805
H	1.09342	0.0	0.0
H	-0.02588	-0.808399	-2.009085
H	-0.363654	0.897516	0.506451
N	-1.964861	-0.256462	-1.487976
O	-2.375566	-0.978844	-2.392115
O	-2.66498	0.284992	-0.636927
N	-0.468104	-1.251914	0.600447
H	-1.228399	-1.077965	1.242564
H	0.298609	-1.67365	1.107123
Cl	3.444357	0.0	0.0
