13

C	-0.41937	0.011925	-1.463028
C	0.0	0.0	0.0
Br	-0.028156	1.691883	-2.337284
H	1.093013	0.0	0.0
H	0.058652	-0.776058	-2.040778
H	-0.37319	0.901759	0.487575
N	-1.897712	-0.235817	-1.587731
O	-2.248017	-1.172	-2.306153
O	-2.652433	0.472968	-0.929101
N	-0.459884	-1.176723	0.71746
H	0.042127	-2.00078	0.414406
H	-1.457138	-1.324997	0.62801
Cl	3.459481	0.0	0.0
