13

C	-0.474003	0.012639	-1.430843
C	0.0	0.0	0.0
Br	-0.15871	1.706777	-2.314023
H	1.092455	0.0	0.0
H	-0.005006	-0.766775	-2.024978
H	-0.366365	0.887962	0.521233
N	-1.954282	-0.253942	-1.503791
O	-2.349533	-0.963322	-2.42478
O	-2.666891	0.25993	-0.645843
N	-0.463277	-1.264295	0.577313
H	0.300183	-1.683872	1.090575
H	-1.236999	-1.10725	1.208005
Cl	3.442448	0.0	0.0
