13

C	-0.393333	0.002883	-1.472308
C	0.0	0.0	0.0
Br	-2.332748	0.052608	-1.743479
H	1.095277	0.0	0.0
H	0.010209	0.870221	-1.989671
H	-0.323574	0.970873	0.390283
N	0.1197	-1.184437	-2.23439
O	-0.146934	-2.302549	-1.801717
O	0.774073	-0.942053	-3.245334
N	-0.496483	-1.061056	0.847529
H	0.015468	-1.909465	0.646589
H	-1.475992	-1.239072	0.660115
Cl	3.418031	0.0	0.0
