13

C	-0.410931	0.045703	-1.468245
C	0.0	0.0	0.0
Br	-2.343242	0.239705	-1.70203
H	1.095269	0.0	0.0
H	0.050535	0.885262	-1.98223
H	-0.31982	0.9588	0.422693
N	0.017286	-1.174848	-2.227851
O	-0.487197	-2.251057	-1.918929
O	0.869893	-1.001175	-3.096152
N	-0.500767	-1.089501	0.80749
H	-1.466225	-1.293759	0.582757
H	0.045084	-1.920538	0.62416
Cl	3.409601	0.0	0.0
