16

C	-0.355242	0.037943	-1.492924
C	0.0	0.0	0.0
F	-0.252933	-1.295656	-1.999151
H	1.103028	0.0	0.0
C	-1.769052	0.405845	-1.72472
N	-2.895545	0.679107	-1.907987
N	0.513112	0.918321	-2.154857
H	1.474072	0.766383	-1.853603
H	0.42559	0.847467	-3.15926
N	-0.599698	-1.177792	0.6231
H	-0.140889	-1.290885	1.522147
H	-0.351068	-1.991031	0.071087
N	-0.45529	1.22034	0.627107
H	0.246547	1.557646	1.271072
H	-1.318225	1.031146	1.122105
Br	3.579283	0.0	0.0
