16

C	-0.569949	-0.00868	-1.4159
C	0.0	0.0	0.0
F	-0.004259	1.08431	-2.110665
H	1.097843	0.0	0.0
C	-0.197722	-1.217462	-2.173237
N	0.068007	-2.135845	-2.853305
N	-1.984388	0.097916	-1.358176
H	-2.376878	0.213724	-2.283739
H	-2.19926	0.891754	-0.763822
N	-0.454959	-1.184271	0.67527
H	-1.421599	-1.086553	0.963031
H	0.141722	-1.388053	1.466317
N	-0.497788	1.255271	0.61849
H	0.05097	2.011258	0.21585
H	-0.221977	1.210837	1.59437
Br	3.588711	0.0	0.0
