16

C	-0.351374	-0.130645	-1.479624
C	0.0	0.0	0.0
F	-1.698896	-0.481973	-1.640424
H	1.102996	0.0	0.0
C	-0.219686	1.169084	-2.184329
N	-0.097679	2.135413	-2.841402
N	0.44394	-1.176629	-2.046796
H	0.437778	-1.131034	-3.057377
H	1.40462	-1.081017	-1.718088
N	-0.507744	-1.186164	0.703524
H	0.210342	-1.465933	1.363252
H	-0.597973	-1.948497	0.040259
N	-0.511231	1.234103	0.554682
H	-1.3548	1.009738	1.068459
H	0.170648	1.613948	1.197704
Br	3.52774	0.0	0.0
