16

C	-0.467029	-0.097999	-1.447242
C	0.0	0.0	0.0
F	-1.870994	-0.236693	-1.401036
H	1.09433	0.0	0.0
C	-0.202166	1.143944	-2.201388
N	-0.006053	2.096449	-2.857331
N	0.064747	-1.220132	-2.15709
H	0.11171	-1.971397	-1.471921
H	1.02112	-1.002672	-2.422211
N	-0.379404	-1.261801	0.640507
H	-1.331508	-1.216977	0.982786
H	0.247695	-1.433473	1.416138
N	-0.466702	1.239022	0.589814
H	0.116094	1.477481	1.381359
H	-1.429612	1.156443	0.892131
Br	3.521587	0.0	0.0
