16

C	-0.489631	-0.072626	-1.442341
C	0.0	0.0	0.0
F	-1.915199	-0.061041	-1.353677
H	1.094324	0.0	0.0
C	-0.142837	1.138193	-2.208551
N	0.158411	2.065022	-2.861081
N	-0.071166	-1.239793	-2.119723
H	0.606408	-1.052128	-2.844059
H	0.288759	-1.898928	-1.439693
N	-0.380699	-1.266344	0.628336
H	0.183909	-1.40262	1.457694
H	-1.361392	-1.2559	0.883692
N	-0.467314	1.235281	0.596361
H	-1.451902	1.169499	0.824871
H	0.063756	1.429026	1.435415
Br	3.597405	0.0	0.0
