16

C	-0.524642	-0.026867	-1.441846
C	0.0	0.0	0.0
F	0.041542	1.060719	-2.132058
H	1.098495	0.0	0.0
C	-0.109297	-1.245871	-2.16508
N	0.199318	-2.2021	-2.771681
N	-1.94302	0.048965	-1.422225
H	-2.174849	0.834554	-0.819451
H	-2.313935	0.178017	-2.354894
N	-0.458242	-1.139213	0.766016
H	0.228107	-1.879467	0.704516
H	-1.351263	-1.468953	0.421004
N	-0.542678	1.231591	0.596245
H	0.102112	1.985057	0.379592
H	-0.501251	1.078172	1.596892
Br	3.594789	0.0	0.0
