15

C	-0.512807	0.014991	-1.432021
C	0.0	0.0	0.0
F	-0.247095	1.206123	-2.021412
H	1.095642	0.0	0.0
H	-1.586745	-0.180226	-1.50079
N	0.129317	-1.071884	-2.267216
O	0.862256	-0.748945	-3.186198
O	-0.186977	-2.211194	-1.940674
C	-0.5045	-1.167768	0.715345
N	-0.956824	-2.041807	1.356989
C	-0.44268	1.277023	0.726887
H	-0.080948	1.238361	1.754966
H	0.008003	2.141012	0.240815
H	-1.53139	1.385954	0.736923
Br	3.431279	0.0	0.0
