15

C	-0.529549	0.080228	-1.422333
C	0.0	0.0	0.0
F	-0.104032	1.22411	-2.016776
H	1.095618	0.0	0.0
H	-1.620926	0.041215	-1.46916
N	-0.064791	-1.087142	-2.261807
O	0.880317	-0.922528	-3.018285
O	-0.712776	-2.119499	-2.094452
C	-0.502226	-1.19448	0.671479
N	-0.956181	-2.11255	1.247224
C	-0.429872	1.251989	0.776748
H	-0.040158	1.18744	1.793446
H	0.005003	2.132456	0.304262
H	-1.518892	1.354196	0.818065
Br	3.43308	0.0	0.0
