15

C	-0.362877	0.007	-1.471199
C	0.0	0.0	0.0
F	0.004967	-1.146494	-2.075503
H	1.096627	0.0	0.0
H	0.089385	0.857129	-1.982696
N	-1.85657	0.155808	-1.661867
O	-2.2801	1.31131	-1.661005
O	-2.5317	-0.862513	-1.760904
C	-0.502094	-1.2062	0.650234
N	-0.895516	-2.172437	1.189786
C	-0.441317	1.264048	0.741037
H	-1.526192	1.342247	0.832267
H	-0.064844	2.145657	0.218461
H	0.003464	1.25103	1.737009
Br	3.42279	0.0	0.0
