15

C	-0.522403	0.138708	-1.420934
C	0.0	0.0	0.0
F	-0.182393	1.347226	-1.933868
H	1.095685	0.0	0.0
H	-1.607749	0.019446	-1.486421
N	0.038577	-0.931769	-2.332668
O	0.861757	-0.609789	-3.174245
O	-0.429578	-2.051607	-2.142607
C	-0.504033	-1.222237	0.61878
N	-0.957961	-2.154299	1.171411
C	-0.435104	1.214899	0.83058
H	-0.060371	1.097308	1.847911
H	-1.524049	1.320616	0.862518
H	0.00956	2.115186	0.408266
Br	3.43551	0.0	0.0
