15

C	-0.35901	0.046053	-1.471828
C	0.0	0.0	0.0
F	-0.140626	-1.146066	-2.076746
H	1.096648	0.0	0.0
H	0.196919	0.831621	-1.984009
N	-1.820733	0.383719	-1.658089
O	-2.631745	-0.534459	-1.612217
O	-2.082567	1.578679	-1.794364
C	-0.520003	-1.206115	0.63314
N	-0.954338	-2.145396	1.188488
C	-0.435608	1.258802	0.754349
H	-0.05524	2.144465	0.241964
H	-1.521123	1.338559	0.844021
H	0.004727	1.233459	1.751725
Br	3.41192	0.0	0.0
