15

C	-0.363449	0.006452	-1.470853
C	0.0	0.0	0.0
F	0.002623	-1.148472	-2.073493
H	1.096576	0.0	0.0
H	0.090992	0.85537	-1.983104
N	-1.857353	0.158175	-1.663722
O	-2.278218	1.315255	-1.666057
O	-2.534697	-0.858993	-1.763638
C	-0.505121	-1.20302	0.653467
N	-0.916433	-2.142962	1.225318
C	-0.438998	1.264959	0.741107
H	-0.062473	2.14576	0.217104
H	-1.523576	1.344224	0.834675
H	0.008209	1.251667	1.735947
Br	3.420195	0.0	0.0
