15

C	-0.474747	-0.06381	-1.440936
C	0.0	0.0	0.0
F	-1.82109	-0.276259	-1.520449
H	1.094598	0.0	0.0
H	0.050827	-0.825978	-2.015576
N	-0.192606	1.247122	-2.134169
O	0.920204	1.358276	-2.634513
O	-1.081444	2.093695	-2.121012
C	-0.453708	-1.227561	0.652514
N	-0.8443	-2.195406	1.190898
C	-0.497201	1.234302	0.75563
H	-0.020695	2.128691	0.35258
H	-1.581495	1.342279	0.690497
H	-0.204006	1.14774	1.802583
Br	3.435357	0.0	0.0
