15

C	-0.476737	-0.053459	-1.44034
C	0.0	0.0	0.0
F	-1.826346	-0.249685	-1.518269
H	1.094603	0.0	0.0
H	0.038972	-0.820011	-2.018419
N	-0.179982	1.256209	-2.129005
O	0.919795	1.343305	-2.661888
O	-1.044884	2.12606	-2.081698
C	-0.452832	-1.232722	0.643761
N	-0.84442	-2.203656	1.176069
C	-0.496922	1.227481	0.766697
H	-0.019423	2.125377	0.373251
H	-1.580994	1.337024	0.700887
H	-0.205669	1.129641	1.813177
Br	3.435511	0.0	0.0
