15

C	-0.363788	0.005251	-1.470569
C	0.0	0.0	0.0
F	0.0438	-1.130691	-2.082018
H	1.096591	0.0	0.0
H	0.057791	0.875461	-1.976691
N	-1.86431	0.103954	-1.656738
O	-2.329984	1.243703	-1.618506
O	-2.500448	-0.936417	-1.787363
C	-0.499324	-1.209077	0.647329
N	-0.90476	-2.15633	1.21096
C	-0.447079	1.259013	0.745503
H	-0.074742	2.143338	0.224808
H	-0.00134	1.245069	1.740848
H	-1.531799	1.331673	0.836332
Br	3.416356	0.0	0.0
