15

C	-0.511534	-0.037604	-1.432497
C	0.0	0.0	0.0
F	-0.261386	1.137955	-2.060637
H	1.095691	0.0	0.0
H	-1.583177	-0.249504	-1.495758
N	0.149331	-1.143473	-2.229907
O	0.862447	-0.837286	-3.172054
O	-0.139889	-2.275914	-1.855419
C	-0.506869	-1.141806	0.755475
N	-0.972474	-1.997134	1.412599
C	-0.443209	1.301637	0.680657
H	-0.083862	1.298684	1.71028
H	-1.532096	1.41198	0.684735
H	0.009218	2.148094	0.165902
Br	3.432666	0.0	0.0
