15

C	-0.364791	0.007438	-1.471197
C	0.0	0.0	0.0
F	0.010473	-1.14392	-2.075148
H	1.096592	0.0	0.0
H	0.083295	0.860225	-1.982719
N	-1.859056	0.147423	-1.664548
O	-2.291493	1.300591	-1.658441
O	-2.525383	-0.875323	-1.77442
C	-0.503267	-1.203434	0.652963
N	-0.91481	-2.143622	1.223982
C	-0.441942	1.263591	0.741393
H	-0.065555	2.145372	0.219424
H	-1.526658	1.341483	0.832365
H	0.0027	1.249631	1.737408
Br	3.43542	0.0	0.0
