15

C	-0.528732	0.207905	-1.409295
C	0.0	0.0	0.0
F	-0.130035	1.412733	-1.888455
H	1.095717	0.0	0.0
H	-1.619301	0.147461	-1.464169
N	-0.037016	-0.861671	-2.360654
O	0.855749	-0.58002	-3.143522
O	-0.621973	-1.93788	-2.257716
C	-0.503631	-1.249403	0.561613
N	-0.962852	-2.209138	1.059963
C	-0.431015	1.176798	0.885932
H	0.005577	2.095968	0.496412
H	-0.044153	1.019466	1.893271
H	-1.520068	1.275826	0.933561
Br	3.438068	0.0	0.0
