12
Coordinates from ORCA-job run
  C   -0.56104020122584     -0.07481361320843      0.02490241630842
  C   0.91944290563348     -0.36154853797937      0.28880660538413
  F   -1.22929307786147     -0.19607689333124      1.23250734203154
  H   0.99365137491068     -1.41142959787397      0.58763674818692
  H   1.49886626833133     -0.21207580153214     -0.62663538853969
  C   -0.75383611627152      1.32909552988294     -0.41235118589661
  N   -0.90211953166113      2.42040660889826     -0.82034881060279
  N   -1.07626265251807     -1.02645043914028     -0.89325658912278
  H   -0.38055188265519     -1.41857329766520     -1.50918275357729
  H   -1.87619502205056     -0.69650003501139     -1.41293379433316
  C   1.45963379378896      0.48399439810726      1.34780663091501
  N   1.90870414157933      1.16297167885357      2.19204877924630
