12
Coordinates from ORCA-job run
  C   -0.61852320052970      0.02694532124902      0.12227627871142
  C   0.83045793750268      0.45846426394388      0.43859766722459
  F   -1.11146553388132     -0.50781945905857      1.30006492133234
  H   0.83172132804007      1.10322718793053      1.32100006368565
  H   1.23544074079258      1.02383885099035     -0.40496388356590
  C   -1.40236394585688      1.23632463804716     -0.20548396586461
  N   -1.98117088526202      2.22157796360533     -0.47244556239721
  N   -0.79081626144619     -0.93263628502880     -0.91059118777910
  H   -0.10866327531305     -1.67874541166153     -0.85834066542066
  H   -0.82535110425408     -0.52880449927466     -1.83480697943668
  C   1.65539401783283     -0.72149922222333      0.67800346890681
  N   2.28534018237508     -1.69987334851940      0.82868984460337
