12
Coordinates from ORCA-job run
  C   -0.55580429804346     -0.08566043736453      0.10620363659841
  C   0.81542784092195      0.46880642345642      0.49829871636064
  F   -1.04531379531068     -0.82794860646674      1.16003594293494
  H   1.17856427494101      1.14955896006558     -0.27761573061960
  H   0.69996639295739      1.04724858052292      1.41827947774469
  C   -1.49493925574374      1.05470520306625     -0.07749467741292
  N   -2.20935771751977      1.96295015742856     -0.28911450978555
  N   -0.45278298175852     -0.94998009847588     -1.02046151723393
  H   -1.36434737720891     -1.25155732102558     -1.34093095708265
  H   0.05663568763788     -0.52650856075271     -1.78450042210746
  C   1.78355030680227     -0.60356475025575      0.71373071594946
  N   2.58740092232458     -1.43804955019854      0.89456932465396
