12
Coordinates from ORCA-job run
  C   -0.62327194044088     -0.02252497220661      0.09714702311822
  C   0.78464852930157      0.44187632773400      0.53001054405088
  F   -1.12758700579598     -0.73050844983719      1.17436500719422
  H   0.71477325786525      0.96590257404611      1.48650655176584
  H   1.18695820688381      1.13266958551832     -0.21576596121204
  C   -1.46509140414529      1.17455861469986     -0.10990288279636
  N   -2.09347772004866      2.15128367621399     -0.27737180646299
  N   -0.69917206259067     -0.84849431958826     -1.05589404833000
  H   -0.72479726832389     -0.33107663884204     -1.92180570404483
  H   0.02470201565381     -1.55601082479860     -1.06934218772057
  C   1.66913462939306     -0.71246272123769      0.65450252242340
  N   2.35318076224787     -1.66421285170189      0.70955094201422
