12
Coordinates from ORCA-job run
  C   -0.67879760635823     -0.09332478020390      0.10149061772851
  C   0.57256060247155     -0.32771445706444      0.95143272709321
  F   -1.75425574508141     -0.53681180430766      0.84673830496513
  H   0.61330505458707     -1.39941180184857      1.16210506108406
  H   0.46784083254886      0.21325922475046      1.89452980867672
  C   -0.89455910211690      1.36075815724936     -0.11925399422350
  N   -1.04435730076935      2.50448329958579     -0.34191133829126
  N   -0.62328895357502     -0.86951893740199     -1.09243206989919
  H   0.24037264082737     -0.71611598216812     -1.59861950288742
  H   -1.40632236420167     -0.65898973237137     -1.69934858153437
  C   1.77939292004055      0.09592489481015      0.25062783667954
  N   2.72810902162720      0.42746191897029     -0.35535886939142
