12
Coordinates from ORCA-job run
  C   -0.60677327664153      0.17262653384383      0.03232987451336
  C   0.85862636646225      0.33371205649974      0.49316501205725
  F   -1.33319070702279     -0.07262705666854      1.18455093823956
  H   1.46957116181083      0.67650832361684     -0.34619359915244
  H   0.90826330326549      1.08301390852018      1.28715274153780
  C   -1.05752187272304      1.45860660386973     -0.54034815870723
  N   -1.36659106627355      2.49226865038452     -1.00184257387326
  N   -0.87647403513204     -0.86843471743485     -0.89571184946999
  H   -0.71450806219718     -0.60397976951111     -1.85603042947762
  H   -0.39093570506498     -1.72536827064423     -0.66174850197206
  C   1.36723402546451     -0.94543714064799      0.97814733794308
  N   1.74329986805203     -2.00088912182813      1.32652920836155
