12
Coordinates from ORCA-job run
  C   -0.56107595867185     -0.10068378516004      0.03069391194601
  C   0.77390599684974      0.27201300611458      0.67883454843050
  F   -1.13131216476964     -1.12237853218269      0.76014438110367
  H   1.19768823822092      1.15049875431653      0.18303506080354
  H   0.58481298172293      0.53982805848475      1.72132376868185
  C   -1.48522664608621      1.06124743980357      0.14133177597823
  N   -2.18604020934890      2.00361796818271      0.17102537280122
  N   -0.36776262112799     -0.57423530821760     -1.29828318945831
  H   -1.25119824148490     -0.74097921245572     -1.76363468081210
  H   0.19675230760275      0.05644264522849     -1.85169626974320
  C   1.72183499149518     -0.83804616638354      0.62494572529869
  N   2.50862132559796     -1.70732486773106      0.60227959496991
