12
Coordinates from ORCA-job run
  C   -0.51598623955740     -0.13714234216938      0.05541248890376
  C   0.99147719730355     -0.32499377774561      0.22756165401701
  F   -1.12391373442229     -0.37293089655185      1.26801416597916
  H   1.49999797999876     -0.16982625098785     -0.72856096317844
  H   1.14272411643395     -1.36221119820248      0.53679505067258
  C   -0.83360831420347      1.26613773263785     -0.31751862977166
  N   -1.08628923018334      2.35125266605203     -0.69023508319036
  N   -1.01251092670109     -1.11577122020578     -0.86464520751593
  H   -2.01514013034022     -1.01269904203892     -0.97402057875161
  H   -0.57609335528642     -1.01816582193321     -1.77326934441938
  C   1.54194777346198      0.58385908043312      1.22820554222975
  N   1.98739486349600      1.31349107071208      2.03126090502514
