12
Coordinates from ORCA-job run
  C   -0.49645366654371     -0.06933389847185     -0.07810267459816
  C   0.99837912048416     -0.25980295734848      0.18962133198601
  F   -1.16907058923548     -0.43015916440725      1.09758330691107
  H   1.55905333936558      0.05053506656872     -0.69460600300751
  H   1.17847779363050     -1.32698439994339      0.35365262184576
  C   -0.81494419263164      1.34975442190614     -0.32960491425882
  N   -1.06330485844759      2.47730647660395     -0.53996541435169
  N   -0.88570601930112     -0.84271355099320     -1.19520984498128
  H   -0.71915602369073     -1.82774709256227     -1.02924085544435
  H   -1.85966932696858     -0.69668123947229     -1.42870512101560
  C   1.44893538653697      0.48660391801820      1.36035522739085
  N   1.82345903680165      1.08922242010172      2.29422233952372
