12
Coordinates from ORCA-job run
  C   -0.61452725110259     -0.11263560860389      0.05285032538543
  C   0.69187807647843     -0.23153658887089      0.84228257882915
  F   -1.57913318177555     -0.75198035115583      0.85587491242063
  H   0.53704218949116      0.18508279231843      1.83997216766211
  H   0.91313883186685     -1.29701332113765      0.96171473695653
  C   -1.04230479222182      1.29456153054205     -0.06730881280217
  N   -1.38831670235598      2.41327005895902     -0.14527102472287
  N   -0.49234306028949     -0.68115831231773     -1.22759794285527
  H   -1.33831508164727     -0.58909758388353     -1.77441120088100
  H   -0.20137586871859     -1.64936720859818     -1.18433065470317
  C   1.80405532796386      0.44064937204762      0.17985472160263
  N   2.71020151231098      0.97922522070057     -0.33462980689201
