12
Coordinates from ORCA-job run
  C   -0.55816324795859     -0.05220537333034      0.10853429920295
  C   0.86230092002335      0.33211643591276      0.52771708510192
  F   -1.08858256415503     -0.88349550226229      1.07247704020703
  H   1.26996908036145      1.07093323461313     -0.16902661904693
  H   0.81372046445367      0.79924311317118      1.51453536536180
  C   -1.40176300662288      1.17425090511557      0.10191559884049
  N   -2.04395112109342      2.15564805187892      0.03471365270515
  N   -0.54987846465878     -0.76726943059272     -1.12243592890661
  H   -0.01806557899285     -0.29272936849083     -1.83971391883925
  H   -1.48932250553741     -0.94730458819096     -1.45348011362332
  C   1.73627699769154     -0.83722632790360      0.58375064037722
  N   2.46645902648893     -1.75296114992082      0.64201289861953
