12
Coordinates from ORCA-job run
  C   -0.57579247906773     -0.02659770616267     -0.01285842242981
  C   0.87193180430633     -0.36346052208258      0.36852668916416
  F   -1.28997693144959      0.00261546661750      1.18723315745114
  H   1.49640284944576     -0.34624857722663     -0.52793432116805
  H   0.87048959352516     -1.38077408292167      0.77387642074359
  C   -0.66591364332231      1.33027832763914     -0.58861896237741
  N   -0.72262143577834      2.39575946488287     -1.07782721738443
  N   -1.11198928504739     -0.97174724314970     -0.90229478646269
  H   -0.62301352215612     -1.84482151327108     -0.99528265594735
  H   -1.54283691476958     -0.63609840342372     -1.74483711775016
  C   1.41756427582542      0.54819432647596      1.36887939181084
  N   1.87675568848839      1.29290046262257      2.15013782435017
