12
Coordinates from ORCA-job run
  C   -0.54814180989197      0.07126348712556      0.02406872060512
  C   0.86183956816055      0.45649903033803      0.48625059228807
  F   -1.14345883901476     -0.61979245450112      1.09195203348617
  H   1.31964014951683      1.10988691943627     -0.25939613901569
  H   0.78809857412017      0.99476270845992      1.43343674849295
  C   -1.35241175771775      1.29341908039528     -0.17849731506720
  N   -1.98525734774477      2.27158276798628     -0.31757791880246
  N   -0.51163940814914     -0.67622407765840     -1.17000276443151
  H   -1.44147735955482     -0.90477483646897     -1.49741124075714
  H   0.03251881435419     -1.52358753778122     -1.05615449823693
  C   1.67576903294799     -0.74326208549340      0.66355553649629
  N   2.30352038297350     -1.72777300183823      0.77877624494232
