12
Coordinates from ORCA-job run
  C   -0.60981002593277     -0.12071664959983      0.08670982180464
  C   0.74867067812799     -0.28720514207441      0.77292742647821
  F   -1.51418766347742     -0.82675777897022      0.90432460550827
  H   0.66373568150911      0.05571305949967      1.80636922772808
  H   0.97877520124561     -1.35713772077149      0.79946057841540
  C   -1.05006241556469      1.28787968387657      0.10413892589546
  N   -1.40446050848652      2.40616459434524      0.14160301210178
  N   -0.57491680169913     -0.58987987945616     -1.23808029790695
  H   -0.27368669452340     -1.55387891596575     -1.29146600223731
  H   -1.45605667763023     -0.46461597800769     -1.71818113750884
  C   1.81152822845178      0.43694521636491      0.08460658227495
  N   2.68047099797968      1.01348951075916     -0.45241274255371
