12
Coordinates from ORCA-job run
  C   -0.52600651796851     -0.10585350097899      0.01973131648538
  C   0.94652316301375     -0.34099499045832      0.35652494718821
  F   -1.25467663001409     -0.17618973868508      1.18585895141713
  H   1.54861759242498     -0.31322189039383     -0.55647344694107
  H   1.01145613430003     -1.34430652350816      0.78470693799282
  C   -0.73028656073788      1.25918922278710     -0.53176944231108
  N   -0.88692915065650      2.30460102654994     -1.04421983912554
  N   -0.98948289204229     -1.15843625657517     -0.83366202292296
  H   -1.97019951609557     -1.02244852538239     -1.05199550993503
  H   -0.46570425935631     -1.18394152596958     -1.70008066491558
  C   1.45246506413522      0.64555325831391      1.30549461685956
  N   1.86422357299716      1.43704944430058      2.06688415620816
