12
Coordinates from ORCA-job run
  C   -0.49919836907965     -0.00840475529599     -0.08382871551685
  C   0.93548050563626     -0.32840609040412      0.34229255389567
  F   -1.22914768194994      0.22743798947113      1.08907059070710
  H   1.54711943750132     -0.47143389016303     -0.55096102859432
  H   0.91912161433222     -1.26931926069623      0.90135666310501
  C   -0.55470605986227      1.23633383370889     -0.87510527671981
  N   -0.59538652062802      2.21992815042734     -1.51386020694881
  N   -1.02001267867621     -1.07503328134097     -0.85158597454742
  H   -1.95010356776592     -0.86815645651184     -1.19321254364442
  H   -1.03850253986293     -1.93236262841826     -0.31284620642223
  C   1.50706183005108      0.71716163871182      1.18545381835818
  N   1.97627403030405      1.55225475051126      1.86222632632791
