12
Coordinates from ORCA-job run
  C   -0.52508907357489     -0.11107605732503      0.01801199090183
  C   0.95421353671653     -0.36289360510804      0.31120345396837
  F   -1.23530971376842     -0.28712165111879      1.18422601672207
  H   1.03278492857341     -1.39924004690436      0.64881631710356
  H   1.54176237970542     -0.25000800277452     -0.60470379839330
  C   -0.74550596940171      1.29512824267445     -0.41039081973917
  N   -0.91621983114505      2.37962268071434     -0.82855633554756
  N   -0.99475237342664     -1.08947324816603     -0.91617759988275
  H   -0.48391514451648     -1.03619577143675     -1.78901568162801
  H   -1.97949452682434     -0.94285916406344     -1.10761172934369
  C   1.46762514194489      0.54083067473188      1.33578096327729
  N   1.88490064571726      1.26528594877630      2.15841722256136
