12
Coordinates from ORCA-job run
  C   -0.71114074364629     -0.11176281873794      0.09195884824504
  C   0.57821962328055     -0.33701964265416      0.89478326905972
  F   -1.71960828039744     -0.62729418553748      0.91183839043243
  H   0.70423973211102     -1.41889004112320      1.00755247328617
  H   0.46423659648177      0.08827920159640      1.89401366818578
  C   -0.98770580434451      1.32952502546346     -0.06561052436540
  N   -1.18788586742384      2.47838401712977     -0.19981623484512
  N   -0.70708449830733     -0.74897922131824     -1.16313593829503
  H   -0.84017307061370     -0.16082971998044     -1.96794075001430
  H   0.01005043164561     -1.44263272513284     -1.29819080407938
  C   1.73728647509515      0.23703011758565      0.22116935211079
  N   2.65856540611901      0.71418999270901     -0.32662174972070
