12
Coordinates from ORCA-job run
  C   -0.64738447778323     -0.21159728696667      0.12691136161973
  C   0.67160538494734     -0.28024240300345      0.90069274948838
  F   -1.59061302603693     -0.87186554887074      0.88987660851592
  H   0.53291545592824      0.18300126892225      1.88015001773854
  H   0.89956309827597     -1.33987741327028      1.04106620544963
  C   -1.11203171118312      1.19576337081359      0.01254768723783
  N   -1.45969215374915      2.30912269128499     -0.12794428150991
  N   -0.53233830831780     -0.89763155192140     -1.11709785000424
  H   0.26347268979970     -0.57113879127312     -1.65170465958668
  H   -1.37256828217153     -0.78702862021240     -1.67180419673933
  C   1.75107285017747      0.37703622533105      0.17293713013467
  N   2.59699848011303      0.89445805916619     -0.45463077234453
