12
Coordinates from ORCA-job run
  C   -0.62764837794665     -0.01841648489854      0.07684030581940
  C   0.78301966454108      0.25379566893913      0.64403114995657
  F   -1.19494783217131     -0.95354171969547      0.92472208479627
  H   1.23318713848263      1.09662647116577      0.11263342082968
  H   0.70396130957220      0.51355925493515      1.70262462309539
  C   -1.41254152371720      1.23083253851312      0.16506748263843
  N   -1.99205647299984      2.24870098637608      0.23739283579144
  N   -0.69918670782510     -0.51795816792039     -1.25106143667455
  H   -0.00713934053176     -1.23524495467735     -1.42819974679369
  H   -0.67026431632277      0.20387012434808     -1.95569829953489
  C   1.61986260752046     -0.93028417684296      0.47835121069852
  N   2.26475385139825     -1.89293954024261      0.29329636937742
