12
Coordinates from ORCA-job run
  C   -0.64865461627437     -0.17559655317823      0.16908031782477
  C   0.70766963993829     -0.28673732750128      0.86988887956172
  F   -1.57764340117359     -0.76296120786064      1.00611873386212
  H   0.64579179948443      0.20715801585450      1.84211377297850
  H   0.89443602931542     -1.35215664872087      1.02648691284575
  C   -1.05033521982922      1.24907712688783      0.03322565696018
  N   -1.35162098385311      2.37359843423306     -0.12456033124027
  N   -0.63870486023970     -0.90513420231886     -1.05512562487329
  H   0.14172149417850     -0.63891338305408     -1.64303189974780
  H   -1.50187667386367     -0.76822414809034     -1.56688429986236
  C   1.77324352570734      0.29952253036754      0.06488189388505
  N   2.60497326660970      0.76136736338138     -0.62219401219437
