12
Coordinates from ORCA-job run
  C   -0.67932341615555     -0.09384068088998      0.09703592093509
  C   0.56488339045937     -0.30539719434530      0.96331292741357
  F   -1.75998909298138     -0.52655038996260      0.84106928119062
  H   0.60757821961370     -1.37214720917315      1.19716900222333
  H   0.44935262799302      0.25525857322568      1.89356798986599
  C   -0.89891445806093      1.35438413478585     -0.15553251119965
  N   -1.05112262691720      2.49274448185979     -0.40276492399673
  N   -0.60945134973243     -0.89438388193271     -1.08004143586641
  H   -1.38755297846549     -0.69979592002467     -1.69856678828518
  H   0.25843893915884     -0.74757428945340     -1.58106579273793
  C   1.77660246076441      0.10825809093565      0.26497100940310
  N   2.72949828432364      0.43104428497483     -0.33915467894577
