12
Coordinates from ORCA-job run
  C   -0.61315864468955     -0.11529491582682      0.06585357566771
  C   0.71447932935916     -0.26318425075481      0.81403012840651
  F   -1.55397701636853     -0.79160144034849      0.86756622584623
  H   0.58891884686852      0.11647300373953      1.83033775357497
  H   0.93678463820851     -1.33249779332673      0.88790483600928
  C   -1.04793762669236      1.29416200401563      0.01794148593971
  N   -1.39981773960823      2.41353611386533     -0.00283613265034
  N   -0.52464751169784     -0.62824954188213     -1.24000158462938
  H   -1.38281158147343     -0.51368628672352     -1.76197757533371
  H   -0.22900972332068     -1.59582980943145     -1.24778643102345
  C   1.80902878187592      0.43131942120401      0.14509169979598
  N   2.70214824753852      0.98485349546945     -0.37612398160350
