13

C	-0.538751	0.029381	-1.42738
C	0.0	0.0	0.0
F	0.013558	-1.049404	-2.123753
H	1.092004	0.0	0.0
H	-0.337161	0.900675	0.51986
N	-1.963416	-0.010218	-1.451596
H	-2.285156	-0.838009	-0.961965
H	-2.293671	-0.042095	-2.408809
C	-0.10641	1.258322	-2.127847
N	0.157773	2.244633	-2.705202
C	-0.520276	-1.175949	0.687351
N	-0.982026	-2.127841	1.196511
Br	3.47182	0.0	0.0
