13

C	-0.336672	-0.002122	-1.500657
C	0.0	0.0	0.0
F	-0.092679	1.29	-1.938233
H	1.095484	0.0	0.0
H	-0.390328	0.892712	0.492192
N	0.47188	-0.88913	-2.278443
H	1.438577	-0.801762	-1.958963
H	0.172867	-1.848052	-2.151772
C	-1.770825	-0.281595	-1.756287
N	-2.910233	-0.492352	-1.942357
C	-0.486987	-1.212313	0.640971
N	-0.895121	-2.199897	1.127978
Br	3.455797	0.0	0.0
