13

C	-0.537436	-0.033401	-1.425716
C	0.0	0.0	0.0
F	-0.081318	-1.187762	-2.027448
H	1.090708	0.0	0.0
H	-0.343156	-0.920269	0.481255
N	-1.975768	-0.096491	-1.431487
H	-2.359594	0.642352	-0.853424
H	-2.32195	0.021436	-2.376415
C	-0.026559	1.101815	-2.239558
N	0.245026	2.01839	-2.922066
C	-0.531237	1.152698	0.714482
N	-1.023035	2.074718	1.24948
Br	3.464181	0.0	0.0
