13

C	-0.560279	-0.01534	-1.428417
C	0.0	0.0	0.0
F	-0.044996	-1.12159	-2.065325
H	1.093777	0.0	0.0
H	-0.324011	0.921065	0.496211
N	-1.995751	-0.098387	-1.55567
H	-2.334129	-0.845486	-0.957649
H	-2.423855	0.772387	-1.267173
C	-0.125469	1.205096	-2.145741
N	0.137038	2.204636	-2.701465
C	-0.533677	-1.141818	0.731994
N	-1.035002	-2.048183	1.285362
Br	3.461219	0.0	0.0
