14

C	-0.516734	-0.074366	-1.428014
C	0.0	0.0	0.0
F	-1.948051	0.045078	-1.353322
H	1.096941	0.0	0.0
H	-0.197739	0.788197	-2.015353
N	-0.122296	-1.278245	-2.028077
H	-0.586244	-1.427093	-2.911982
H	-0.280699	-2.041658	-1.383526
N	-0.438871	-1.19301	0.728171
H	0.198896	-1.35442	1.498294
H	-1.374318	-1.059649	1.093236
C	-0.462329	1.248883	0.627515
N	-0.836743	2.22163	1.169261
Cl	3.3574	0.0	0.0
