14

C	-0.494053	-0.011969	-1.443401
C	0.0	0.0	0.0
F	-0.118318	1.176551	-2.052389
H	1.09888	0.0	0.0
H	0.046006	-0.798117	-1.98983
N	-1.920122	-0.130076	-1.479366
H	-2.230366	-0.537981	-2.350092
H	-2.196537	-0.730242	-0.709762
N	-0.500453	-1.219778	0.682059
H	-0.378321	-1.089063	1.680834
H	0.146713	-1.961384	0.433307
C	-0.510497	1.179313	0.695663
N	-0.893046	2.117264	1.287823
Cl	3.387029	0.0	0.0
