14

C	-0.523369	0.116523	-1.423861
C	0.0	0.0	0.0
F	-1.935771	0.355485	-1.336833
H	1.10113	0.0	0.0
H	-0.118308	0.999941	-1.922003
N	-0.236585	-1.05466	-2.142659
H	-0.496368	-1.856207	-1.58061
H	-0.697774	-1.060167	-3.04136
N	-0.440157	-1.269996	0.587786
H	0.282596	-1.591576	1.219567
H	-1.301272	-1.15008	1.104796
C	-0.444333	1.159516	0.788798
N	-0.828207	2.045894	1.457155
Cl	3.348376	0.0	0.0
