14

C	-0.318355	-0.03355	-1.496398
C	0.0	0.0	0.0
F	-1.676654	-0.339138	-1.686345
H	1.097832	0.0	0.0
H	-0.195206	0.962461	-1.940932
N	0.467092	-1.066194	-2.100606
H	1.41522	-1.017415	-1.732345
H	0.511283	-0.93447	-3.102275
N	-0.460461	-1.17838	0.72558
H	0.233618	-1.90416	0.599601
H	-1.324949	-1.499548	0.303564
C	-0.538169	1.219703	0.60601
N	-0.993886	2.200512	1.06323
Cl	3.327975	0.0	0.0
