15
Coordinates from ORCA-job run
  C   1.06760144540908      0.11184903619437     -0.01021783524283
  C   -0.40217139922721     -0.02317682616783     -0.38784113496626
  Cl  2.02802756352013     -0.45031833207153     -1.40797415427146
  H   -0.58348283006573      0.55866841589684     -1.29210714955725
  H   1.30737026043194     -0.57191209040196      0.81015737321127
  N   1.38612869460866      1.50247281451096      0.23887282943674
  H   2.38543275362131      1.64489187938059      0.16261253261988
  H   1.11046174739066      1.72993337042748      1.18769618558798
  N   -1.22565976039007      0.64035348858242      0.67706228638232
  O   -2.25730564506837      1.19831255580593      0.32140369051884
  O   -0.83688256321353      0.52563467087460      1.84116292823732
  C   -0.90076786768629     -1.45258228860376     -0.51098805670456
  H   -0.36836687424869     -1.96832998344026     -1.30950841919937
  H   -1.96643988509995     -1.45602395399452     -0.74582120376565
  H   -0.74294563998193     -1.99077275699334      0.42649012771301
