15
Coordinates from ORCA-job run
  C   0.99969364218184      0.43262521682010     -0.46091150646510
  C   -0.44818434293985     -0.05448856891780     -0.53413286367400
  Cl  1.20141979190036      1.86595761085083     -1.56734206845881
  H   -0.80328575780818      0.05387967890642     -1.55788685814297
  H   1.60869163724559     -0.33711312929877     -0.94632576837906
  N   1.40527714463044      0.75129639740500      0.85527687532472
  H   2.38848851682009      0.63051696687947      1.03025507196241
  H   0.82056620792651      0.39674551026157      1.59424494512293
  N   -1.33037050982283      0.86182119601038      0.26314489016269
  O   -1.92463330839548      1.74686540492466     -0.34307770488172
  O   -1.39181007832812      0.66055808720893      1.47790616011407
  C   -0.60152019294530     -1.48079617433473     -0.03801047551599
  H   -0.20982098843152     -1.60042266301292      0.97062856015809
  H   -0.06185474588920     -2.15150006424810     -0.71027833763120
  H   -1.65265701614436     -1.77394546945503     -0.03449091969606
