15
Coordinates from ORCA-job run
  C   1.11566090747231      0.13772873616632     -0.07293443746566
  C   -0.38252667597133     -0.03908044055236     -0.35624611395110
  Cl  1.97476978395837     -0.29206962303065     -1.59569642989328
  H   -0.67521837754603      0.61601669567363     -1.17905261035111
  H   1.42683629706372     -0.59316216057565      0.67445255050749
  N   1.51441766553029      1.43615149631207      0.36165600162331
  H   1.37824634094925      1.55438116297492      1.35561592228841
  H   1.05861296458386      2.17899340313284     -0.15152439081059
  N   -1.08574824557555      0.50685793507191      0.84823443361362
  O   -1.78566358598025      1.50638243387786      0.70152197387128
  O   -0.87907146648419     -0.07241745090565      1.91402143200884
  C   -0.83053138101730     -1.46991079514750     -0.58158864571812
  H   -0.38325969639099     -1.85815363579747     -1.49571657938623
  H   -0.52957254608681     -2.09676829081790      0.25895985635117
  H   -1.91695198450533     -1.51594946638237     -0.68170296268802
