15
Coordinates from ORCA-job run
  C   1.04095305231531      0.14977636063816      0.06916839974075
  C   -0.42067930918513     -0.04210730893972     -0.31793020927395
  Cl  2.05041250766578     -0.47771500405559     -1.33485190515480
  H   -0.65391104548362      0.57640269583392     -1.18717631683035
  H   1.29276009657544     -0.50306739434050      0.90427511925020
  N   1.29488205161828      1.49324205217300      0.41518277534848
  H   1.14691412645562      2.12669878285506     -0.36012686074419
  H   2.22365390821581      1.62563808960190      0.79051304410386
  N   -1.22257928300725      0.54148383117430      0.80953365941449
  O   -1.90213635095856      1.53432812208075      0.56827043262019
  O   -1.13328750574799     -0.02812884883896      1.89367254486016
  C   -0.84661791756866     -1.48254725695689     -0.52401334309295
  H   -1.92698601112373     -1.53259337744134     -0.67372875814597
  H   -0.35629198476148     -1.89883103605360     -1.40264442705717
  H   -0.58808633500983     -2.08157970773050      0.34985584496125
