15
Coordinates from ORCA-job run
  C   0.83158487223068      0.68351910849177      0.00346582407444
  C   -0.44826282510715     -0.08792597582034     -0.32270758249167
  Cl  0.85183363370451      1.16168945449055      1.72173861733986
  H   -0.40292312304059     -0.32174280128021     -1.39223956453048
  H   0.81996491430062      1.62419841839733     -0.55459503626631
  N   1.97030523567850     -0.17175868244920     -0.25592745695398
  H   2.06732085432804     -0.29412590726554     -1.25895470522836
  H   2.81466359742867      0.27221956530558      0.08487713994431
  N   -1.59690514515085      0.88147604886985     -0.22390088568597
  O   -2.47267680905894      0.67374511607425      0.60938841155256
  O   -1.55887180742451      1.83472317645531     -1.00053799447791
  C   -0.67951447000413     -1.33252276212060      0.49837282908397
  H   -1.56519151789409     -1.86066123403438      0.14397474892190
  H   0.19320075915920     -1.97755061919812      0.39858924705478
  H   -0.82352816914996     -1.08828290591622      1.54845640766285
