15
Coordinates from ORCA-job run
  C   1.06431742714198      0.13193725190934     -0.03449422999119
  C   -0.40956298046965     -0.03949644699592     -0.37983979965183
  Cl  2.00821262168438     -0.43964173566708     -1.43993428785603
  H   -0.62072441165929      0.52063428272763     -1.29128847400741
  H   1.33388095422379     -0.53059897498151      0.79402716595310
  N   1.36044046551306      1.53294812317549      0.18033283499944
  H   1.09300057606572      1.77606072542566      1.12767728775653
  H   2.35599876759942      1.69144144068963      0.08819241450707
  N   -1.22434779003842      0.63007843827395      0.68802767272093
  O   -2.26916789435825      1.16910528313833      0.34140356893514
  O   -0.81134684290547      0.54531519427714      1.84641024487255
  C   -0.88140587853080     -1.48059935535257     -0.46372264576377
  H   -1.95214649254536     -1.51006464367481     -0.67233912313832
  H   -0.35814754171488     -2.00112571065974     -1.26515637798224
  H   -0.69000098000622     -1.99699387228557      0.47970374864607
