15
Coordinates from ORCA-job run
  C   0.88409970765493      0.74824046597313     -0.04695275448952
  C   -0.43230113903168     -0.00536333368226     -0.30654306942749
  Cl  0.95007306832763      1.22889021478906      1.67510408779767
  H   -0.47035204098950     -0.18396973279186     -1.38632878273401
  H   0.85701221902005      1.67527263901310     -0.62018082470254
  N   2.08097613198171      0.03392697055679     -0.38322617543772
  H   2.15855253274828     -0.09288678709107     -1.38428450230415
  H   2.13692450083980     -0.85933818695610      0.08719524139622
  N   -1.56541983965727      0.95681991442172     -0.06522109316576
  O   -2.37812720719639      0.70283145616097      0.81811269492851
  O   -1.57443408140565      1.95518050342745     -0.78324663251361
  C   -0.62402858015716     -1.29236716023941      0.46099659689029
  H   -1.58551289004882     -1.74074159986339      0.21166758125834
  H   0.15823648716260     -2.00301419806609      0.18664298521764
  H   -0.59569886924851     -1.12148116565205      1.53526464728609
