15
Coordinates from ORCA-job run
  C   0.80932230756962      0.74511174167487     -0.03108102363975
  C   -0.46610411062000     -0.01212591618188     -0.38901363415767
  Cl  0.78777396578145      1.12544934672148      1.76139380068622
  H   -0.48824217220221     -0.05579952389918     -1.48161374455315
  H   0.78284174172051      1.72059194483942     -0.51288709772534
  N   1.95015888240964      0.02141967886395     -0.46068704514903
  H   2.09837755272315     -0.80960424668281      0.09735346708958
  H   2.78259297955285      0.59356325538100     -0.41014258098976
  N   -1.63590411823951      0.86846964709315     -0.03238424318907
  O   -1.65175360876705      1.97314077629855     -0.57052784252214
  O   -2.47886198376552      0.44122652332733      0.74934280137957
  C   -0.59628540283686     -1.39035616913227      0.21527765444522
  H   0.19280902177852     -2.03240867453020     -0.18115004313733
  H   -1.55456144287267     -1.83246687043943     -0.05467911741610
  H   -0.53216361223194     -1.35521151333398      1.30179864887878
