15
Coordinates from ORCA-job run
  C   1.11630047869882      0.10729577896856     -0.10098445708797
  C   -0.39376540521635     -0.02519809239199     -0.34606137598175
  Cl  1.92228967434382     -0.32614969350903     -1.64999361923084
  H   -0.68950104973756      0.64454954012013     -1.15586145631574
  H   1.42571532639572     -0.64077750043174      0.63013150659298
  N   1.56506572982396      1.38880718576010      0.33739552588252
  H   1.12823855881249      2.14869096683537     -0.16762349160353
  H   1.43767487736046      1.50530006873905      1.33299870670384
  N   -1.04922512656684      0.53007798595802      0.88060073993583
  O   -1.71808432802543      1.55417510793584      0.76148139648795
  O   -0.83580763366829     -0.06742030839266      1.93504558774655
  C   -0.88512103505084     -1.44175207797880     -0.57046817522341
  H   -0.57475855979103     -2.08461431468519      0.25439959861232
  H   -1.97490136444533     -1.46011226912733     -0.63745299634217
  H   -0.47612014293358     -1.83187237780030     -1.50160749017653
