16

C	-0.500473	-0.012658	-1.440157
C	0.0	0.0	0.0
F	0.22797	-0.96021	-2.142867
H	1.095919	0.0	0.0
N	-1.871383	-0.245286	-1.590638
H	-2.320801	-0.356874	-0.693897
H	-2.315063	0.424119	-2.200747
N	-0.082509	1.304665	-2.139759
O	1.089262	1.629707	-2.036017
O	-0.939703	1.908037	-2.791495
N	-0.577944	-1.200119	0.65533
H	-0.25756	-1.166499	1.618348
H	-0.066528	-1.978138	0.244906
C	-0.521248	1.196377	0.646716
N	-0.924351	2.157584	1.191235
F	2.552928	0.0	0.0
