16

C	-0.157947	0.108276	-1.528757
C	0.0	0.0	0.0
F	-1.311549	0.734899	-1.917032
H	1.09392	0.0	0.0
N	0.961967	0.725296	-2.152323
H	1.787586	0.500826	-1.561794
H	0.811449	1.727011	-2.124682
N	-0.258868	-1.329328	-2.044205
O	0.788395	-1.95743	-2.057104
O	-1.363369	-1.74799	-2.37221
N	-0.555285	-1.198391	0.59385
H	0.050719	-1.495318	1.346619
H	-1.489056	-1.047758	0.95266
C	-0.450719	1.249796	0.605501
N	-0.834355	2.226931	1.136572
F	2.609259	0.0	0.0
