16

C	-0.164441	0.148619	-1.521423
C	0.0	0.0	0.0
F	-1.338797	0.747061	-1.919843
H	1.093632	0.0	0.0
N	0.947015	0.830114	-2.004989
H	1.065457	0.743754	-3.004114
H	1.793345	0.565979	-1.457716
N	-0.299003	-1.297992	-2.090368
O	-1.418616	-1.747025	-2.30922
O	0.757018	-1.897135	-2.25888
N	-0.504714	-1.246468	0.542002
H	-1.433171	-1.143803	0.930007
H	0.129354	-1.55416	1.266816
C	-0.500998	1.196483	0.66688
N	-0.926327	2.110318	1.272734
F	2.627179	0.0	0.0
