16

C	-0.584889	-0.081123	-1.406846
C	0.0	0.0	0.0
F	0.168291	-0.981324	-2.120642
H	1.095915	0.0	0.0
N	-1.950735	-0.422076	-1.479905
H	-2.234531	-0.774535	-0.573093
H	-2.502448	0.370385	-1.772823
N	-0.353016	1.261769	-2.118631
O	-1.330249	1.986734	-2.313299
O	0.800264	1.52361	-2.425085
N	-0.448958	-1.247987	0.683176
H	-0.180375	-1.147554	1.656492
H	0.183369	-1.959287	0.320808
C	-0.562288	1.14773	0.690002
N	-0.994987	2.070989	1.276195
F	2.530856	0.0	0.0
