16

C	-0.135169	0.068588	-1.517633
C	0.0	0.0	0.0
F	-0.276595	1.415268	-1.919026
H	1.095863	0.0	0.0
N	0.93305	-0.584888	-2.093267
H	1.791468	-0.415788	-1.532091
H	1.013053	-0.430765	-3.085966
N	-1.465433	-0.497664	-2.029763
O	-2.439002	-0.398044	-1.286463
O	-1.489317	-0.948167	-3.171846
N	-0.423901	-1.295552	0.504236
H	-1.363146	-1.256366	0.877346
H	0.223684	-1.578855	1.227278
C	-0.572555	1.146103	0.691494
N	-1.049244	2.007833	1.333863
F	2.630511	0.0	0.0
