16

C	-0.173785	0.138027	-1.523081
C	0.0	0.0	0.0
F	-1.325761	0.795021	-1.9086
H	1.093615	0.0	0.0
N	0.96226	0.753754	-2.030882
H	1.801385	0.494381	-1.470122
H	1.080578	0.625603	-3.024141
N	-0.412528	-1.301867	-2.08215
O	0.593232	-1.932885	-2.384713
O	-1.563063	-1.712264	-2.157768
N	-0.4958	-1.245585	0.551699
H	-1.456917	-1.164585	0.860399
H	0.089355	-1.495199	1.337787
C	-0.502065	1.201163	0.661935
N	-0.933435	2.114881	1.26364
F	2.630707	0.0	0.0
