16

C	-0.468433	0.013914	-1.428137
C	0.0	0.0	0.0
F	-0.419419	1.282787	-1.961393
H	1.094857	0.0	0.0
N	0.215726	-0.899388	-2.21948
H	0.657277	-1.59696	-1.642844
H	-0.353483	-1.280685	-2.961788
N	-2.014188	-0.250722	-1.511645
O	-2.696836	-0.142174	-0.497373
O	-2.45746	-0.524747	-2.627556
N	-0.335873	-1.28512	0.613278
H	0.425182	-1.515854	1.238
H	-1.197636	-1.23281	1.138586
C	-0.46347	1.165569	0.742038
N	-0.794195	2.072313	1.414502
F	2.530216	0.0	0.0
