16

C	-0.505876	-0.016624	-1.426072
C	0.0	0.0	0.0
F	0.184866	-1.007343	-2.103344
H	1.095365	0.0	0.0
N	-1.900665	-0.184019	-1.525075
H	-2.132882	-0.954598	-0.906392
H	-2.15259	-0.404145	-2.480942
N	-0.164472	1.247555	-2.201054
O	-0.433948	1.209221	-3.400916
O	0.319086	2.199098	-1.604187
N	-0.408929	-1.316341	0.575882
H	0.457492	-1.848124	0.603883
H	-0.687291	-1.174087	1.539633
C	-0.570172	1.080492	0.780536
N	-0.999317	1.902997	1.503475
F	2.534109	0.0	0.0
