13

C	-0.499381	0.02504	-1.437503
C	0.0	0.0	0.0
Cl	0.04279	-1.515759	-2.277723
H	1.091348	0.0	0.0
H	-0.005863	0.820619	-1.993482
H	-0.357928	-0.917957	0.481522
N	-1.916108	0.201804	-1.503663
H	-2.375578	-0.583634	-1.058754
H	-2.230929	0.248256	-2.463971
N	-0.441519	1.173468	0.754114
H	-1.340664	1.480402	0.403253
H	0.229634	1.919656	0.615798
Br	3.729593	0.0	0.0
