13

C	-0.276483	0.008347	-1.498332
C	0.0	0.0	0.0
Cl	-2.065432	0.140549	-1.856558
H	1.097998	0.0	0.0
H	-0.013313	-0.96807	-1.920497
H	-0.376471	-0.924923	0.442505
N	0.400966	1.127332	-2.098432
H	1.360922	1.116564	-1.753682
H	0.429191	1.023457	-3.10425
N	-0.478431	1.150104	0.749989
H	-1.444759	1.332302	0.501005
H	0.058966	1.958768	0.464213
Br	3.632176	0.0	0.0
