16

C	0.0	0.0	0.0
C	-0.247347	0.042639	-1.537616
Cl	1.781785	0.0	0.0
H	0.359113	0.868906	-1.909739
H	-0.294801	-0.974165	0.397521
N	-0.622171	1.13745	0.598683
H	-0.4304	1.116753	1.596633
H	-1.645154	0.910034	0.496519
C	-1.635552	0.133355	-2.140901
H	-1.509731	0.173197	-3.230617
H	-2.269214	-0.691655	-1.83249
H	-2.140525	1.027655	-1.786047
N	0.383842	-1.172832	-2.158492
O	0.12708	-2.269887	-1.667075
O	1.074908	-1.002458	-3.16385
H	-3.214404	0.0	0.0
