16

C	0.0	0.0	0.0
C	-0.555948	0.117007	-1.413629
Cl	1.795004	0.0	0.0
H	-1.651294	0.189471	-1.22072
H	-0.273551	-1.011953	0.324093
N	-0.51923	1.04599	0.822755
H	-0.320996	0.814953	1.790841
H	-1.548186	0.950035	0.695336
C	-0.229548	-1.068124	-2.293733
H	-0.700633	-1.952932	-1.856123
H	-0.644191	-0.922288	-3.292755
H	0.844605	-1.229342	-2.387514
N	-0.125411	1.388415	-2.056699
O	-0.729085	2.415744	-1.754333
O	0.807637	1.34444	-2.869147
H	-3.026277	0.0	0.0
