16

C	0.0	0.0	0.0
C	-0.410091	-0.018274	-1.501941
Cl	1.783104	0.0	0.0
H	0.5061	-0.046233	-2.098422
H	-0.27283	-0.961469	0.432851
N	-0.556317	1.138689	0.672405
H	-0.343487	1.040015	1.662012
H	-1.583698	0.936777	0.579171
C	-1.270223	1.126822	-1.990841
H	-2.25576	1.024157	-1.526602
H	-0.810639	2.063291	-1.671093
H	-1.345675	1.097733	-3.078955
N	-1.016031	-1.358001	-1.866606
O	-0.618392	-2.352349	-1.261917
O	-1.746644	-1.395979	-2.851694
H	-2.98376	0.0	0.0
