16

C	0.0	0.0	0.0
C	-0.700542	-0.45015	-1.311766
Cl	1.811355	0.0	0.0
H	-1.410069	-1.221306	-0.998741
H	-0.162429	-0.823928	0.696581
N	-0.562021	1.162566	0.554842
H	-0.0689	1.470918	1.37926
H	-0.683245	1.883676	-0.151224
C	0.21075	-0.976125	-2.401017
H	0.836676	-1.794904	-2.03939
H	-0.413772	-1.341023	-3.220265
H	0.850437	-0.173737	-2.769189
N	-1.59316	0.592673	-1.849598
O	-2.845923	0.312439	-1.671725
O	-1.096706	1.768534	-1.959514
H	-3.367349	0.0	0.0
