16

C	0.0	0.0	0.0
C	-0.512857	0.017163	-1.450874
Cl	1.795766	0.0	0.0
H	-1.60705	0.166239	-1.28195
H	-0.306972	-0.974181	0.38596
N	-0.516354	0.995673	0.881062
H	-1.537201	0.800777	0.852669
H	-0.385732	1.900342	0.441007
C	-0.249786	-1.26522	-2.20377
H	-0.649231	-1.209446	-3.217303
H	-0.767515	-2.069725	-1.675445
H	0.815456	-1.491909	-2.264446
N	0.012755	1.191118	-2.184174
O	-0.2467	2.310297	-1.730027
O	0.681469	1.011564	-3.207445
H	-2.983943	0.0	0.0
