16

C	0.0	0.0	0.0
C	-0.419995	0.054861	-1.501661
Cl	1.822645	0.0	0.0
H	-1.431557	0.408493	-1.68226
N	-0.244196	1.192694	0.745182
H	-0.112333	2.058621	0.261014
H	-0.04641	1.126193	1.727554
C	-0.393325	-1.211503	0.694834
N	-0.621301	-2.255685	1.187759
N	-0.343104	-1.29729	-2.16854
O	-1.077592	-1.410365	-3.148544
O	0.501489	-2.098552	-1.791941
N	0.452075	1.01272	-2.295283
O	0.362709	2.185514	-1.932337
O	1.050793	0.61362	-3.284815
Cl	-2.968023	0.0	0.0
