19

C	0.0	0.0	0.0
C	-0.220146	0.022363	-1.580775
Br	1.979995	0.0	0.0
H	0.10427	-0.965384	-1.920297
C	-0.505265	1.243051	0.701177
H	-0.096225	2.147851	0.256479
H	-0.229295	1.18637	1.75611
H	-1.597862	1.199852	0.602013
N	-0.621087	-1.138861	0.579331
H	-1.643176	-0.905013	0.520169
H	-0.441351	-1.964752	0.016281
N	0.705582	0.945523	-2.336274
O	1.383072	0.452127	-3.240521
O	0.674083	2.146389	-2.072131
C	-1.598068	0.352199	-2.128556
H	-1.766322	1.426629	-2.056831
H	-2.38708	-0.103327	-1.515645
H	-1.625895	0.058727	-3.183791
F	-3.108348	0.0	0.0
