19

C	0.0	0.0	0.0
C	-0.669445	-0.03412	-1.360283
Br	2.049648	0.0	0.0
H	-1.763087	-0.23159	-0.976197
C	-0.422643	1.247805	0.755905
H	-0.03129	2.162304	0.309539
H	-1.519563	1.184951	0.72649
H	-0.063782	1.180897	1.785822
N	-0.363727	-1.132159	0.775897
H	0.20655	-1.202057	1.605523
H	-0.333765	-1.984868	0.235561
N	-0.158248	-1.153379	-2.190452
O	-0.265758	-2.305537	-1.749813
O	0.336733	-0.906062	-3.294666
C	-0.629426	1.265057	-2.129698
H	0.381986	1.66803	-2.233963
H	-1.042123	1.11531	-3.127285
H	-1.26932	1.97387	-1.606176
F	-2.932204	0.0	0.0
