19

C	0.0	0.0	0.0
C	-0.333699	-0.18264	-1.534062
Br	1.975678	0.0	0.0
H	0.478509	0.273429	-2.104124
C	-0.376883	1.370222	0.55485
H	-0.004334	1.414047	1.58021
H	0.049445	2.181301	-0.031999
H	-1.467137	1.401587	0.538786
N	-0.53099	-0.983512	0.879631
H	-1.565036	-0.773629	0.752456
H	-0.338416	-1.913705	0.525632
N	-1.519831	0.601141	-2.07012
O	-1.447025	1.824442	-1.98196
O	-2.368437	0.005637	-2.721271
C	-0.499707	-1.639165	-1.905367
H	-0.567381	-1.759558	-2.98712
H	0.35735	-2.211704	-1.54245
H	-1.423744	-2.002906	-1.458236
F	-2.744557	0.0	0.0
