19

C	0.0	0.0	0.0
C	-0.213008	0.045658	-1.571588
Br	1.979726	0.0	0.0
H	0.31573	-0.839374	-1.944916
C	-0.482113	1.203607	0.782313
H	-0.191083	1.063371	1.82466
H	-0.070965	2.131944	0.4001
H	-1.57401	1.17851	0.692645
N	-0.606366	-1.162763	0.551443
H	-1.633968	-0.90641	0.47906
H	-0.419076	-1.961514	-0.049269
N	0.523094	1.17339	-2.250684
O	1.301712	0.876773	-3.15892
O	0.246316	2.325913	-1.924849
C	-1.605675	0.090944	-2.180894
H	-1.464519	0.077129	-3.266805
H	-2.196743	-0.752361	-1.852274
H	-2.165753	0.964707	-1.864806
F	-2.989127	0.0	0.0
