19

C	0.0	0.0	0.0
C	-0.22885	0.002547	-1.563448
Br	1.967438	0.0	0.0
H	0.263508	-0.908549	-1.90337
C	-0.478634	1.228387	0.75449
H	-0.05688	2.155366	0.370922
H	-1.571493	1.197084	0.652748
H	-0.203532	1.115384	1.809003
N	-0.603595	-1.220057	0.454132
H	-1.627022	-0.965149	0.355857
H	-0.424934	-1.296676	1.452222
N	0.535767	1.096364	-2.264073
O	0.286081	2.264904	-1.970963
O	1.309239	0.76008	-3.162279
C	-1.619469	0.080976	-2.172036
H	-2.280484	-0.665355	-1.746308
H	-2.092046	1.034283	-1.951995
H	-1.498836	-0.04508	-3.255102
F	-2.996152	0.0	0.0
