19

C	0.0	0.0	0.0
C	-0.22714	-0.058516	-1.578255
Br	1.979937	0.0	0.0
H	0.073259	-1.068955	-1.868709
C	-0.50035	1.28075	0.634429
H	-1.593453	1.234398	0.544792
H	-0.216404	1.284887	1.689196
H	-0.092579	2.157446	0.134896
N	-0.623064	-1.103555	0.642476
H	-1.644285	-0.870096	0.565447
H	-0.444924	-1.958944	0.124721
N	0.713217	0.803768	-2.387764
O	0.706604	2.01767	-2.191976
O	1.376476	0.247085	-3.264685
C	-1.597722	0.275486	-2.138929
H	-1.62463	-0.045754	-3.186126
H	-2.392875	-0.155771	-1.516449
H	-1.751379	1.354699	-2.094314
F	-3.104882	0.0	0.0
