18

C	0.0	0.0	0.0
C	-0.342777	-0.434787	-1.440981
F	1.416315	0.0	0.0
H	0.090678	-1.438267	-1.555502
C	-0.508263	1.374248	0.357377
H	-0.079056	1.67461	1.317292
H	-1.598117	1.354379	0.43591
H	-0.205386	2.101583	-0.396728
N	-0.490694	-0.974756	0.904396
H	-0.559075	-0.621837	1.848465
H	0.077094	-1.81158	0.880765
C	0.357658	0.428797	-2.398328
N	0.894017	1.117998	-3.183413
C	-1.839486	-0.483516	-1.738752
H	-2.289498	0.507865	-1.739658
H	-2.367724	-1.053671	-0.977344
H	-2.010092	-0.935694	-2.719498
Br	-4.900488	0.0	0.0
