18

C	0.0	0.0	0.0
C	-0.472335	-0.159427	-1.452019
F	1.402836	0.0	0.0
H	-1.564314	-0.275791	-1.405783
C	-0.41859	1.32564	0.610445
H	-1.50637	1.409162	0.569469
H	-0.096315	1.338162	1.656364
H	0.05257	2.168737	0.100643
N	-0.434268	-1.161831	0.728311
H	-0.202427	-1.034846	1.708593
H	-1.455049	-1.187529	0.661057
C	0.104477	-1.379185	-2.02417
N	0.550629	-2.316996	-2.572041
C	-0.130004	1.036687	-2.343202
H	-0.716359	1.904549	-2.042693
H	-0.370297	0.810713	-3.383387
H	0.933273	1.273008	-2.275465
Br	-3.833619	0.0	0.0
