18

C	0.0	0.0	0.0
C	-0.372106	-0.513333	-1.404159
F	1.416318	0.0	0.0
H	0.007474	-1.541868	-1.453085
C	-0.490249	1.399463	0.282301
H	-0.170576	2.081287	-0.507499
H	-0.058705	1.744824	1.22558
H	-1.578986	1.403689	0.359524
N	-0.495467	-0.909902	0.964815
H	-0.455364	-0.530284	1.899801
H	-0.008892	-1.794397	0.921889
C	0.36195	0.251368	-2.419445
N	0.911349	0.869932	-3.252828
C	-1.87436	-0.502624	-1.687772
H	-2.432594	-0.979569	-0.885405
H	-2.071704	-1.018741	-2.630164
H	-2.264954	0.509845	-1.770958
Br	-4.988886	0.0	0.0
