18

C	0.0	0.0	0.0
C	-0.44739	-0.221286	-1.46369
F	1.39543	0.0	0.0
H	-1.543749	-0.292963	-1.420661
C	-0.441289	1.350522	0.527316
H	-0.168472	1.395229	1.583163
H	-1.522083	1.46185	0.426891
H	0.077427	2.14999	-0.003009
N	-0.449301	-1.029149	0.893552
H	-1.461369	-0.918794	0.974154
H	-0.273907	-1.939173	0.477789
C	0.083947	-1.502465	-1.932682
N	0.531376	-2.520636	-2.3104
C	-0.033967	0.896572	-2.426148
H	-0.271927	0.622822	-3.455988
H	1.038585	1.086092	-2.352881
H	-0.580561	1.808189	-2.186655
Br	-3.820922	0.0	0.0
