18

C	0.0	0.0	0.0
C	-0.351741	-0.264877	-1.510667
F	1.395311	0.0	0.0
H	0.6325	-0.449009	-1.955652
C	-0.436626	1.35602	0.514891
H	-0.089692	1.462341	1.548012
H	-0.009733	2.163299	-0.083243
H	-1.526931	1.410053	0.488438
N	-0.444732	-1.109648	0.79774
H	-1.463034	-1.144911	0.711711
H	-0.251407	-0.889048	1.770128
C	-0.856618	0.928995	-2.19438
N	-1.179194	1.890572	-2.786412
C	-1.219095	-1.489719	-1.822844
H	-1.271953	-1.620384	-2.907237
H	-2.22908	-1.364638	-1.433487
H	-0.757719	-2.373328	-1.381374
Br	-3.926184	0.0	0.0
