18

C	0.0	0.0	0.0
C	-0.474378	-0.202865	-1.446551
F	1.397301	0.0	0.0
H	-1.56209	-0.348371	-1.388314
C	-0.420263	1.343238	0.57057
H	-0.104487	1.384726	1.61753
H	0.056303	2.169798	0.039538
H	-1.507289	1.427611	0.52088
N	-0.437388	-1.139542	0.760236
H	-1.456968	-1.165166	0.698315
H	-0.203107	-0.987248	1.736427
C	0.135132	-1.417937	-1.993484
N	0.603043	-2.359741	-2.516046
C	-0.173429	0.984832	-2.364997
H	0.880772	1.263906	-2.299932
H	-0.401784	0.725647	-3.400677
H	-0.79482	1.836406	-2.08599
Br	-3.816664	0.0	0.0
