15

C	-0.5452	0.00113	-1.437019
C	0.0	0.0	0.0
Br	0.264175	1.44438	-2.444224
H	1.093849	0.0	0.0
N	-0.07275	-1.300977	-2.14979
O	0.806154	-1.965339	-1.62222
O	-0.659165	-1.554584	-3.199413
N	-1.951723	0.123769	-1.477079
H	-2.382067	-0.603058	-0.913567
H	-2.280098	0.054802	-2.432435
C	-0.515668	-1.171195	0.71184
N	-0.968188	-2.114689	1.246977
C	-0.447249	1.215664	0.683742
N	-0.782767	2.183674	1.257758
Br	3.325112	0.0	0.0
