15

C	-0.307077	0.0352	-1.518653
C	0.0	0.0	0.0
Br	-2.184861	-0.350567	-1.85892
H	1.093302	0.0	0.0
N	-0.026019	1.459914	-2.04456
O	0.689391	2.158151	-1.337323
O	-0.471206	1.748511	-3.143715
N	0.524742	-0.834564	-2.27697
H	1.489646	-0.735246	-1.940234
H	0.231847	-1.796847	-2.155066
C	-0.388576	-1.31051	0.520891
N	-0.654913	-2.383051	0.920173
C	-0.608117	1.06521	0.783318
N	-1.158	1.89086	1.411972
Br	3.314897	0.0	0.0
