15

C	-0.499965	-0.00853	-1.436496
C	0.0	0.0	0.0
Br	-2.499185	0.00622	-1.456635
H	1.090537	0.0	0.0
N	-0.000218	1.215261	-2.184324
O	1.172026	1.562564	-1.942316
O	-0.672651	1.687612	-3.120401
N	0.051566	-1.085282	-2.176184
H	-0.329403	-1.956379	-1.820934
H	-0.200482	-1.008951	-3.157145
C	-0.439365	-1.236505	0.666196
N	-0.154122	-2.376949	0.852958
C	-0.417508	1.205888	0.767128
N	-0.228629	1.81063	1.772443
Br	2.715388	0.0	0.0
