15

C	-0.254572	-0.009496	-1.514691
C	0.0	0.0	0.0
Br	-0.016437	-1.901938	-2.188159
H	1.097286	0.0	0.0
N	-1.707776	0.279297	-1.877532
O	-1.910523	0.72295	-3.001788
O	-2.554579	0.02863	-1.029466
N	0.560833	0.940665	-2.103852
H	0.464805	0.981002	-3.10859
H	1.532062	0.838002	-1.797121
C	-0.530701	-1.123592	0.757212
N	-0.932955	-2.000255	1.42704
C	-0.450496	1.271371	0.566402
N	-0.813882	2.286192	1.03292
Br	3.3102	0.0	0.0
