14

C	-0.390304	0.119911	-1.473586
C	0.0	0.0	0.0
Br	-0.17688	-1.665931	-2.2765
H	1.088642	0.0	0.0
H	-1.45193	0.340793	-1.612709
H	-0.486687	-0.848352	0.477487
C	0.538546	1.100984	-2.16637
H	1.554335	0.869365	-1.829225
H	0.445372	1.06004	-3.253591
H	0.293569	2.112682	-1.829299
N	-0.547217	1.207577	0.673303
O	-1.722129	1.159573	1.066638
O	0.166612	2.205868	0.777217
F	2.635229	0.0	0.0
