14

C	-0.278387	-0.03429	-1.468946
C	0.0	0.0	0.0
Br	-2.207706	-0.31912	-1.890194
H	1.094027	0.0	0.0
H	-0.065908	0.947011	-1.889982
H	-0.386472	-0.861913	0.541211
C	0.577326	-1.111406	-2.111366
H	0.520225	-1.07559	-3.19749
H	0.269454	-2.105285	-1.778217
H	1.594827	-0.917505	-1.753437
N	-0.50902	1.199369	0.671796
O	-0.561467	2.255974	0.038182
O	-0.810408	1.098103	1.863459
F	2.587384	0.0	0.0
