13
Coordinates from ORCA-job run
  C   -0.70871076787033      0.22539774239937     -0.02282228156776
  C   0.54972638391772      0.13733503415285     -0.88505897993467
  Cl  -1.85172777161956      1.28971600806296     -1.01722719682156
  H   0.34709329432395     -0.39221063223844     -1.81405122953985
  H   0.93771090948367      1.13643743037609     -1.07660375256406
  C   -1.39051751453598     -1.06465300748805      0.11024678121404
  N   -1.96469735501687     -2.08208557030374      0.23032009681098
  N   -0.39444546473287      0.73152138567370      1.25287204511828
  H   0.08993670156218      1.61937198735101      1.21326892543369
  H   -1.19605482392511      0.78506516544633      1.86693366566045
  N   1.60473055305743     -0.61077457328384     -0.14223017402160
  O   1.47439392411751     -1.82994071992690     -0.08623682536656
  O   2.50156193123825      0.05481974977868      0.36858892557861
