13
Coordinates from ORCA-job run
  C   -0.67700473360671      0.21391086633920     -0.06007856258023
  C   0.44845823686471     -0.74417060882002     -0.46764527959260
  Cl  -1.19608407000110      1.20092858908904     -1.46211545974456
  H   0.60308122314544     -1.48665831565525      0.31572036325090
  H   0.21973306873636     -1.21652520535536     -1.42076658093373
  C   -1.83314882245954     -0.62380725164900      0.31880088373102
  N   -2.72413461579527     -1.29599840042765      0.68875906380344
  N   -0.22009692593170      1.10414108891727      0.96512566374903
  H   0.21105800686571      0.60150465075302      1.73239871117590
  H   -0.97345587239898      1.68736869972021      1.30671339086026
  N   1.73094447384705     -0.00065741991507     -0.60921410089475
  O   2.44540660654537      0.04579012432037      0.39001959259214
  O   1.96324342418866      0.51417318268322     -1.69771768541681
