13
Coordinates from ORCA-job run
  C   -0.80067331035237      0.28158714010972     -0.02465772233446
  C   0.51568075662123      0.20866290835705     -0.80842523553325
  Cl  -1.84936804265435      1.32616093138478     -1.05332325315554
  H   0.37284040854854     -0.20722164160596     -1.80615032270952
  H   0.95393668576715      1.20440617415976     -0.89845366477055
  C   -1.41676267621538     -1.04895941848836      0.04353926651844
  N   -1.89671082154485     -2.12028708347323      0.06882299073543
  N   -0.75929951011111      0.86086990195291      1.28680232025562
  H   -0.35997582817190      1.79134388551824      1.25324976460691
  H   -0.21754371962643      0.26841556626224      1.90386307919833
  N   1.55565916187019     -0.64713816176577     -0.14630743401097
  O   2.60316082378576     -0.77048450927988     -0.76771269918952
  O   1.30105607208351     -1.14735569313153      0.94775291038908
