13
Coordinates from ORCA-job run
  C   -0.59000342666375      0.19076102368492      0.10903467360498
  C   0.92633440650925      0.15236522047242     -0.06357821445738
  Cl  -1.33310994265266      0.16745311369418     -1.56663183926363
  H   1.39140094643243      0.01834701908671      0.91418964444784
  H   1.26499290465894      1.07297421050696     -0.53620845747078
  C   -1.12084613870159     -0.97225984299606      0.82516174197259
  N   -1.59441616357078     -1.84663421654951      1.44997145035578
  N   -0.90045688218048      1.36286963790533      0.85362283327467
  H   -1.88061935651878      1.39700960177406      1.10514383749360
  H   -0.65841124323206      2.19908290488846      0.33527486058645
  N   1.38088355119931     -0.96849794564393     -0.93251453073644
  O   2.07686338883752     -0.67667169304710     -1.90039373288022
  O   1.03838795588264     -2.09679903377643     -0.59307226692753
