13
Coordinates from ORCA-job run
  C   -0.66819672071545      0.10289939690394      0.12522148164807
  C   0.52606202325681     -0.70565837794570     -0.38729677809338
  Cl  -1.11932194424348      1.28152960210190     -1.22449988522575
  H   0.25280492780637     -1.28687746364645     -1.26420413320425
  H   0.89107683601884     -1.34720987475080      0.41761907498872
  C   -1.80546723237320     -0.81748696200323      0.23719782310147
  N   -2.70223649049151     -1.56783693785244      0.34793669416381
  N   -0.42348381629859      0.70346132215870      1.37737389529913
  H   0.40114551170429      1.28940768810221      1.34830011030107
  H   -1.22616686612543      1.21876285903285      1.71424192312197
  N   1.66664177857476      0.16597883042871     -0.79967223654365
  O   2.18102939307093     -0.07023537385076     -1.88582559592142
  O   2.02611259981564      1.03426529132106     -0.00639237363577
