13
Coordinates from ORCA-job run
  C   -0.72307269038937      0.19109484960543      0.06456166666221
  C   0.47277124655331     -0.65972733818434     -0.41689828104604
  Cl  -1.13726628369437      1.30703418425874     -1.28773608683059
  H   0.20875754400938     -1.25461769806513     -1.28871560818639
  H   0.81698085870432     -1.29229022110333      0.40435584929298
  C   -1.83955988309610     -0.74559205459479      0.24350645895977
  N   -2.68738555420243     -1.53808454335923      0.42455738981760
  N   -0.56539496889639      0.95438527260919      1.26472097971978
  H   0.31530580324047      1.45412646080554      1.24914566981803
  H   -0.61261956205058      0.35873105887700      2.08240620864779
  N   1.62590575993263      0.19520940346970     -0.81785077437204
  O   2.06128726721101      0.97295752640280      0.03097804457271
  O   2.06329046267811      0.05477309927843     -1.95403151705586
