13
Coordinates from ORCA-job run
  C   -0.56975326697799      0.29437049800923      0.02168867938255
  C   0.94823806989190      0.16043578849454     -0.08137844895590
  Cl  -1.21961303256833      0.74187116281492     -1.58039178430947
  H   1.36156108864580     -0.11981743913445      0.88975588142941
  H   1.35034794212653      1.10793785074315     -0.43091260817299
  C   -1.22773526785662     -0.95585507113408      0.43775649491984
  N   -1.79219733395963     -1.88657057115688      0.88195878688462
  N   -0.82528929530644      1.39519987042241      0.92857595121798
  H   -0.58318558451995      1.11603912356650      1.87474053849917
  H   -1.81244020021280      1.62775936895145      0.91359451911136
  N   1.35692994599843     -0.89661424319041     -1.04642389134755
  O   1.90181500723228     -0.52823176998496     -2.08326961071446
  O   1.11032192750678     -2.05652456840140     -0.72369450794452
