13
Coordinates from ORCA-job run
  C   -0.69182655604025      0.39089455379478     -0.04984869509008
  C   0.50931067556595      0.03480475042115     -0.92009001978449
  Cl  -1.80184818077863      1.29481613322048     -1.13512618573761
  H   1.03529372598728      0.95357351841199     -1.18497966058305
  H   0.20496784038266     -0.49556161870135     -1.82108667525103
  C   -1.40774877882629     -0.82823154349015      0.37043932512563
  N   -1.97376040154579     -1.78778618719706      0.74628521497115
  N   -0.31395126747696      1.27417308541566      1.02045118936295
  H   -1.13709094313095      1.58622042699688      1.52239633349755
  H   0.29280046967027      0.77105599265879      1.65799175824066
  N   1.50527245641489     -0.85042881403228     -0.23336030368709
  O   2.33480222360819     -1.37608674262428     -0.96360530775198
  O   1.44277873616962     -0.96744355487456      0.98953302668739
