13
Coordinates from ORCA-job run
  C   -0.58083821898166      0.13419765690967      0.20581792860520
  C   0.85689902849685      0.24795081650782     -0.29460010772958
  Cl  -1.62743145454527     -0.31432007612771     -1.23070092392712
  H   0.94172904559262      1.09045127256536     -0.97914118236733
  H   1.52279372808563      0.36991735328974      0.56107689008625
  C   -0.76349513575080     -0.91734632664674      1.20980624485667
  N   -0.95316531203971     -1.70130926730080      2.06336051952701
  N   -0.92341069561583      1.38504453322149      0.79154984179894
  H   -0.92619128870444      2.12380186633177      0.09816322466300
  H   -1.82755407599737      1.34931515273283      1.24590592688357
  N   1.30798443908347     -0.95871102418172     -1.04256213795281
  O   1.20766012346014     -2.03355893895329     -0.45958883612274
  O   1.76501981691634     -0.77743301834843     -2.16708738832105
