13
Coordinates from ORCA-job run
  C   -0.68196803633915      0.01820073035447      0.09050348545319
  C   0.65614599887525     -0.68626045454246     -0.14586415266904
  Cl  -1.25603995691752      0.61734754149730     -1.56099482199646
  H   1.08255213748503     -0.96945474338545      0.81882806519693
  H   0.52991798263458     -1.55068406050903     -0.79256065370149
  C   -1.65149433170458     -1.00708418987815      0.49278960819029
  N   -2.40523732477439     -1.84123448759645      0.83273028207622
  N   -0.60651295359832      1.01316962152281      1.08656016927000
  H   0.10833171191147      1.69607295369939      0.87031223524077
  H   -1.50065791309453      1.45804150960047      1.24731560675526
  N   1.65253470865113      0.19992010881629     -0.81842357769750
  O   1.82064293739590      1.32077842424424     -0.34100795164403
  O   2.25278503947514     -0.26781295382344     -1.77818829447414
