13
Coordinates from ORCA-job run
  C   -0.68763765695531      0.17899067733390     -0.05352612899701
  C   0.46892496032469     -0.75832791461897     -0.42024387151146
  Cl  -1.29360780309487      1.02636093189323     -1.51074293598263
  H   0.23399210802170     -1.31834293982180     -1.32311343459414
  H   0.68193213892226     -1.42518937304970      0.41573908457360
  C   -1.79177412322518     -0.67596715560934      0.42770691067310
  N   -2.64015767795762     -1.35801779197908      0.87233791233247
  N   -0.24185350169022      1.16793157268244      0.88245576912963
  H   -1.00988567606058      1.74583836790039      1.19964041380485
  H   0.23094688321946      0.74690055710835      1.67400625300050
  N   1.71023078130171      0.02727336508296     -0.66526540814730
  O   1.88283811686404      0.46269058744032     -1.79862531254654
  O   2.45605145032989      0.18085911563733      0.29963074826492
