13
Coordinates from ORCA-job run
  C   -0.73836183372171      0.12831467816617      0.03235540548508
  C   0.54139279286124     -0.67647609188020     -0.28452696522763
  Cl  -1.24262484246039      0.91677624218160     -1.50790037783233
  H   0.93540649883100     -1.10356192504483      0.64036335127143
  H   0.34833089204876     -1.44977720235554     -1.02503588381545
  C   -1.75950219322526     -0.86301657047028      0.39317592742509
  N   -2.52909067392258     -1.69083338634700      0.71265112261586
  N   -0.67181247895626      1.11884273947254      1.06219181291590
  H   0.15931219926656      1.68654543877463      0.95165618453641
  H   -0.68389457606790      0.69179226533474      1.98020015184684
  N   1.61084561602339      0.19546444350572     -0.84847604403627
  O   2.07692941437398     -0.11763042554304     -1.93776722852106
  O   1.95406918494917      1.16255979420550     -0.16888745666387
