13
Coordinates from ORCA-job run
  C   -0.70883237050959      0.22496268559330     -0.01963634510526
  C   0.53303841460918      0.09542458578225     -0.90042654300498
  Cl  -1.87086283026344      1.24221701041078     -1.04150204938822
  H   0.31262155394805     -0.47726694686301     -1.79924422801922
  H   0.91680193185455      1.08417579823840     -1.14648061089017
  C   -1.38743830274606     -1.05736512269561      0.18607075653923
  N   -1.95739168145181     -2.06914148934978      0.36158567121395
  N   -0.37152527658499      0.79019770167663      1.22464153986503
  H   -1.16113515138435      0.87086543599026      1.85115589237978
  H   0.11055053005974      1.67562862832766      1.13552920842500
  N   1.60189130054962     -0.61807172673898     -0.14336798464067
  O   1.47397604228343     -1.83352489052512     -0.02974063628861
  O   2.50730583963567      0.06989833015324      0.32041532891412
