13
Coordinates from ORCA-job run
  C   -0.70967173274808      0.22412313477360     -0.02981045965352
  C   0.56147294485358      0.14568340751965     -0.87415153827344
  Cl  -1.84071848409484      1.29404764839142     -1.03242207208669
  H   0.94873391195965      1.14744461863114     -1.05292745578332
  H   0.37399318140722     -0.37780980272965     -1.80969268203027
  C   -1.38975995461991     -1.06892777743209      0.08087377930753
  N   -1.95460985595644     -2.09499063699807      0.16721850987456
  N   -0.41582626292240      0.72043678606774      1.25436263070111
  H   0.06982006395269      1.60808670791633      1.22996986737422
  H   -1.22711117903892      0.76990910272863      1.85596221216556
  N   1.60801074832887     -0.60436425848528     -0.12133456296041
  O   1.48406635849710     -1.82478181698179     -0.08026770704908
  O   2.49160026038145      0.06114288659841      0.41221947841380
