13
Coordinates from ORCA-job run
  C   -0.70699142456139      0.23077232266817      0.00711485130509
  C   0.51645627334518      0.14535322238587     -0.90426026487659
  Cl  -1.87951218181348      1.31661509089743     -0.92808115696750
  H   0.27407195525528     -0.36950575805104     -1.83197516090278
  H   0.90456248646746      1.14416831621638     -1.09707943148919
  C   -1.39330851099363     -1.05592502189451      0.14963666760126
  N   -1.97386644988880     -2.06764662287334      0.28634788223950
  N   -0.33986017545275      0.71708025748466      1.27619045191636
  H   -1.11685232461625      0.76936264230390      1.92125552708522
  H   0.15106572060013      1.60097013636950      1.23015492160858
  N   1.59302896439281     -0.62125004722527     -0.21307866460714
  O   2.51471104313268      0.02998221704951      0.27130645196401
  O   1.45449462413275     -1.83997675533128     -0.16853207487677
