13
Coordinates from ORCA-job run
  C   -0.56201273549737      0.15103492862031      0.24284713352348
  C   0.82872644529401      0.22536552884699     -0.38264935751367
  Cl  -1.72257758971712     -0.40128356387324     -1.06377636803880
  H   1.56184423231663      0.40936198387480      0.40404696634867
  H   0.85150872268855      1.01429424972848     -1.13277730385323
  C   -0.65450541908718     -0.82402192332440      1.33275769325319
  N   -0.76491106790952     -1.54848722640866      2.25040958469536
  N   -0.86060835731144      1.44208458601105      0.76173013537100
  H   -1.72336347856468      1.44095171476412      1.29169096907040
  H   -0.92559998697690      2.12749185090457      0.01836089478561
  N   1.22014382544371     -1.03455475791588     -1.07357449689626
  O   1.55215624700170     -0.94400932243406     -2.25171714323245
  O   1.19919916231959     -2.05822804879412     -0.39734870751335
