13
Coordinates from ORCA-job run
  C   -0.78540470087688      0.30838342905034     -0.04551553898139
  C   0.48452675921017      0.15648512631710     -0.90489883493963
  Cl  -1.89054554513760      1.30236065879411     -1.07321432437419
  H   0.91413300821099      1.14141510879035     -1.08492388966544
  H   0.27542640395451     -0.36644446223198     -1.83596410650832
  C   -1.41155511681960     -1.00161082926074      0.16306197978866
  N   -1.89396149701073     -2.05485287291691      0.35622903030118
  N   -0.62236910259829      0.95094144856867      1.21907476516727
  H   -0.26543476681843      0.31526515808541      1.92079903194960
  H   -0.01598313368633      1.75847325460534      1.14903873607409
  N   1.49474165465395     -0.63852026625094     -0.15377894501292
  O   1.54778229191166     -1.84432952047051     -0.38607211939656
  O   2.16964374500663     -0.02756623308024      0.67516421559768
