13
Coordinates from ORCA-job run
  C   -0.69690965664208      0.37935400216583     -0.09413843538493
  C   0.56812390190048      0.05532068985763     -0.88435202787967
  Cl  -1.76612891543690      1.24145673091748     -1.25234742033026
  H   0.33584948837705     -0.45997884022192     -1.81434880699969
  H   1.09880997638909      0.98697826409748     -1.08932054797496
  C   -1.39549092136329     -0.86261574314199      0.28779567475714
  N   -1.93988034025574     -1.84429964855981      0.63678674981854
  N   -0.41712624449120      1.27816015438246      0.99204371721600
  H   -1.27855102387036      1.55252982774132      1.45023804581770
  H   0.18194454141335      0.80531730500317      1.65964713560897
  N   1.52091411864639     -0.83329173669560     -0.14378072233279
  O   1.44989433795402     -0.86991340266537      1.08378554783926
  O   2.33855073737918     -1.42901760288066     -0.83300891015533
