13
Coordinates from ORCA-job run
  C   -0.57021444524586      0.14095233751677      0.22604769495084
  C   0.83467974465389      0.23873658054075     -0.36312302292977
  Cl  -1.68478265596386     -0.43993669162210     -1.10796483768241
  H   0.86271673852011      1.02280885817753     -1.11810367620574
  H   1.54333698835631      0.44202541005339      0.44106225017682
  C   -0.67382681212989     -0.83011582016084      1.31871502805620
  N   -0.80829138531457     -1.54294425955637      2.24228282004700
  N   -0.90691669510426      1.42819237666900      0.73016057811430
  H   -0.96345250686972      2.10960177106142     -0.01758295099070
  H   -1.78339587585643      1.41357522991106      1.23685305562291
  N   1.26908077014612     -1.01794418229020     -1.03421306792554
  O   1.64105148903591     -0.92711308451499     -2.20021077474291
  O   1.24101464577222     -2.03883852578542     -0.35392309649101
