13
Coordinates from ORCA-job run
  C   -0.68310873772217      0.13728704075984      0.14555423012756
  C   0.77250492800632      0.20642033155636     -0.33716772530425
  Cl  -1.69878788547991     -0.27710676846005     -1.27329769569639
  H   1.42869051457670      0.37619185198266      0.51920355297696
  H   0.86655831339454      1.00487619353267     -1.07154421058287
  C   -0.87307676913641     -0.88320100424239      1.18218083881759
  N   -1.02593343804036     -1.64439832927281      2.06321130921906
  N   -1.14892318405517      1.39392673371212      0.67515093864873
  H   -0.99384937208806      2.14756862577640      0.01607989036037
  H   -0.70893359140868      1.60313165932062      1.56347880192536
  N   1.23667073792595     -1.04550834607364     -1.00068252338213
  O   1.57513340919682     -0.96274716625593     -2.17792110006866
  O   1.25205507483046     -2.05744082233590     -0.30524630704138
