13
Coordinates from ORCA-job run
  C   -0.60850378629231      0.20216511343007      0.06264227075293
  C   0.83740255864806      0.21922044519850     -0.43078604452896
  Cl  -1.68170118496345     -0.23056785906216     -1.29682809207008
  H   1.50232042463874      0.49471509132003      0.39012160386993
  H   0.90682923769170      0.92104517950271     -1.25806380896751
  C   -0.83090327366171     -0.78148810092821      1.13640788451315
  N   -1.04440438665667     -1.46576217146292      2.06827052624953
  N   -0.92221658506537      1.55839928365680      0.46336913235688
  H   -1.91604286880449      1.63904297860934      0.64903417061705
  H   -0.42338177882512      1.78222852381973      1.31932497619173
  N   1.28120011893237     -1.11546141745566     -0.91731969286604
  O   1.42845705443152     -1.25042081661424     -2.12888284242778
  O   1.47094446992671     -1.97411625001402     -0.05829008369082
