13
Coordinates from ORCA-job run
  C   -0.71196202992021      0.21704312298070     -0.01453596444349
  C   0.53147742170739      0.12081378642390     -0.89726921590060
  Cl  -1.88489601039251      1.24379497768529     -1.01400417837147
  H   0.90375168784753      1.11915777135667     -1.12124623719751
  H   0.31839584246323     -0.43465466549784     -1.80858659758427
  C   -1.37665740157759     -1.07672457320726      0.16220113208843
  N   -1.93379574607960     -2.10012042921550      0.30909965986401
  N   -0.38055726240296      0.75829127637708      1.24209107526445
  H   -1.17205690078414      0.82168508520656      1.86823747762202
  H   0.09626884329344      1.64830966238313      1.17212949708401
  N   1.60861723208244     -0.59587893617673     -0.15523522094623
  O   1.49492312645247     -1.81482469414688     -0.06740277446719
  O   2.50549119731051      0.09310761583083      0.32352134698784
