13
Coordinates from ORCA-job run
  C   -0.74104148547804      0.11154293067367      0.04341731173755
  C   0.55429770024989     -0.60751131572952     -0.39338369693724
  Cl  -1.23765000128215      1.15774061825222     -1.33683444270738
  H   0.94204344228910     -1.18986784736140      0.44550004700601
  H   0.38195062232513     -1.23739948798716     -1.26346041080713
  C   -1.75130864279821     -0.94167412021997      0.20602304977133
  N   -2.51263151771926     -1.82242451217902      0.36160630442779
  N   -0.70278069081152      0.90181312268753      1.23547361221887
  H   -0.71226902696184      0.31540507298651      2.06111727332911
  H   0.11843096239515      1.49425865289795      1.23857984346429
  N   1.61870755669265      0.36353148356846     -0.77528191055300
  O   1.93693343936084      1.19932305016262      0.07040475678491
  O   2.10631764173821      0.25326235224810     -1.89416173773508
