13
Coordinates from ORCA-job run
  C   -0.66054169107453      0.02801294552571      0.19111047084833
  C   0.52739023684587     -0.56572039553429     -0.56971308174139
  Cl  -1.27863699921493      1.44208178335615     -0.82453833485982
  H   0.98822504771118     -1.34302947349346      0.04355976701610
  H   0.21368120481158     -0.95619956512283     -1.53436177397440
  C   -1.73668003467952     -0.96931856414568      0.16957891822294
  N   -2.57708843613087     -1.78972762009127      0.15765415256860
  N   -0.34547028689093      0.35278416344485      1.52695931331545
  H   -1.14300316820037      0.72782465079549      2.02362469369782
  H   0.44386749386073      0.98443235752209      1.57417491941729
  N   1.58530331590606      0.45010259844675     -0.85170250154060
  O   1.96383952675503      1.14435384126246      0.09021323283813
  O   2.02111379030067      0.49440327803404     -1.99555977580845
