13
Coordinates from ORCA-job run
  C   -0.61893862109492      0.15306788491059      0.08296570033263
  C   0.79015199897801      0.25286048829640     -0.49862315025214
  Cl  -1.71801877356361     -0.49385166957799     -1.16659229763630
  H   1.47009181975484      0.66010802203310      0.25223637733090
  H   0.74906862478964      0.87911009900415     -1.38622933576280
  C   -0.69235045425587     -0.74521244843893      1.24807409806738
  N   -0.80148034042918     -1.36066788319472      2.24380384942980
  N   -1.03597834643862      1.50716169744740      0.38488061714186
  H   -2.02131977983181      1.51591068481141      0.62515459369938
  H   -0.51423940631608      1.85104856779653      1.18560176551835
  N   1.33020294278271     -1.07619796900071     -0.89531847533378
  O   1.63358312640244     -1.83774225767860      0.02068853385688
  O   1.42822720922249     -1.30559521640860     -2.09764227639219
