18

C	-0.054645	-0.084203	-1.524951
C	0.0	0.0	0.0
Br	-1.790189	-0.769753	-2.280144
H	1.105456	0.0	0.0
N	0.007814	1.355839	-2.156335
O	-0.91141	2.13721	-1.940375
O	1.002625	1.607722	-2.832483
N	1.006319	-0.886999	-1.936638
H	1.85196	-0.631999	-1.359598
H	1.177337	-0.826361	-2.930566
N	-0.499818	-1.274301	0.559022
H	0.0237	-1.399701	1.422655
H	-0.160016	-2.010356	-0.055082
C	-0.666508	1.159144	0.696198
H	-0.198282	2.111336	0.446378
H	-1.732512	1.206184	0.461525
H	-0.558184	1.007812	1.775003
F	2.730276	0.0	0.0
