18

C	-0.366272	-0.004583	-1.434825
C	0.0	0.0	0.0
Br	-2.650383	0.530836	-1.581517
H	1.094675	0.0	0.0
N	0.093124	1.143075	-2.299877
O	0.42512	2.185496	-1.754394
O	0.11094	0.938249	-3.512133
N	-0.169095	-1.16411	-2.071556
H	-0.396797	-1.201931	-3.050665
H	-0.354441	-1.952715	-1.462758
N	-0.348653	-1.329436	0.526133
H	0.424956	-1.616942	1.115058
H	-1.191882	-1.273402	1.087641
C	-0.48836	1.133372	0.876326
H	0.050956	1.063759	1.825628
H	-1.56586	1.05866	1.05857
H	-0.276338	2.105339	0.438181
F	2.545592	0.0	0.0
