18

C	-0.126601	-0.086645	-1.526251
C	0.0	0.0	0.0
Br	-1.898112	-0.743473	-2.131139
H	1.096961	0.0	0.0
N	0.02316	1.326416	-2.099051
O	1.144957	1.63974	-2.481689
O	-0.947421	2.079073	-2.060711
N	0.902027	-0.903063	-2.094758
H	1.760601	-0.613693	-1.57935
H	0.693637	-1.840613	-1.758345
N	-0.35758	-1.316034	0.527039
H	-1.304292	-1.310679	0.892352
H	0.285352	-1.525763	1.281462
C	-0.65195	1.167623	0.70563
H	-0.245749	2.126898	0.379074
H	-0.45706	1.075329	1.779332
H	-1.737436	1.181694	0.546001
F	2.671362	0.0	0.0
