18

C	-0.665736	0.005375	-1.372364
C	0.0	0.0	0.0
Br	0.022027	1.472074	-2.467777
H	1.094561	0.0	0.0
N	-0.25807	-1.296026	-2.077663
O	0.929835	-1.447508	-2.326432
O	-1.148268	-2.117352	-2.289294
N	-2.100796	0.062966	-1.411199
H	-2.422879	-0.710726	-0.83476
H	-2.378282	0.934338	-0.974837
N	-0.442841	-1.267976	0.628882
H	-0.800181	-1.084622	1.558838
H	0.401698	-1.819582	0.743848
C	-0.436762	1.189576	0.838633
H	0.204835	1.212995	1.722664
H	-1.484526	1.122662	1.165693
H	-0.292254	2.13381	0.310726
F	2.627118	0.0	0.0
