18

C	-0.459706	0.000464	-1.462431
C	0.0	0.0	0.0
Br	0.460571	1.365217	-2.52151
H	1.091529	0.0	0.0
N	0.015308	-1.341226	-2.117277
O	1.169838	-1.690503	-1.945317
O	-0.834227	-1.96785	-2.760887
N	-1.855705	0.174028	-1.652215
H	-2.091553	0.011008	-2.624104
H	-2.332527	-0.536694	-1.106418
N	-0.454848	-1.191899	0.709016
H	-1.453157	-1.363459	0.635314
H	0.067009	-2.006057	0.410793
C	-0.506522	1.237266	0.718688
H	-1.600758	1.26161	0.793731
H	-0.17717	2.146319	0.213465
H	-0.079325	1.224162	1.722832
F	2.642677	0.0	0.0
