16
Coordinates from ORCA-job run
  C   0.69409699658694      0.19548371101513     -0.40890150592830
  C   -0.42260995557085     -0.79404078103958     -0.67803614409488
  F   1.56963675749511      0.15374763078413     -1.46590584132906
  H   -0.75710901599010     -0.60917837572964     -1.70264699362698
  H   0.03071310254341     -1.78991494627562     -0.65800449206033
  C   1.47096656901058      0.01193876964975      0.86714951655882
  H   2.23217232344703      0.78828155733236      0.95091159902325
  H   0.82809411461915      0.05947556437056      1.74241546696942
  H   1.96305273145364     -0.96150657012757      0.82571429678230
  N   0.06836174089520      1.58626416435029     -0.45186853526483
  O   -0.21255723878435      2.02373558502152     -1.56127969052624
  O   -0.16769296182555      2.13103176528295      0.62413570293820
  C   -1.59331193857835     -0.70931187577511      0.29535724307114
  H   -2.09679485034733      0.25714888962805      0.23708928776802
  H   -1.27844371298661     -0.86419575406261      1.32869600000472
  H   -2.32857466196789     -1.47895933442460      0.05417408971475
