16
Coordinates from ORCA-job run
  C   0.46250129321278      0.28629440689099     -0.36503760327591
  C   -1.01563243098582     -0.00124556342394     -0.18382626155514
  F   0.92495962338414     -0.40216180238508     -1.45272832383704
  H   -1.51066038661528      0.28780726300741     -1.11703000550574
  H   -1.39663082127660      0.64977572339899      0.60555024018071
  C   1.35939362141951      0.00213843670157      0.81480543329382
  H   2.37724616586098      0.32175309415037      0.58336443315936
  H   1.37155822232238     -1.07073716728296      1.00673156236019
  H   1.00950533862398      0.53088760454656      1.70002586398690
  N   0.59241675349242      1.76833864803292     -0.70273931126275
  O   0.98854608617117      2.08002661228809     -1.81709095495561
  O   0.26845487183304      2.53641329379484      0.19945985472599
  C   -1.29648153626108     -1.46792090313407      0.12488884667892
  H   -0.84967862166794     -2.11726958102057     -0.62941498292757
  H   -2.37308211122712     -1.64779778184283      0.12834642007701
  H   -0.91241606828657     -1.75730228372230      1.10469478885686
