16
Coordinates from ORCA-job run
  C   0.46383024441523      0.28968377606210     -0.36012615391825
  C   -1.01388251723217     -0.00884076057498     -0.19303492836920
  F   0.94215371668424     -0.39542709108619     -1.44291579890057
  H   -1.40723147639673      0.63858490380480      0.59322370552822
  H   -1.50204061239186      0.27703605981609     -1.13078737782408
  C   1.35116664826889      0.01295886443663      0.82857568206727
  H   0.99130820028261      0.54333296675185      1.70879774456484
  H   2.36967284168510      0.33595587418301      0.60472208961081
  H   1.36600351827479     -1.05917915316716      1.02447603183335
  N   0.58568718205791      1.77258311193076     -0.69791695701473
  O   0.24783787409028      2.53887350850556      0.20062742325200
  O   0.98929883813671      2.08592791375368     -1.80906035637654
  C   -1.28616743662437     -1.47793592996490      0.11238700995616
  H   -0.91707522811095     -1.76231680994286      1.09940802453343
  H   -0.81972130081213     -2.12388504065091     -0.63286304129063
  H   -2.36084049232753     -1.66835219385749      0.09648690234791
