15
Coordinates from ORCA-job run
  C   0.82265136040150     -0.13106621282010      0.34437755790010
  C   -0.66539625763696     -0.19526517346192      0.02742650061598
  Br  1.28395091562253      1.67056772248072      0.95993843368450
  H   -0.90484907859663     -1.23325662806471     -0.22665750675928
  H   1.01978400795213     -0.77553950381497      1.20027993661792
  C   1.67142611334217     -0.51031119019096     -0.85238703599078
  H   1.41526047759429     -1.52652349713833     -1.16858289490809
  H   1.48826934153438      0.16638399026682     -1.68561615673554
  H   2.73032525715871     -0.48584396477488     -0.59260405579864
  N   -1.06166287406217      0.67096854379454     -1.01332818552160
  H   -0.90966292902777      1.63786480942363     -0.75511172048910
  H   -2.03777525659000      0.54783995851839     -1.24505398202356
  N   -1.43307151987121      0.01239337363138      1.35136161720425
  O   -2.23139260210602      0.94074881685337      1.41002399059872
  O   -1.18785695571495     -0.79096104470299      2.24593350160513
