15
Coordinates from ORCA-job run
  C   0.83934564077583     -0.17616902242754      0.40367649273808
  C   -0.64773895872608     -0.18196652968251      0.06267257276214
  Br  1.30639448845930      1.48200898266957      1.30532930208165
  H   -0.90338276212146     -1.19758804012469     -0.27263920471964
  H   1.03893404464326     -0.96723438423219      1.12681229874979
  C   1.66868799708658     -0.34303001974986     -0.85489830711076
  H   1.38889063901854     -1.27185635838787     -1.36476602438659
  H   2.73028206759133     -0.39623984299350     -0.61158088851985
  H   1.50395905999616      0.49930575139134     -1.52692146857507
  N   -1.00156122481711      0.84741070297728     -0.88067371258874
  H   -1.15788206146631      0.43570270396541     -1.79106525317517
  H   -1.85584920635051      1.30153304169040     -0.58039658567959
  N   -1.44844427915993     -0.04033820429145      1.34411585979791
  O   -1.14349847116509     -0.81700921984870      2.24056016026199
  O   -2.31713697376453      0.82247043904432      1.39977475836386
