15
Coordinates from ORCA-job run
  C   0.54384477305334     -0.80862258676114     -0.11900248529256
  C   -0.83151374241461     -0.22959573709548      0.20648403249532
  Br  1.18857453165276     -1.83056019668902      1.41361251436732
  H   -1.48185938297228     -1.02464253891838      0.58303604544643
  H   0.37137043316694     -1.56305910300882     -0.89263034506151
  C   1.60135820063095      0.18063477538500     -0.57583484813567
  H   1.89918173295959      0.84068660113028      0.23566842498923
  H   1.21284234161795      0.80072769225217     -1.38633913572006
  H   2.47802243970473     -0.36434737073171     -0.92931054392603
  N   -1.33919722500604      0.50603269570445     -0.91674754209280
  H   -2.34755763262934      0.57964996605653     -0.87780899870739
  H   -1.07830661637560      0.07216272402417     -1.79183952762164
  N   -0.75121240641890      0.71952799800735      1.39173325813444
  O   -0.09939662567541      1.74844719091394      1.25987839514597
  O   -1.36615082129408      0.37595788973068      2.40010075597895
