15
Coordinates from ORCA-job run
  C   0.52955000897813     -0.81664484590313     -0.16445371455459
  C   -0.88014912137706     -0.29247982953944      0.20173750861299
  Br  1.17593220890915     -2.17386589554045      1.07899780546775
  H   -1.45630628996617     -1.08612056712148      0.67925573898067
  H   0.39592685660221     -1.36714650694899     -1.09810331954229
  C   1.56911919825581      0.27635905642030     -0.34028135731050
  H   1.83626591403750      0.71813511382783      0.62064950626980
  H   2.47247028907609     -0.13775844086914     -0.78939824481444
  H   1.19396038627638      1.06952487986436     -0.99418872253510
  N   -1.62844467417453      0.24496567704605     -0.87529454174956
  H   -2.13068966379109     -0.45930913506054     -1.39015911970354
  H   -1.12029023750059      0.87709753180058     -1.47275603913908
  N   -0.68888224526812      0.78607148402544      1.24856896487167
  O   -0.43011803638188      0.40563772789410      2.38927509850488
  O   -0.83834459367582      1.95653375010451      0.90615043664133
