17

C	-0.534723	-0.011871	-1.42923
C	0.0	0.0	0.0
F	-0.109382	-1.11338	-2.108445
H	1.094102	0.0	0.0
C	-2.007647	0.014378	-1.454437
N	-3.178745	-0.069864	-1.420499
N	-0.041581	1.204008	-2.211271
O	1.053896	1.088997	-2.737844
O	-0.77786	2.184831	-2.229606
C	-0.454783	-1.261631	0.723693
H	-1.54169	-1.275228	0.867067
H	0.032836	-1.28395	1.700319
H	-0.156214	-2.159263	0.180269
N	-0.456501	1.233706	0.625166
H	0.332343	1.699709	1.052923
H	-1.158614	1.055312	1.330754
Cl	3.358729	0.0	0.0
