17

C	-0.410771	-0.146458	-1.46522
C	0.0	0.0	0.0
F	0.305581	0.697129	-2.239718
H	1.099281	0.0	0.0
C	-0.318218	-1.51143	-2.002647
N	-0.284252	-2.603744	-2.431453
N	-1.880306	0.270843	-1.623413
O	-2.123016	1.282325	-2.255929
O	-2.692739	-0.452815	-1.055169
C	-0.479769	-1.120331	0.905997
H	-0.005541	-0.981047	1.88019
H	-1.566157	-1.110659	1.02428
H	-0.176755	-2.099292	0.530959
N	-0.460435	1.322192	0.424955
H	0.348241	1.896988	0.624274
H	-1.014109	1.247644	1.268174
Cl	3.347481	0.0	0.0
