17

C	-0.533215	-0.010212	-1.430019
C	0.0	0.0	0.0
F	-0.119557	-1.118431	-2.105823
H	1.094115	0.0	0.0
C	-2.005597	0.032259	-1.457457
N	-3.177577	-0.038157	-1.429151
N	-0.026549	1.197706	-2.215419
O	1.063468	1.066635	-2.748948
O	-0.748169	2.188879	-2.228091
C	-0.456519	-1.262068	0.721895
H	-0.156037	-2.159479	0.179222
H	0.028426	-1.284317	1.699861
H	-1.543772	-1.276171	0.86249
N	-0.454332	1.233958	0.625634
H	-1.166833	1.057648	1.321355
H	0.332794	1.692027	1.065443
Cl	3.358923	0.0	0.0
