17

C	-0.427479	-0.016587	-1.483232
C	0.0	0.0	0.0
F	-0.055905	-1.169063	-2.09472
H	1.097373	0.0	0.0
C	-1.88284	0.154254	-1.635839
N	-3.052725	0.247252	-1.696182
N	0.22858	1.128852	-2.257163
O	-0.185213	2.250359	-1.974533
O	1.092476	0.841617	-3.066197
C	-0.506177	-1.271307	0.665798
H	-1.601264	-1.288093	0.720632
H	-0.109378	-1.279508	1.680967
H	-0.156762	-2.163622	0.146493
N	-0.451995	1.16132	0.734628
H	-1.436825	1.348511	0.585561
H	0.078692	1.978455	0.466238
Cl	3.360556	0.0	0.0
