17

C	-0.398627	-0.011407	-1.474665
C	0.0	0.0	0.0
F	0.266543	0.959666	-2.141076
H	1.097928	0.0	0.0
C	-0.204226	-1.298514	-2.155682
N	-0.068291	-2.325748	-2.708629
N	-1.890215	0.320491	-1.610041
O	-2.197007	1.388036	-2.110248
O	-2.655294	-0.531767	-1.167851
C	-0.482524	-1.202025	0.792082
H	-0.198867	-2.14041	0.312689
H	-1.56653	-1.19048	0.926125
H	0.0071	-1.17141	1.768199
N	-0.494698	1.26535	0.545591
H	0.291112	1.892525	0.669141
H	-0.91309	1.108282	1.45321
Cl	3.354079	0.0	0.0
