17

C	-0.434864	0.013039	-1.479233
C	0.0	0.0	0.0
F	-0.013996	-1.1013	-2.127023
H	1.094656	0.0	0.0
C	-1.89777	0.118471	-1.619241
N	-3.071646	0.13987	-1.675177
N	0.158246	1.211716	-2.221225
O	1.05229	0.995531	-3.019614
O	-0.333139	2.299524	-1.929332
C	-0.504243	-1.284498	0.642004
H	-0.082052	-1.326794	1.645899
H	-1.597216	-1.289708	0.724447
H	-0.178872	-2.165921	0.089198
N	-0.444598	1.148671	0.760288
H	-1.415972	1.378566	0.581922
H	0.125994	1.954666	0.543342
Cl	3.360029	0.0	0.0
