17

C	-0.55169	0.017418	-1.41582
C	0.0	0.0	0.0
F	-1.916463	0.119382	-1.381426
H	1.093505	0.0	0.0
C	-0.034703	1.107458	-2.248739
N	0.300072	1.981762	-2.955284
N	-0.234784	-1.298302	-2.122512
O	-1.141117	-2.119096	-2.209073
O	0.920004	-1.424252	-2.505009
C	-0.475553	-1.237165	0.757118
H	-0.057225	-2.155081	0.339447
H	-1.566639	-1.315558	0.761541
H	-0.117436	-1.155758	1.784722
N	-0.425617	1.268628	0.581508
H	-1.291829	1.161295	1.09501
H	0.298922	1.599461	1.206128
Cl	3.367207	0.0	0.0
