17

C	-0.360111	-0.022865	-1.496714
C	0.0	0.0	0.0
F	0.049817	1.123639	-2.096756
H	1.097447	0.0	0.0
C	0.160169	-1.178339	-2.231427
N	0.56331	-2.102882	-2.832605
N	-1.884544	-0.056355	-1.637678
O	-2.457603	1.028341	-1.648409
O	-2.421457	-1.159576	-1.632446
C	-0.517244	-1.225185	0.732129
H	-1.606422	-1.209129	0.838493
H	-0.071314	-1.214913	1.726467
H	-0.228073	-2.151937	0.232
N	-0.418613	1.225828	0.650321
H	-1.361627	1.494385	0.401836
H	0.208125	1.970775	0.382086
Cl	3.323264	0.0	0.0
