16

C	0.0	0.0	0.0
C	-0.281499	-0.015162	-1.531512
Br	1.93647	0.0	0.0
H	-1.316991	-0.308113	-1.680321
H	0.336753	-0.834329	-1.903509
N	-0.405911	1.207984	0.78573
O	-0.383606	1.150113	2.012087
O	-0.520767	2.25873	0.146342
N	-0.44409	-1.299618	0.605453
O	-0.44662	-1.435067	1.828365
O	-0.522031	-2.243456	-0.1958
C	0.02005	1.237967	-2.350123
H	-0.022908	0.956948	-3.408966
H	1.014243	1.638998	-2.150159
H	-0.707724	2.023929	-2.166701
H	-1.986691	0.0	0.0
