16

C	0.0	0.0	0.0
C	-0.347626	0.027733	-1.515651
Br	1.908904	0.0	0.0
H	-1.269734	-0.527433	-1.643722
H	0.44212	-0.549916	-2.004671
N	-0.400781	1.166945	0.86182
O	-0.558783	1.01817	2.068862
O	-0.320307	2.268589	0.308219
N	-0.425304	-1.337803	0.559396
O	-0.395652	-1.528535	1.774026
O	-0.500883	-2.24662	-0.280612
C	-0.48057	1.373054	-2.213544
H	-1.346718	1.918685	-1.844354
H	-0.620696	1.172738	-3.282731
H	0.40036	2.001424	-2.090479
H	-2.020787	0.0	0.0
