16
Coordinates from ORCA-job run
  C   0.74244104733990      0.03559916763524      0.43888968499596
  C   -0.76990689940949      0.15329653999758      0.33314081971576
  Cl  1.17740948105856     -0.34124162434994      2.07651231840909
  H   -1.10117914651167      0.96035475796680      0.98664763165911
  N   1.34141063369254     -0.96847560924106     -0.55049245878360
  O   0.79475306287400     -0.96736770196807     -1.64362345248980
  O   2.30846440102555     -1.61022248065268     -0.18908535958334
  N   1.37356265789232      1.40819138103264      0.08823275420574
  O   2.23628005342779      1.41237376553960     -0.77190393747930
  O   0.94744346663643      2.33889778662948      0.74773808014795
  N   -1.44944967377892     -1.10404188108912      0.77193564336872
  O   -2.52111144759368     -0.94552161226347      1.34440319513633
  O   -0.89517614422744     -2.16081639428743      0.49332527522719
  N   -1.27280591665098      0.49803859504577     -1.05852090303789
  O   -2.12601977216824     -0.22417746094734     -1.54336391331670
  O   -0.78611580360668      1.51611277095199     -1.52483537817524
