16
Coordinates from ORCA-job run
  C   0.77095317481755     -0.00013190696492      0.45648248601508
  C   -0.74968557169058      0.15845102257610      0.41912492138176
  Cl  1.34992550867649     -0.14344881969651      2.08921676893608
  H   -1.08227379031264      0.68650214629954      1.31131096920634
  N   1.26756851518367     -1.17300901700659     -0.39721388210075
  O   0.50711168773146     -1.51720201083077     -1.29255306552935
  O   2.37392497139208     -1.60973243963482     -0.13707129745114
  N   1.40511769467042      1.27862759410600     -0.13757410070789
  O   0.93321436991324      2.30845325445136      0.31724710644666
  O   2.31223624455726      1.14150372547709     -0.93640789935362
  N   -1.44522732942662     -1.19462670439930      0.43239022544528
  O   -0.99172272719805     -1.97928295335196      1.25182952003802
  O   -2.39132936746603     -1.35236581553167     -0.31791612922256
  N   -1.27998895155957      0.94555837498444     -0.74634295060879
  O   -0.62401693198932      0.96266206303635     -1.77986852560464
  O   -2.35680749729935      1.48804148648567     -0.53165414689049
