16
Coordinates from ORCA-job run
  C   0.82641067244775     -0.23204565402372      0.25713540926068
  C   -0.66018081279595     -0.56051451692215      0.11214023861003
  Cl  1.62391706302609     -1.36811680911139      1.30351091021762
  H   -0.80388600070629     -1.63706080221497      0.18860486304759
  N   1.48736906831122     -0.35819154753254     -1.13481203344357
  O   1.19079116439230     -1.38801018685724     -1.71928789865737
  O   2.24843084562285      0.52512344712238     -1.48171670264881
  N   1.07431722067380      1.20481125694861      0.73154243144316
  O   2.15906062969777      1.43613125760817      1.23378477372922
  O   0.15975558233319      1.98683412414829      0.50701822817635
  N   -1.27776923027236     -0.15505911136118     -1.19677154737585
  O   -2.25282178003047     -0.82417719748873     -1.51531331931088
  O   -0.78347273373636      0.78668066089216     -1.80304455451903
  N   -1.47479734481379      0.06574906061197      1.23417857637379
  O   -0.98376083359623     -0.07509633839218      2.34407871037946
  O   -2.53236351055352      0.59294235657252      0.93995191471761
