16
Coordinates from ORCA-job run
  C   0.69270204394014     -0.28976604696360      0.16146333009953
  C   -0.71502696413644      0.17558827093362     -0.16818040617041
  Cl  0.78159005251853     -1.80344874876527      0.95506423127244
  H   -0.69332362152357      0.99680388973951     -0.88113731036793
  N   1.51850781592121     -0.30323193886079     -1.17752004309201
  O   2.18224659868977     -1.28962927234867     -1.42006412118627
  O   1.42122375740061      0.73108868122495     -1.81977922512865
  N   1.41038923540957      0.82048589504898      0.95694776213025
  O   0.94013107796016      1.94186206527960      0.82001961464638
  O   2.40679011132051      0.48914639995240      1.57440426700868
  N   -1.49038099049871      0.64113178753488      1.02587654584455
  O   -1.11010612761177      0.28886690325256      2.13457622433459
  O   -2.46745050646831      1.32518325652096      0.74932338678658
  N   -1.46322839711993     -0.96831327254053     -0.80859733151320
  O   -2.44667562240804     -1.41167672964492     -0.23747259112236
  O   -0.96838846339373     -1.34409114036368     -1.86392433354217
