16
Coordinates from ORCA-job run
  C   0.69866576743811     -0.27828029395999      0.15527929664603
  C   -0.72080418021833      0.21856517412836     -0.05770352506046
  Cl  0.81833894044995     -1.79571408512839      0.93769595573636
  H   -0.72511286744107      1.27387750338851     -0.32109774624540
  N   1.43674591425769     -0.27011610421457     -1.20043618706183
  O   0.96014243658978      0.47681325478031     -2.04418194648124
  O   2.45113773820582     -0.94061337928727     -1.27078896363239
  N   1.48047567317366      0.83092588324614      0.94853955958602
  O   1.35721260321773      1.94884719795194      0.47209071669837
  O   2.14297832901728      0.47983408689668      1.90271611754001
  N   -1.48384219418005      0.06377738853866      1.23520586934947
  O   -1.02482651526322      0.72867902157921      2.15539583482477
  O   -2.44347132207024     -0.69041094407455      1.25606539345170
  N   -1.45925842390699     -0.51298014487445     -1.13610656801711
  O   -2.45035311361632      0.07583610206529     -1.54833471396834
  O   -1.03802878565380     -1.60804066103588     -1.48433909336596
