13

C	0.0	0.0	0.0
C	-0.576097	-0.151748	-1.380913
F	1.350351	0.0	0.0
H	-1.641747	0.118887	-1.350966
H	-0.391172	-0.770337	0.664096
H	-0.504325	-1.191466	-1.70148
N	-0.382342	1.318888	0.648741
O	-0.063347	1.405679	1.832287
O	-0.903165	2.189368	-0.032987
N	0.107558	0.642436	-2.441241
O	-0.157236	0.306856	-3.594355
O	0.852223	1.567682	-2.131201
Br	-3.645085	0.0	0.0
