13

C	0.0	0.0	0.0
C	-0.59056	-0.237934	-1.361355
F	1.350319	0.0	0.0
H	-1.667384	-0.010786	-1.318959
H	-0.389422	-0.729349	0.71045
H	-0.476543	-1.28625	-1.637031
N	-0.382585	1.354597	0.571153
O	-0.008298	1.532352	1.728549
O	-0.970073	2.159091	-0.136467
N	0.03725	0.541112	-2.464662
O	0.792796	1.472233	-2.202404
O	-0.269332	0.17925	-3.599474
Br	-3.690423	0.0	0.0
