13

C	0.0	0.0	0.0
C	-0.564068	-0.099769	-1.391884
F	1.350282	0.0	0.0
H	-1.599662	0.266985	-1.381799
H	-0.38765	-0.789245	0.640727
H	-0.577906	-1.137528	-1.720391
N	-0.369782	1.295876	0.70612
O	-0.913758	2.19241	0.081924
O	-0.019288	1.329885	1.883768
N	0.232305	0.63609	-2.411552
O	0.808544	1.671009	-2.08991
O	0.228089	0.153307	-3.543117
Br	-3.62091	0.0	0.0
