16

C	-0.525529	-0.00887	-1.406817
C	0.0	0.0	0.0
Cl	0.135903	1.300922	-2.347043
H	1.094575	0.0	0.0
N	-0.179941	-1.356692	-2.05264
O	0.964594	-1.489064	-2.449315
O	-1.072855	-2.195196	-2.059215
N	-2.069985	0.046395	-1.505978
O	-2.690829	-0.116452	-0.462144
O	-2.551161	0.215715	-2.617676
N	-0.29106	-1.237597	0.688038
H	0.531958	-1.466461	1.240492
H	-1.116454	-1.181886	1.266116
C	-0.425201	1.218836	0.674521
N	-0.765278	2.195756	1.235864
H	2.527637	0.0	0.0
