16

C	-0.413131	-0.141702	-1.434168
C	0.0	0.0	0.0
Cl	-2.152432	-0.460674	-1.699798
H	1.093033	0.0	0.0
N	-0.014639	1.051585	-2.287854
O	0.638796	1.933811	-1.742666
O	-0.338647	0.997742	-3.4687
N	0.412674	-1.289985	-1.995269
O	1.543069	-0.957836	-2.361432
O	-0.010803	-2.433254	-1.820975
N	-0.309018	-1.154583	0.822347
H	-1.119145	-1.659888	0.489246
H	0.502329	-1.765033	0.79613
C	-0.531684	1.216103	0.592062
N	-0.974459	2.166922	1.124552
H	2.484075	0.0	0.0
