16

C	-0.552081	-0.028447	-1.39379
C	0.0	0.0	0.0
Cl	-2.325281	-0.143246	-1.500997
H	1.092104	0.0	0.0
N	-0.099926	1.199359	-2.181972
O	0.773569	1.87875	-1.645563
O	-0.58341	1.370716	-3.29626
N	0.047149	-1.210944	-2.162105
O	0.982875	-1.787914	-1.614623
O	-0.402667	-1.42909	-3.283733
N	-0.372496	-1.2347	0.692117
H	0.496338	-1.614339	1.066223
H	-1.00694	-1.041827	1.456983
C	-0.458322	1.19032	0.699193
N	-0.8071	2.116559	1.335654
H	2.520539	0.0	0.0
