16

C	-0.563902	-0.011311	-1.392475
C	0.0	0.0	0.0
Cl	-2.294592	0.366692	-1.515357
H	1.092965	0.0	0.0
N	0.147976	0.981251	-2.300688
O	0.113451	0.742359	-3.50351
O	0.666083	1.94334	-1.751319
N	-0.284856	-1.388864	-1.997793
O	-1.21984	-2.129573	-2.246708
O	0.905418	-1.611869	-2.15069
N	-0.304893	-1.266034	0.651307
H	-1.071202	-1.187576	1.306384
H	0.544589	-1.539524	1.14355
C	-0.433467	1.167616	0.746491
N	-0.737953	2.084687	1.418496
H	2.513145	0.0	0.0
