16

C	-0.405909	-0.003974	-1.452719
C	0.0	0.0	0.0
Cl	0.122318	-1.448608	-2.256245
H	1.098101	0.0	0.0
N	-1.918585	0.137858	-1.709421
O	-2.260461	0.30332	-2.873742
O	-2.657071	0.055063	-0.735288
N	0.186581	1.234573	-2.134483
O	1.194932	1.111327	-2.808234
O	-0.407071	2.276292	-1.865043
N	-0.355032	-1.23835	0.663136
H	-1.154009	-1.113246	1.269379
H	0.45804	-1.522328	1.205082
C	-0.432042	1.191239	0.710623
N	-0.716097	2.114276	1.384014
H	2.534277	0.0	0.0
