16

C	0.0	0.0	0.0
C	-0.428858	-0.050154	-1.501682
Br	1.930114	0.0	0.0
H	-1.417449	-0.49323	-1.521407
H	-0.29254	0.908741	0.51284
N	-0.661557	-1.115726	0.710774
O	-0.650758	-1.057231	1.960422
O	-0.685584	-2.2001	0.070111
C	0.46767	-0.768797	-2.496187
H	0.653272	-1.77347	-2.117728
H	1.41251	-0.257422	-2.665484
H	-0.072421	-0.842196	-3.44493
N	-0.633937	1.355452	-1.987247
O	0.367	2.056979	-2.142182
O	-1.78392	1.7269	-2.224039
H	-2.119726	0.0	0.0
