16

C	0.0	0.0	0.0
C	-0.346887	-0.154608	-1.509751
Br	1.952309	0.0	0.0
H	0.599675	-0.138648	-2.0516
H	-0.267708	0.966882	0.397695
N	-0.437284	-1.013906	0.963326
O	-0.470514	-2.194295	0.588247
O	-0.464098	-0.653577	2.14959
C	-1.239314	0.923862	-2.101771
H	-0.990253	1.888651	-1.652186
H	-1.058184	0.986317	-3.182022
H	-2.285945	0.711178	-1.907093
N	-0.85956	-1.521537	-1.915952
O	-0.001845	-2.330902	-2.264593
O	-2.068684	-1.72508	-1.94877
H	-1.910107	0.0	0.0
