16
Coordinates from ORCA-job run
  C   0.96321170467925     -0.17516846292057      0.50352131653150
  C   -0.56009572905779     -0.14354063848270      0.62260252756530
  Cl  1.67084860730441      0.82997229072250      1.80882641974531
  H   -0.82801010853615     -0.40027307914030      1.64822260952769
  H   1.25355864114585     -1.20233919027860      0.74182573964891
  C   1.55843950157982      0.22987719067504     -0.83163532116685
  H   1.16146902143297     -0.39437758491673     -1.63474309609129
  H   2.64039321866279      0.09503984493343     -0.79734769364251
  H   1.34261429802413      1.27174581747055     -1.06085723556923
  C   -1.25594536445925     -1.05493374970607     -0.37319456424890
  H   -1.09451114119130     -0.71599186104049     -1.39510173997377
  H   -2.33051137864078     -1.06718792903921     -0.17982044208606
  H   -0.88008726763091     -2.07525630519955     -0.26862051865223
  N   -1.08076541596714      1.25288399818929      0.45017953884661
  O   -1.02230863069698      1.73767284507524     -0.67954498942139
  O   -1.53729995664891      1.81087681365818      1.44468744898692
