16
Coordinates from ORCA-job run
  C   0.82260207678459      0.59165791460632     -0.07895543816024
  C   -0.47658723637620     -0.07091273503238      0.38501873947474
  Cl  0.66667655000473      1.38654869051742     -1.67361434504977
  H   -0.21859367320787     -0.77312864026833      1.18061112298115
  H   1.07836473047504      1.38984278790618      0.62180317806304
  C   1.95336255981258     -0.42276356344406     -0.14206813444284
  H   1.72206309947669     -1.22329672409245     -0.84708996839030
  H   2.12403787228117     -0.85857903655419      0.84598038809234
  H   2.87393835447132      0.06006897681957     -0.47093571043744
  C   -1.29470331124484     -0.76595910503785     -0.68869141397128
  H   -1.69515407192249     -0.03802341918679     -1.39264856956678
  H   -2.11896046807929     -1.31207680101400     -0.22567996718760
  H   -0.67299141696260     -1.47516817283392     -1.23745138480784
  N   -1.36082530266320      0.92818905620718      1.07262853700436
  O   -1.62629614145762      1.96050625295021      0.46353629079477
  O   -1.77793362139200      0.62409451845710      2.18955667560369
