16
Coordinates from ORCA-job run
  C   0.95626945154028     -0.17413040168438      0.51721419952587
  C   -0.56882111991743     -0.14626473139265      0.61337073164701
  Cl  1.64133351207676      0.82842313403255      1.83640837952756
  H   -0.85136490589461     -0.40535665399090      1.63448500000780
  H   1.24545862628710     -1.20130492370384      0.75673950419892
  C   1.57064659039564      0.23710447094335     -0.80737905025028
  H   1.18534463940520     -0.38303757261729     -1.61930884681650
  H   2.65207323263188      0.10248741966111     -0.75820651798329
  H   1.35801258601401      1.28006453825748     -1.03467159435245
  C   -1.24753657262428     -1.05816020645610     -0.39368630318175
  H   -0.86986630901841     -2.07736547283095     -0.28479190273740
  H   -2.32466608503492     -1.07416424951053     -0.21528395432572
  H   -1.07314306288738     -0.71751501859238     -1.41292965854392
  N   -1.09058876582335      1.24874653853372      0.43531153246553
  O   -1.56259755447333      1.80467464007163      1.42384116914703
  O   -1.01855426267716      1.73479848927916     -0.69311268832842
