16

C	0.0	0.0	0.0
C	-0.551398	0.453822	-1.364084
Br	1.924994	0.0	0.0
H	-1.599727	0.687764	-1.151071
H	-0.356821	-0.98417	0.292854
N	-0.393058	0.914372	1.133803
O	-0.43505	2.120055	0.900832
O	-0.586911	0.38613	2.222303
C	-0.527852	-0.734528	-2.312003
H	-0.925382	-0.411376	-3.275127
H	-1.163917	-1.532923	-1.925074
H	0.488379	-1.115462	-2.465441
N	0.069605	1.610926	-1.982702
H	-0.015233	2.399042	-1.353529
H	1.057138	1.439233	-2.134017
Br	-3.638574	0.0	0.0
