16

C	0.0	0.0	0.0
C	-0.619885	0.072408	-1.381808
Br	1.916393	0.0	0.0
H	-1.677648	0.286846	-1.168149
H	-0.348924	-0.876857	0.541363
N	-0.401699	1.16525	0.877642
O	-0.513656	2.268671	0.349988
O	-0.535113	0.926052	2.071005
C	-0.545449	-1.294962	-2.041024
H	-1.090383	-2.029911	-1.44572
H	0.491788	-1.609713	-2.183083
H	-1.030072	-1.250636	-3.020689
N	0.026999	1.070045	-2.237099
H	-0.139041	1.981923	-1.825567
H	-0.467123	1.057792	-3.123749
Br	-3.85309	0.0	0.0
