17

C	-0.675441	0.023735	-1.364996
C	0.0	0.0	0.0
Cl	-0.098742	1.362867	-2.374108
H	1.092769	0.0	0.0
N	-0.28108	-1.249938	-2.173684
O	-1.017187	-1.531681	-3.120332
O	0.709446	-1.883322	-1.835302
N	-2.083714	0.07744	-1.226197
H	-2.321607	-0.67922	-0.59071
H	-2.523216	-0.068697	-2.12613
N	-0.499168	-1.239442	0.661987
H	-0.452933	-1.05212	1.656824
H	0.207079	-1.950931	0.484041
N	-0.379968	1.201567	0.694706
H	-1.307078	1.143264	1.094579
H	0.319992	1.401368	1.398103
H	2.887661	0.0	0.0
