17

C	-0.367788	0.034437	-1.479181
C	0.0	0.0	0.0
Cl	-2.163539	-0.050283	-1.705318
H	1.100765	0.0	0.0
N	0.082978	1.370916	-2.074763
O	1.111709	1.359579	-2.739554
O	-0.573331	2.373608	-1.799508
N	0.244657	-1.008139	-2.232103
H	0.013749	-1.846093	-1.703102
H	1.251473	-0.867903	-2.115635
N	-0.386328	-1.32116	0.493815
H	-1.207866	-1.201222	1.075053
H	0.3731	-1.628849	1.095276
N	-0.47996	1.097938	0.815363
H	-1.19351	1.632499	0.336006
H	0.306643	1.71389	0.993985
H	2.787968	0.0	0.0
