17

C	-0.298731	-0.150158	-1.487091
C	0.0	0.0	0.0
Cl	-1.970814	-0.779155	-1.863004
H	1.100282	0.0	0.0
N	-0.276774	1.276381	-2.124861
O	0.818358	1.621624	-2.560295
O	-1.29116	1.958855	-2.124844
N	0.66683	-1.007386	-2.030854
H	0.689236	-0.975751	-3.039213
H	1.587365	-0.773577	-1.63022
N	-0.446548	-1.200659	0.726475
H	0.322965	-1.429256	1.353265
H	-0.499219	-1.975271	0.073321
N	-0.4879	1.224235	0.570968
H	-1.370928	1.035634	1.031164
H	0.18432	1.531973	1.264242
H	2.807128	0.0	0.0
