17

C	-0.691174	-0.001673	-1.35352
C	0.0	0.0	0.0
Cl	0.112285	1.251989	-2.453962
H	1.0935	0.0	0.0
N	-0.460316	-1.29895	-2.110259
O	-1.350924	-1.629289	-2.894831
O	0.59441	-1.884494	-1.933127
N	-2.068736	0.193922	-1.208848
H	-2.200625	0.983106	-0.58631
H	-2.541895	0.297449	-2.094774
N	-0.445633	-1.16917	0.716357
H	0.302736	-1.469581	1.330438
H	-1.29317	-0.982174	1.237088
N	-0.433663	1.260519	0.667419
H	0.144029	1.997091	0.262951
H	-0.086374	1.168045	1.617657
H	2.856364	0.0	0.0
