17

C	-0.565932	0.067717	-1.391582
C	0.0	0.0	0.0
Cl	-2.490826	0.297015	-1.208323
H	1.097544	0.0	0.0
N	-0.178123	1.299627	-2.188164
O	-0.593582	1.329803	-3.346698
O	0.555079	2.126752	-1.669282
N	-0.246935	-1.027664	-2.157737
H	-0.307176	-1.863595	-1.591011
H	-0.71893	-1.058789	-3.048214
N	-0.31266	-1.342549	0.505381
H	0.46417	-1.616322	1.100146
H	-1.166885	-1.331226	1.050405
N	-0.40991	1.129559	0.801606
H	0.363974	1.364803	1.413184
H	-1.23408	0.919368	1.35107
H	2.727732	0.0	0.0
