17

C	-0.496515	0.123893	-1.441031
C	0.0	0.0	0.0
F	-1.819486	0.484639	-1.435217
H	1.092074	0.0	0.0
C	0.318744	1.100147	-2.242441
H	1.365389	0.793501	-2.22689
H	0.226269	2.074385	-1.763531
H	-0.062429	1.149892	-3.26524
N	-0.43826	-1.239932	-2.111773
O	-1.488522	-1.739425	-2.502354
O	0.681221	-1.727975	-2.20994
C	-0.521257	-1.211568	0.646212
N	-0.971164	-2.135365	1.217401
N	-0.375872	1.229207	0.694288
H	-1.295216	1.151383	1.107895
H	0.308379	1.402696	1.419431
Cl	3.282903	0.0	0.0
