17

C	-0.358371	-0.034142	-1.480688
C	0.0	0.0	0.0
F	0.110368	1.125566	-2.033003
H	1.102542	0.0	0.0
C	0.212964	-1.213957	-2.217299
H	-0.00017	-1.114175	-3.283809
H	1.293303	-1.204499	-2.052332
H	-0.211947	-2.144315	-1.842821
N	-1.871755	0.017365	-1.648833
O	-2.472475	-0.999479	-1.313526
O	-2.37638	1.038561	-2.096611
C	-0.456514	-1.195497	0.705703
N	-0.769141	-2.152101	1.310907
N	-0.58798	1.200734	0.607264
H	-0.298087	1.217004	1.579821
H	-0.126054	1.99187	0.168717
Cl	3.298493	0.0	0.0
