17

C	-0.435702	0.146248	-1.468955
C	0.0	0.0	0.0
F	-1.737059	0.591804	-1.521368
H	1.09325	0.0	0.0
C	0.459577	1.069848	-2.249956
H	0.126318	1.120358	-3.288913
H	0.399448	2.06556	-1.809234
H	1.489616	0.718894	-2.182055
N	-0.433999	-1.216952	-2.139007
O	-1.506843	-1.687191	-2.500867
O	0.66901	-1.737863	-2.255206
C	-0.561229	-1.219213	0.59131
N	-1.048172	-2.181487	1.055823
N	-0.380089	1.156558	0.800671
H	-1.234841	1.578584	0.467483
H	0.377538	1.825807	0.79468
Cl	3.286617	0.0	0.0
