17

C	-0.388228	0.012873	-1.471343
C	0.0	0.0	0.0
F	0.137822	1.149302	-2.016419
H	1.102576	0.0	0.0
C	0.082556	-1.188516	-2.243852
H	1.163596	-1.263583	-2.104306
H	-0.403039	-2.092308	-1.878806
H	-0.144449	-1.049263	-3.303199
N	-1.9019	0.157902	-1.595979
O	-2.354367	1.200604	-2.049794
O	-2.555005	-0.812089	-1.221889
C	-0.462748	-1.204407	0.6843
N	-0.770854	-2.172384	1.273378
N	-0.561149	1.197237	0.645451
H	-0.070083	1.986246	0.235893
H	-0.2744	1.172027	1.618738
Cl	3.290695	0.0	0.0
