17

C	0.0	0.0	0.0
C	-0.341814	-0.051798	-1.529857
Cl	1.741121	0.0	0.0
H	0.512754	0.454781	-1.997265
N	-0.413532	1.283408	0.678303
O	-0.49086	2.249578	-0.068603
O	-0.459717	1.28703	1.897807
N	-0.331187	-1.333374	0.853615
O	0.243724	-2.32627	0.418225
O	-1.017305	-1.290856	1.850333
C	-1.471219	0.694122	-2.085893
N	-2.029518	1.278824	-2.944234
C	-0.368126	-1.47288	-2.106433
H	-0.504451	-1.382743	-3.188441
H	0.559771	-2.007874	-1.909665
H	-1.21332	-2.022043	-1.696389
Cl	-2.936455	0.0	0.0
