16

C	-0.36101	0.010341	-1.467542
C	0.0	0.0	0.0
F	-0.039313	-1.196758	-2.085299
H	1.097026	0.0	0.0
H	0.219576	0.791197	-1.969837
C	-1.803817	0.241679	-1.719146
N	-2.948829	0.445912	-1.884969
C	-0.572573	-1.20771	0.718
H	-1.671685	-1.202447	0.752902
H	-0.242839	-2.129964	0.235827
H	-0.198032	-1.224576	1.745633
C	-0.429993	1.314489	0.638755
H	-0.030356	1.356786	1.65542
H	0.000195	2.16458	0.098144
H	-1.519882	1.444587	0.686698
F	2.661082	0.0	0.0
