14
Coordinates from ORCA-job run
  C   0.59390573606435     -0.90451347950716     -0.45976709939001
  C   -0.69144847826773     -0.35590403315859      0.17634355455537
  Cl  0.37919075792404     -1.18575102952478     -2.17924669601653
  H   -1.48261380420115     -1.05741756371371     -0.11175437847075
  H   0.90464832748743     -1.83532647906602      0.01070580456400
  N   1.72589530944072      0.06775046488372     -0.20778564096840
  O   1.89974153052579      0.98323235789955     -1.00008874665462
  O   2.33689189483889     -0.13204367527854      0.83876442972735
  C   -1.06849104567645      1.05207803216507     -0.29381117899109
  H   -1.10174529513472      1.09582652568141     -1.38215942273351
  H   -0.35301723638180      1.79195184704851      0.06453883933219
  H   -2.05333756082700      1.30894423933729      0.09850935564824
  C   -0.57695657130140     -0.40355655998975      1.63670717197160
  N   -0.51366356449098     -0.42527064677701      2.80904400742615
