14
Coordinates from ORCA-job run
  C   0.55032764931731     -0.94148920537003     -0.43887790586678
  C   -0.71096832289488     -0.31406944026131      0.17251634998225
  Cl  0.34319958120086     -1.23279604549104     -2.15775348312734
  H   -1.53446070769677     -0.97761144818659     -0.11520002486293
  H   0.80125144663357     -1.88223900181587      0.04734813404605
  N   1.73173703071984     -0.03166716560398     -0.18267749703379
  O   2.31897567994735     -0.25465284493715      0.87272828149226
  O   1.96473317155158      0.86513870760536     -0.98132486873900
  C   -1.00858088924227      1.10345510629847     -0.32481827959724
  H   -1.97877109281441      1.42108663788424      0.05958081830248
  H   -0.25406879894669      1.80991313814625      0.02099076789740
  H   -1.03799520292070      1.12776270770844     -1.41405483051886
  C   -0.61708060633722     -0.34454932520131      1.63463952883880
  N   -0.56929893851759     -0.34928182077548      2.80790300918671
