14
Coordinates from ORCA-job run
  C   0.84011584811104     -0.68490074130847      0.10991344448853
  C   -0.63510947421884     -0.29087609972749      0.09024721729540
  Cl  1.06145184515934     -2.42414459490697     -0.01114681146084
  H   -1.07772347155180     -0.75120810818188     -0.79933913254170
  H   1.35814247397931     -0.32183571613429      0.99605378608839
  N   1.50277956691608     -0.00588071382708     -1.06144477096614
  O   2.36610476465596      0.82303258958807     -0.78803748965562
  O   1.08665224252689     -0.29513253626654     -2.17629529631931
  C   -0.81336368462474      1.23125031433009      0.04020914189806
  H   -0.29377323871708      1.71342069006583      0.87076312833895
  H   -0.43009648416690      1.63149377888440     -0.89931602551331
  H   -1.87311576853600      1.47941172359447      0.10728589739407
  C   -1.28336898119311     -0.84748967782068      1.27773502148609
  N   -1.80769563834017     -1.25614090828946      2.24537188946745
