14
Coordinates from ORCA-job run
  C   0.71465100997484     -0.19230819518602     -0.62737858222583
  C   -0.46457423559741     -0.08061891329875      0.32884730800795
  Cl  1.46616747281891      1.36425229400784     -0.96307208893250
  H   -0.75064655066745     -1.10304795299879      0.59759889491540
  H   0.39922877681420     -0.61929762694025     -1.58081830908026
  N   1.77899129723953     -1.14547112551899     -0.11085957373196
  O   2.65226051443638     -1.44512706598505     -0.91412561746177
  O   1.66629146120313     -1.55526214665287      1.04001332834126
  C   -1.65011352221097      0.61527056940062     -0.34973807953426
  H   -1.39980177620992      1.64227221447371     -0.61520073484558
  H   -1.93833284082580      0.07452701477956     -1.25425871907858
  H   -2.50420260573625      0.63265247656458      0.32815371995026
  C   -0.09763897413843      0.61419280807332      1.56377824248108
  N   0.12771997289924      1.19896564928111      2.55606021119479
