14
Coordinates from ORCA-job run
  C   0.57405599905947     -0.90042913669153     -0.49218330775443
  C   -0.69126038310641     -0.35328178281942      0.18432528799202
  Cl  0.31807431650583     -1.14064901033077     -2.21238885199868
  H   -1.49542720069983     -1.04068764726934     -0.10165848204422
  H   0.88433801934433     -1.84505320234209     -0.04980804285490
  N   1.72174897587693      0.05377641603016     -0.24379074287078
  O   1.88968157168410      0.98433223450893     -1.02001395198572
  O   2.35361380496840     -0.17594567499636      0.78430362295093
  C   -1.06386930241090      1.06828152240185     -0.24746596003817
  H   -1.12059293377879      1.13544720545738     -1.33372368972600
  H   -2.03724299547883      1.32665290127823      0.17168721338657
  H   -0.33286558405548      1.79309043658391      0.11057338773704
  C   -0.54596161022861     -0.43223872938646      1.64047212674746
  N   -0.45729267768020     -0.47429553242449      2.81067139045888
