14
Coordinates from ORCA-job run
  C   0.69753852978160     -0.24278609896551     -0.68911065737935
  C   -0.45114360350607     -0.07258732554025      0.30652419927578
  Cl  1.29026581298703      1.27546841578714     -1.32023030562560
  H   -0.69784267409242     -1.08345042846284      0.64927465204741
  H   0.38018484143333     -0.87573923190216     -1.51785614500869
  N   1.79994186383763     -1.03211860228100      0.00337738870041
  O   2.83994715959121     -0.47755333317502      0.31817068866676
  O   1.48922029016422     -2.20143783710619      0.21327421542238
  C   -1.68543331770853      0.55816562859898     -0.34122105862310
  H   -1.99664821980462     -0.03323904810434     -1.20540349672833
  H   -2.50701712959639      0.58066532079130      0.37588473507957
  H   -1.47979135540491      1.57788461901996     -0.66505835247809
  C   -0.00461200345682      0.69878934107578      1.46831345423292
  N   0.32538980577475      1.32793858026414      2.40306068241793
