14
Coordinates from ORCA-job run
  C   0.69019846693111     -0.34086576689346     -0.65272550382005
  C   -0.44138041206242     -0.03000987499895      0.32807685590568
  Cl  1.21150102240703      1.05632104994727     -1.56447108625861
  H   -0.64236189383843     -0.96857845342536      0.85643323229109
  H   0.37826051957424     -1.12345928448128     -1.34444955017225
  N   1.83687825142943     -0.95535125415561      0.13845870123370
  O   2.86254734877871     -0.31952846018635      0.31694857437535
  O   1.57397038070517     -2.07605533004711      0.56612757878786
  C   -1.71243281227177      0.43052306015784     -0.38854302852093
  H   -2.51993775173171      0.55188058203880      0.33448574889106
  H   -2.01678778347763     -0.31673299824244     -1.12491322341319
  H   -1.55385854438066      1.38228026692430     -0.89442080004348
  C   0.00211586360462      0.95515193979694      1.31681826692351
  N   0.33128734433233      1.75542452356543      2.11017423382025
