14
Coordinates from ORCA-job run
  C   0.56669525793424     -0.91547914337707     -0.47211046875872
  C   -0.68957177263865     -0.34473928816949      0.20177149639420
  Cl  0.29215027378217     -1.20479780188462     -2.18161866292020
  H   -1.49829319088763     -1.03829626456571     -0.05524827908192
  H   0.87948006631071     -1.84750606327580     -0.00542721703359
  N   1.71986608247413      0.04195374724498     -0.26343873303069
  O   2.36215128606570     -0.16048066289117      0.76372719085388
  O   1.88056237822395      0.95035826655039     -1.06665068348976
  C   -1.06406491802467      1.06414294560383     -0.26736223430501
  H   -0.32585892916653      1.79734704315444      0.05722346324451
  H   -2.03044648091831      1.33833396025988      0.15785544072527
  H   -1.13664264672455      1.09812672680767     -1.35424635596852
  C   -0.52836701728971     -0.38324279086750      1.65784286321772
  N   -0.42766038914084     -0.39672067458985      2.82768218015282
