14
Coordinates from ORCA-job run
  C   0.91702104191997     -0.58248816833243      0.08406050140123
  C   -0.58240979088481     -0.32861634694730      0.22411897753845
  Cl  1.31074987164172     -2.29217354197924      0.18518369225745
  H   -1.08526095640888     -0.96376464711634     -0.51266936947274
  H   1.50313455208288     -0.03858250527473      0.82305200329290
  N   1.34141535636513     -0.04193847529195     -1.25749250483358
  O   2.13435625296473      0.89504145078761     -1.23604236998538
  O   0.81871687430420     -0.54186232099424     -2.24561895853470
  C   -0.93138213421852      1.14395470637353     -0.02328541293965
  H   -0.35801234928594      1.79799711356048      0.63700318852434
  H   -1.99251988128153      1.30754285638349      0.16773453533038
  H   -0.72679670700778      1.41713194049978     -1.05935467917362
  C   -1.00231634139965     -0.74057954416058      1.56353304949181
  N   -1.34569578879151     -1.03166251750809      2.64777734710312
