14
Coordinates from ORCA-job run
  C   0.58215707891134     -0.89099478582555     -0.49924033153343
  C   -0.68821277707740     -0.35895149495814      0.18033947715064
  Cl  0.33077704736790     -1.11894378613374     -2.22166613641376
  H   -1.48645912576999     -1.05026991423597     -0.11284295136319
  H   0.89891160996932     -1.83676656610806     -0.06389053084520
  N   1.72194582089593      0.06994508384263     -0.24110360860075
  O   2.35488351742457     -0.16408763575833      0.78518691084943
  O   1.88111331209602      1.01000958645120     -1.00745207009046
  C   -1.07201356439386      1.06289820003436     -0.23953066537882
  H   -1.13229813073081      1.13715517771733     -1.32516784556443
  H   -2.04603390500387      1.31096698776138      0.18423355633418
  H   -0.34539528291245      1.79073148923063      0.12126045747790
  C   -0.54344721826271     -0.45171214179071      1.63564087372967
  N   -0.45592838251400     -0.50898020022703      2.80523286424823
