14
Coordinates from ORCA-job run
  C   0.54245322235448     -0.92910925198470     -0.47229333104310
  C   -0.70787778459431     -0.31893471865107      0.17778396643976
  Cl  0.30212132783940     -1.18133957552175     -2.19287411628905
  H   -1.53683876766622     -0.97446767737933     -0.11232170815330
  H   0.80518251734051     -1.88001328418088     -0.01285967837866
  N   1.72610390311227     -0.02137190064598     -0.21817196419928
  O   1.94564348765324      0.89004932467120     -1.00386933409409
  O   2.33001137963561     -0.26232052866099      0.82385458073006
  C   -1.01197297843052      1.11161474266113     -0.27664010238624
  H   -1.97791833133211      1.41795839462309      0.12700563987251
  H   -0.25404407581181      1.80855397514875      0.08078517825172
  H   -1.05277033776425      1.16654203785234     -1.36431376701697
  C   -0.58833029671963     -0.38890052240985      1.63676661886753
  N   -0.52276326561666     -0.43826101552194      2.80814801739912
