15

C	-0.502224	-0.119217	-1.424704
C	0.0	0.0	0.0
Cl	-0.303423	1.372876	-2.413754
H	1.096483	0.0	0.0
H	0.060185	-0.897125	-1.945315
H	-1.57238	-0.351979	-1.45822
C	-0.415383	-1.277434	0.728974
H	0.045813	-1.29441	1.71991
H	-0.058452	-2.165163	0.197387
H	-1.504751	-1.3545	0.847926
C	-0.516858	1.230978	0.725427
H	-0.132103	2.144395	0.269383
H	-1.614862	1.277263	0.724523
H	-0.173469	1.212788	1.763714
H	3.040337	0.0	0.0
