14

C	-0.493524	-0.02234	-1.43534
C	0.0	0.0	0.0
Cl	-2.28864	0.156934	-1.496836
H	1.093708	0.0	0.0
H	-0.078687	0.825235	-1.978744
C	-0.130761	-1.274994	-2.083128
N	0.126361	-2.267861	-2.652871
N	-0.483926	-1.080394	0.771392
H	-1.414855	-0.908278	1.126359
H	0.145018	-1.255143	1.542761
N	-0.369947	1.375275	0.559181
O	-0.85904	1.422647	1.68569
O	-0.128448	2.348287	-0.14881
Cl	3.218739	0.0	0.0
