14

C	-0.613869	0.001098	-1.407098
C	0.0	0.0	0.0
Cl	0.016087	-1.367862	-2.352889
H	1.090013	0.0	0.0
H	-1.691327	-0.157663	-1.302027
C	-0.40891	1.243937	-2.145737
N	-0.317836	2.243945	-2.75348
N	-0.469714	-1.129247	0.727164
H	-1.368054	-0.940498	1.152335
H	0.212899	-1.385411	1.42655
N	-0.481845	1.311505	0.620172
O	-1.630479	1.302855	1.080767
O	0.258198	2.285696	0.585331
Cl	3.28909	0.0	0.0
