14

C	-0.538954	0.107467	-1.429172
C	0.0	0.0	0.0
Cl	0.208017	1.341303	-2.468753
H	1.098901	0.0	0.0
H	-0.287534	-0.854288	-1.875985
C	-1.995841	0.246108	-1.426444
N	-3.166359	0.337451	-1.395762
N	-0.442278	-1.23924	0.556183
H	0.233084	-1.551642	1.240991
H	-1.342519	-1.145833	1.008949
N	-0.436832	1.191246	0.836592
O	-0.672311	0.98047	2.025208
O	-0.496004	2.288092	0.290907
Cl	3.233442	0.0	0.0
