14

C	-0.594584	0.082677	-1.401233
C	0.0	0.0	0.0
Cl	-0.21766	-1.42711	-2.29121
H	1.099183	0.0	0.0
H	-1.681296	0.130652	-1.319428
C	-0.118296	1.214197	-2.190552
N	0.199335	2.102786	-2.889167
N	-0.545666	-1.155275	0.710108
H	-0.220037	-1.05566	1.66677
H	-0.057811	-1.965081	0.345452
N	-0.455754	1.195248	0.782465
O	-0.151794	1.207844	1.972077
O	-1.100676	2.075036	0.209264
Cl	3.256092	0.0	0.0
