14

C	-0.586533	0.022635	-1.409875
C	0.0	0.0	0.0
Cl	-0.278953	-1.558547	-2.202318
H	1.095384	0.0	0.0
H	-1.670813	0.124606	-1.337739
C	-0.054983	1.073436	-2.273355
N	0.307139	1.884415	-3.040975
N	-0.557524	-1.114673	0.757693
H	-0.284269	-0.947784	1.721181
H	-0.040597	-1.938666	0.470561
N	-0.439156	1.243959	0.715337
O	-0.243031	1.275133	1.926488
O	-0.951812	2.153828	0.062217
Cl	3.250981	0.0	0.0
