14

C	-0.553099	0.209027	-1.415254
C	0.0	0.0	0.0
Cl	0.031104	-1.093254	-2.48737
H	1.10234	0.0	0.0
H	-1.641892	0.135344	-1.388173
C	-0.20972	1.510679	-1.978844
N	0.003614	2.567272	-2.444978
N	-0.4516	-1.200734	0.631404
H	-1.276192	-1.59773	0.204056
H	0.301059	-1.873024	0.651382
N	-0.527751	1.153234	0.825048
O	-1.712244	1.456424	0.636118
O	0.206677	1.659653	1.659567
Cl	3.291581	0.0	0.0
