18

C	-0.534575	-0.0279	-1.422884
C	0.0	0.0	0.0
Br	0.415907	-1.396206	-2.462193
H	1.092904	0.0	0.0
C	-2.024155	-0.258604	-1.563888
H	-2.282995	-1.220021	-1.11974
H	-2.556081	0.536669	-1.032532
H	-2.322669	-0.252871	-2.610085
N	-0.183822	1.288445	-2.135622
O	-0.83233	1.55658	-3.14851
O	0.722819	1.965771	-1.670385
C	-0.336394	-1.265794	0.79674
H	0.201672	-1.200595	1.744078
H	-1.403346	-1.403267	1.002288
H	0.052342	-2.137065	0.267436
C	-0.550455	1.158571	0.677567
N	-1.045178	2.07357	1.229641
F	2.521727	0.0	0.0
