18

C	-0.24812	-0.025213	-1.504164
C	0.0	0.0	0.0
Br	-0.03789	1.770605	-2.259482
H	1.097243	0.0	0.0
C	0.74229	-0.947801	-2.18403
H	0.728113	-0.825141	-3.265589
H	0.492276	-1.985537	-1.952534
H	1.715604	-0.700975	-1.73933
N	-1.689613	-0.402898	-1.847886
O	-1.87674	-1.112489	-2.833032
O	-2.57448	0.024637	-1.112748
C	-0.394942	-1.317186	0.678889
H	-0.11207	-1.253197	1.731609
H	-1.466049	-1.530685	0.618414
H	0.176867	-2.139173	0.246155
C	-0.561498	1.131794	0.709188
N	-0.985729	2.00957	1.367156
F	2.595427	0.0	0.0
