18

C	-0.247349	0.013212	-1.506615
C	0.0	0.0	0.0
Br	-0.084681	1.833898	-2.212268
H	1.097242	0.0	0.0
C	0.767093	-0.862895	-2.21175
H	0.7395	-0.71998	-3.290207
H	1.73537	-0.595858	-1.766968
H	0.555124	-1.912482	-1.996978
N	-1.679895	-0.394819	-1.848756
O	-2.576018	0.070047	-1.150997
O	-1.84951	-1.17405	-2.785733
C	-0.410117	-1.329018	0.644591
H	-0.085278	-1.312635	1.686705
H	0.11482	-2.154138	0.160876
H	-1.489732	-1.505594	0.616704
C	-0.561271	1.113972	0.736239
N	-0.990802	1.972688	1.415416
F	2.597911	0.0	0.0
