18

C	-0.410496	-0.0107	-1.474458
C	0.0	0.0	0.0
Br	-2.344491	0.042592	-1.766318
H	1.096364	0.0	0.0
C	0.230387	1.124892	-2.248333
H	0.008536	1.038118	-3.316351
H	-0.162437	2.075514	-1.884949
H	1.307758	1.078164	-2.063268
N	0.098326	-1.327452	-2.089541
O	-0.698457	-2.157388	-2.519553
O	1.32397	-1.429426	-2.099553
C	-0.494372	-1.212454	0.784113
H	-0.086248	-2.125776	0.345696
H	-1.585258	-1.283815	0.813832
H	-0.115136	-1.142921	1.805383
C	-0.445168	1.240907	0.612294
N	-0.791264	2.240688	1.128095
F	2.523756	0.0	0.0
