18

C	-0.244019	0.050492	-1.505439
C	0.0	0.0	0.0
Br	-2.140318	0.353982	-2.001561
H	1.096267	0.0	0.0
C	0.638072	1.106555	-2.133136
H	0.292202	2.088531	-1.806513
H	1.643739	0.919984	-1.735836
H	0.610981	1.055753	-3.22225
N	0.10909	-1.322398	-2.082431
O	1.174473	-1.415436	-2.685283
O	-0.669447	-2.249468	-1.877136
C	-0.539656	-1.196071	0.774748
H	-0.359429	-1.024103	1.837903
H	0.003385	-2.096247	0.490487
H	-1.609132	-1.357672	0.615206
C	-0.445896	1.249604	0.586961
N	-0.796413	2.248007	1.101748
F	2.564605	0.0	0.0
