18

C	-0.533234	0.014175	-1.424186
C	0.0	0.0	0.0
Br	0.367222	-1.377524	-2.477028
H	1.09282	0.0	0.0
C	-2.030071	-0.15381	-1.56929
H	-2.328979	-1.106196	-1.130769
H	-2.527702	0.660998	-1.034201
H	-2.330433	-0.126024	-2.614388
N	-0.125292	1.33324	-2.104056
O	-0.848035	1.729575	-3.019412
O	0.891838	1.884142	-1.710683
C	-0.394082	-1.247328	0.794305
H	-0.039852	-2.138351	0.273328
H	0.131254	-1.201904	1.750566
H	-1.468812	-1.336405	0.988057
C	-0.503193	1.18781	0.66993
N	-0.931835	2.140285	1.213791
F	2.520789	0.0	0.0
