14

C	-0.531076	-0.005296	-1.435247
C	0.0	0.0	0.0
Br	0.056276	1.581771	-2.38961
H	1.091482	0.0	0.0
H	-0.116624	-0.85695	-1.971857
C	-1.989345	-0.059539	-1.449564
N	-3.163028	-0.109694	-1.404298
N	-0.380232	-1.376896	0.570751
O	-0.169286	-2.35601	-0.142152
O	-0.849395	-1.41827	1.705974
N	-0.489953	1.073658	0.776878
H	0.16419	1.279816	1.518616
H	-1.397783	0.874541	1.174938
Cl	3.243762	0.0	0.0
