14

C	-0.522536	0.021324	-1.439825
C	0.0	0.0	0.0
Br	0.061912	1.628146	-2.35878
H	1.091499	0.0	0.0
H	-0.098458	-0.818129	-1.988211
C	-1.979717	-0.041376	-1.466936
N	-3.153436	-0.098391	-1.443667
N	-0.386692	-1.392054	0.531941
O	-0.932352	-1.457607	1.632211
O	-0.114104	-2.355697	-0.179589
N	-0.498671	1.053793	0.795544
H	0.142917	1.240807	1.552992
H	-1.415363	0.847941	1.171166
Cl	3.246621	0.0	0.0
