16
Coordinates from ORCA-job run
  C   0.41199118102009      0.37159464907663      0.37275526753852
  C   -0.48311148054072      0.29676848965012     -0.88347673174318
  Br  0.87017742229984      2.25207632286604      0.66605505587009
  H   0.08828910842181      0.67237704990003     -1.73870361758350
  N   -0.39219279038662     -0.06251960945009      1.50646890868385
  H   0.02686482230872      0.24729926650314      2.37483722481291
  H   -0.42489392716360     -1.07867214780411      1.51790711583821
  C   1.71366064790201     -0.39531020778887      0.18268764569695
  H   2.34324530914579     -0.27880523522383      1.06638423103174
  H   1.49985715271121     -1.45955346507488      0.04486510864076
  H   2.26784929995860     -0.03215537568419     -0.68572082409976
  N   -1.67511866282252      1.09880080134080     -0.71351349067251
  H   -2.11417438399142      0.83198281968365      0.16075685664454
  H   -2.32151636345179      0.94439366873372     -1.47700184490953
  C   -0.77024486735938     -1.13850964475060     -1.11973124384951
  N   -1.04168246805200     -2.27176738197755     -1.27556966189959
