16
Coordinates from ORCA-job run
  C   0.45712254322519      0.22285288690523      0.41056483161879
  C   -0.53497104982952      0.20240600179555     -0.77073012887307
  Br  0.97017428338384      2.23022524338481      0.52903928614518
  H   -0.05115901935430      0.70694593876977     -1.61506468729159
  N   -0.18765913197554     -0.24116673273968      1.55385862744435
  H   0.39924160948524     -0.24876161240115      2.37627141289400
  H   -1.05949871267941      0.25107918617934      1.70881352712102
  C   1.75235025877096     -0.50599471636939      0.12619582800703
  H   2.47486723797120     -0.32125651186592      0.92301722205208
  H   2.19281812125434     -0.16749172855761     -0.81277869196086
  H   1.55077171112012     -1.57871096624901      0.07061124146688
  N   -1.79119489677345      0.83996368323009     -0.37629831475777
  H   -1.83509315924747      1.78073062530364     -0.74319051925524
  H   -2.58989132673873      0.31841052168788     -0.71120177601496
  C   -0.77782008586888     -1.19200513647610     -1.16252187999408
  N   -0.96905838274358     -2.29822668259743     -1.50658597860178
