16
Coordinates from ORCA-job run
  C   0.42162109561461      0.24516423613776      0.40303442126247
  C   -0.54590667500589      0.10399592984657     -0.78671921737120
  Br  0.77731542124834      2.30635111521417      0.46023958856968
  H   -0.06686895278777      0.56474721673610     -1.66118262450551
  N   -0.18877446534097     -0.23332494679475      1.55369190224550
  H   0.35902082776328     -0.12399892740750      2.39487996923244
  H   -1.13746713646038      0.10591164118601      1.65426137808854
  C   1.78120099686673     -0.36879806156663      0.15254341414606
  H   1.66957842817193     -1.45372657485566      0.07935666271937
  H   2.22336817088486      0.01929403860537     -0.76567861098252
  H   2.45746781745744     -0.13885840845428      0.97791813290026
  N   -1.84054764659471      0.68549988419547     -0.44065400598762
  H   -2.55140899017519      0.37620436133491     -1.09185760458805
  H   -1.76594668878999      1.69466160662878     -0.49967140433061
  C   -0.72582557486493     -1.32512661723459     -1.07825377879866
  N   -0.86682662798738     -2.45799649357173     -1.35190822260014
