16
Coordinates from ORCA-job run
  C   0.53648047669187      0.50132986556932      0.34973017323983
  C   -0.73256487281793      0.35322701453898     -0.53430018643349
  Br  1.51125434363613      2.05900912398845     -0.33466452915886
  H   -1.29509484535985      1.28727326163119     -0.43918044145975
  N   0.21171636447779      0.76649938009204      1.73146452175165
  H   -0.44658421333655      0.04870739603249      2.02376444400437
  H   -0.25094760562194      1.66554801980260      1.81634097183803
  C   1.42778325802537     -0.72276254288535      0.26262252264108
  H   2.32270847263447     -0.55319670169272      0.86012978671335
  H   1.71532522045645     -0.94221145366203     -0.76689298763563
  H   0.89929248882790     -1.58368437721866      0.68418515183096
  N   -1.55040248085641     -0.73025191421273      0.01059274473628
  H   -2.51865451987360     -0.60135992601611     -0.25691891476119
  H   -1.24973598917508     -1.62092584090265     -0.36787023562099
  C   -0.40372740090485      0.15850655150305     -1.95636416696624
  N   -0.17584869680378     -0.08370785656787     -3.08363885471939
