16
Coordinates from ORCA-job run
  C   0.47735737748052      0.54635213954680      0.31507510234748
  C   -0.74699538819274      0.38089275355001     -0.60935802938684
  Br  1.54762007048311      2.03323866791700     -0.41679955472219
  H   -1.26799321757939      1.34211760414061     -0.59525607156795
  N   -0.03772563594639      0.96026326304366      1.59248369192076
  H   -0.75172513887567      0.29178135868751      1.86548711761048
  H   0.69992358503607      0.97693554886110      2.28659052161718
  C   1.36350754175143     -0.69167303017674      0.33177449051246
  H   2.22541261115462     -0.52043386812796      0.97964841284383
  H   1.73026830268581     -0.95008498658822     -0.66367343421944
  H   0.79365145703369     -1.53130191623623      0.74236971425161
  N   -1.63668365452318     -0.63324004087608     -0.04051942025090
  H   -1.37252116784574     -1.55650156631956     -0.36356922210184
  H   -2.58822135530661     -0.46576700060113     -0.34308251065076
  C   -0.35091422144352      0.07525296240102     -1.99352848868650
  N   -0.08596116591202     -0.25783188922180     -3.08864231951738
