16
Coordinates from ORCA-job run
  C   0.26163333676437      0.09540603244218      0.56669724938091
  C   -0.67992062140147     -0.22235383109728     -0.60760089840866
  Br  -0.28514650309455      1.82095950122755      1.34057354051178
  H   -0.35653417753293     -1.20416969494726     -0.98127776667866
  N   0.03038725308996     -0.90607434868846      1.58708049516611
  H   0.40729899895793     -1.79446039160456      1.26782865226696
  H   0.51004133051426     -0.65379285361965      2.44364990671202
  C   1.70148310925108      0.22848618476429      0.09558720028031
  H   1.80839997088497      1.00585253002971     -0.65844594110482
  H   2.35017889520204      0.44806706570302      0.94578735709624
  H   2.01384032120155     -0.72575290524121     -0.34431013500033
  N   -0.52155812734240      0.72667278361365     -1.69672396585633
  H   -1.03107899725552      0.40047335799994     -2.50937568098334
  H   -0.91991241239634      1.61823873160169     -1.42242461521665
  C   -2.07238040481329     -0.37570876747139     -0.14049638232703
  N   -3.21573197202967     -0.46484339471225      0.11345098416148
