16
Coordinates from ORCA-job run
  C   0.49343211526071      0.54239003507672      0.25888609589522
  C   -0.75175789766041      0.33565196383618     -0.63033560352409
  Br  1.52973287528788      2.01487764893163     -0.52481814109651
  H   -1.24199282145264      1.31071244863703     -0.70433458152538
  N   -0.00954993527975      0.99742832689946      1.53673171423398
  H   0.76393648786587      1.23777918187538      2.14619694309725
  H   -0.52423598315352      0.22400792239377      1.94732694469558
  C   1.37951846894360     -0.69278810845794      0.30801416667685
  H   2.22270656745999     -0.51763867009656      0.97900586868914
  H   1.76953325521399     -0.95972498436954     -0.67589025653950
  H   0.78900541133410     -1.52572203896595      0.70110927135470
  N   -1.63500695577588     -0.63230379603046      0.03077549517603
  H   -2.55220777171996     -0.23067389095099      0.16698721370457
  H   -1.73406464110439     -1.47921197172187     -0.51243981398227
  C   -0.38366167469687     -0.10473675471045     -1.98077810992475
  N   -0.11638750052271     -0.52004731234640     -3.04643720693082
