16
Coordinates from ORCA-job run
  C   0.24905422220579      0.18058167869372      0.54675816870996
  C   -0.69120823013465     -0.25766829464078     -0.61908843458787
  Br  -0.19497858845523      2.05832316542154      0.97056654419111
  H   -0.39134377246635     -1.29188180859195     -0.84181288893534
  N   0.07651092437393     -0.57731368510606      1.75510604860569
  H   -0.89384721128105     -0.60850218423096      2.04694456624205
  H   0.42673775950381     -1.52138837224552      1.63498140126379
  C   1.70371325009231      0.11778705235098      0.11930585846278
  H   1.90344806825188      0.77009550954074     -0.73015061607152
  H   1.95941068116834     -0.91217617017584     -0.15716344223608
  H   2.33643294727006      0.42337722677476      0.95220027763866
  N   -0.65752893271407      0.48015136075938     -1.86380392791446
  H   -0.83013444687826      1.46344833336549     -1.69153614622385
  H   0.24238702325723      0.37758029562351     -2.31356080106771
  C   -2.07428282217878     -0.32278385881108     -0.12334222753691
  N   -3.16337087201497     -0.37963024872792      0.31159561945971
