16
Coordinates from ORCA-job run
  C   0.41197006731797      0.35739030606845      0.41310967160712
  C   -0.69056468588722      0.38083770795548     -0.66690457757947
  Br  1.52309933283556      2.01238026299886      0.09570971313706
  H   -1.23402598348568      1.33328682852738     -0.55369761554976
  N   -0.23047617259397      0.39035733495021      1.68306991859418
  H   -0.68552152963060      1.28122534582566      1.84683697183428
  H   0.42933699690188      0.22397350221149      2.43285376022396
  C   1.32993440430168     -0.84082612847767      0.29477524761990
  H   0.73706385530570     -1.74831820891326      0.41593132127351
  H   1.81765759880997     -0.85941133874656     -0.67947985784236
  H   2.10370117879159     -0.79763217077542      1.06449148528555
  N   -1.51453251178423     -0.81024092742284     -0.49194379225671
  H   -2.27071653265616     -0.81478490703486     -1.16570603453084
  H   -1.89757992605076     -0.79411388270844      0.44569573440622
  C   -0.12005919820799      0.36421792754275     -2.01834203012124
  N   0.28971310603224      0.32165834799878     -3.11739991610139
