16
Coordinates from ORCA-job run
  C   0.43359792400757      0.21212574321235      0.41025658773275
  C   -0.53520379992645      0.15445246035256     -0.78572143812172
  Br  0.90025472693337      2.24636525514676      0.52421973819470
  H   -0.02755955265707      0.60902521358671     -1.64711402361134
  N   -0.20761287542218     -0.26353597537895      1.54590486458154
  H   0.34214375238208     -0.20666087744065      2.39098602087294
  H   -1.13587760675086      0.12651239365550      1.65289609904554
  C   1.75825726032591     -0.46940862406336      0.14748655720578
  H   2.22671052763765     -0.07986577892455     -0.75686872885340
  H   2.44152637339484     -0.30193372958515      0.98199543060450
  H   1.58720739424151     -1.54377152193973      0.04195996648019
  N   -1.79672564325062      0.79928562079770     -0.42939183455104
  H   -2.52352993565674      0.53949125774342     -1.08462614707595
  H   -1.66866317147709      1.80390872698886     -0.46963271223210
  C   -0.79445286093175     -1.25491253350567     -1.11184731891278
  N   -1.00007251285017     -2.37107763064582     -1.41150306135962
