16
Coordinates from ORCA-job run
  C   0.41221469050357      0.24892967870256      0.41102849773965
  C   -0.53157962590640      0.10053385414580     -0.79691978325338
  Br  0.75243326267587      2.31187452953735      0.47431025810733
  H   -0.03981176542817      0.56548560858944     -1.66207379365490
  N   -0.21649488497796     -0.23385745339863      1.55029162809613
  H   0.31526366645894     -0.12116810909605      2.40127463182442
  H   -1.16924396773432      0.09872650271570      1.63312133832261
  C   1.78031395784551     -0.35624536473580      0.18642325378418
  H   1.67713775910084     -1.44189899170113      0.11178554965197
  H   2.23701729949450      0.03425378594447     -0.72366563630339
  H   2.43965576271477     -0.12131804409014      1.02401266896705
  N   -1.83670552206605      0.67221006327174     -0.47580006862061
  H   -1.76995538720056      1.68197111826733     -0.53632037842748
  H   -2.53384705174265      0.35499887930208     -1.13797454207394
  C   -0.69425490012969     -1.32979355888525     -1.09203188562855
  N   -0.82114329360821     -2.46370249856947     -1.36846173853108
