16
Coordinates from ORCA-job run
  C   0.33097974574367      0.00535059058014      0.51703103690572
  C   -0.64028594037106     -0.20138321498859     -0.65851512509428
  Br  -0.16984393081167      1.80706154378779      1.34895710403721
  H   -0.30691984568649     -1.13564593758736     -1.12605089481481
  N   0.19265316983405     -1.05789996249726      1.43271114896599
  H   -0.73481014447707     -1.11435873430539      1.83648442546272
  H   0.87787649668358     -1.00552318018565      2.17534527943873
  C   1.76175530168564      0.13881737912375      0.03929237243608
  H   2.42383425929335      0.34611939477272      0.88242877269720
  H   1.84746521174863      0.93992646912598     -0.69044912056858
  H   2.06159618796234     -0.80743857037480     -0.42084929387868
  N   -0.54021039297922      0.85449835106259     -1.64658058878135
  H   -1.03963445397182      0.58768829936677     -2.48616962285503
  H   -0.95455098952472      1.70603589779592     -1.28577722809902
  C   -2.00747305176009     -0.43995844451030     -0.15014407933880
  N   -3.10343162336911     -0.62328988116630      0.23228581348690
