16
Coordinates from ORCA-job run
  C   0.45783629108426      0.34693833791490      0.37194679387290
  C   -0.62807721465279      0.38307664538519     -0.72432849592703
  Br  1.79312340511692      1.77301244466173     -0.13355221883117
  H   -1.03166631130329      1.40887925531512     -0.74613394972244
  N   -0.17640047093441      0.63587475655024      1.61344499158350
  H   -0.50071301578481      1.59571445367724      1.65060402152224
  H   0.45201427338613      0.47875090526328      2.39188759617500
  C   1.19623757134758     -0.97373417737188      0.42874663786745
  H   1.67882111169331     -1.18794605951227     -0.52449980044871
  H   0.47984021766664     -1.76485626986271      0.65360902787426
  H   1.96645517166611     -0.93956780068641      1.20252815927296
  N   -1.61246409562968     -0.64797676363456     -0.41468627001562
  H   -2.36036185376786     -0.63443931215134     -1.09749275619153
  H   -1.99122609385215     -0.45634232052104      0.50499275632387
  C   -0.06295263317000      0.11207664502965     -2.05071746525627
  N   0.33853364713403     -0.12846074005712     -3.12734902809941
