16
Coordinates from ORCA-job run
  C   0.16506162550465      0.09645152601710      0.55826595033749
  C   -0.73785788662576     -0.25318922905746     -0.65150977999671
  Br  -0.42019972463304      1.82606449409921      1.28852813435156
  H   -0.39924624282412     -1.24541549428079     -0.98610492974828
  N   -0.07461072655405     -0.89580156611976      1.58053828231643
  H   0.43566123110246     -0.67170458081913      2.42707125054795
  H   0.23598991582202     -1.80514812681164      1.25081137434695
  C   1.62044248528780      0.24773509499264      0.13387144863063
  H   1.76479281964981      1.05877989471229     -0.58091668537494
  H   2.24158803444114      0.45477951214243      1.00711998952956
  H   1.96066676131392     -0.69222924487142     -0.31666755845109
  N   -0.69342248836448      0.62176265362426     -1.80463853257694
  H   0.22265418518658      0.60963267094473     -2.23244152561779
  H   -0.92299417224749      1.57081799614937     -1.53430262145637
  C   -2.13442912944173     -0.40674096273215     -0.21762641615330
  N   -3.26509668761772     -0.51679463798968      0.07600161931486
