16
Coordinates from ORCA-job run
  C   0.43894675318676      0.20591993911026      0.40750881434822
  C   -0.53430994661619      0.15971226758784     -0.78523274049824
  Br  0.95090530349091      2.23129039776861      0.50187395832328
  H   -0.01971134015951      0.59744737144681     -1.65120879605506
  N   -0.20880991391582     -0.24492953405004      1.54926479123179
  H   0.34474105823674     -0.19284987653654      2.39214549614614
  H   -1.12829389587196      0.16555748732082      1.65540248815166
  C   1.74766257666022     -0.50658974609173      0.14701549036807
  H   1.55296799612849     -1.57814942027317      0.05401708074156
  H   2.22027844791460     -0.13727589060228     -0.76376063517610
  H   2.43816701524136     -0.34444892425584      0.97665566568300
  N   -1.78107943056255      0.83303357039892     -0.43027699500794
  H   -2.51498739931607      0.58431733848040     -1.08190408085737
  H   -1.63193557084952      1.83443959734704     -0.47762296686504
  C   -0.82284938426633     -1.24624265524667     -1.10088427112007
  N   -1.05069226930113     -2.36023192240442     -1.39299329941391
