16
Coordinates from ORCA-job run
  C   0.40044139172790      0.24068729527892      0.35487267620486
  C   -0.50941981325711      0.18276218061317     -0.89924426792699
  Br  0.92244652401290      2.22638624028414      0.48175320237161
  H   0.05139471508698      0.63509348896560     -1.72354462961447
  N   -0.29913996939925     -0.19855381402260      1.49075388251072
  H   0.29025679396223     -0.25825047222997      2.31072351893673
  H   -1.10657675597689      0.37358555937828      1.69825113880812
  C   1.69896170549488     -0.51754813975024      0.17222763166860
  H   2.36779208711038     -0.33660936158315      1.01601644871765
  H   2.20948114099154     -0.19931300797479     -0.73751127301953
  H   1.48240749077776     -1.58676486757215      0.11261327096802
  N   -1.79539760579894      0.84453676289802     -0.81738723729254
  H   -2.41419434675383      0.37762736716791     -0.16744143295255
  H   -1.67616588285866      1.81522140815972     -0.55596818085999
  C   -0.72996550345312     -1.23224481988335     -1.23644819774014
  N   -0.89132197166676     -2.36461581972950     -1.49966655078012
