16
Coordinates from ORCA-job run
  C   0.33576068380753      0.01141411010630      0.51397895577385
  C   -0.65545822429424     -0.19927215187115     -0.64417853777211
  Br  -0.07113779655895      1.86748623255950      1.27116461820450
  H   -0.37265199184476     -1.16847991118105     -1.07200679829128
  N   0.15592510112313     -1.00496587662406      1.47538353304831
  H   -0.76893885564933     -0.99766158337267      1.88945159557207
  H   0.85043270982557     -0.95326218243323      2.20950120242899
  C   1.76670131975782      0.05534917267753      0.02013010336493
  H   2.44549110571569      0.26810946828349      0.84843927049630
  H   2.01725678431980     -0.92340372804315     -0.39965845162480
  H   1.88338372284834      0.81848970018735     -0.74515557359350
  N   -0.51342807322830      0.80619924303510     -1.67879423505802
  H   -0.88119186795944      1.69215150766651     -1.35194134445700
  H   -1.03522350044591      0.52879735540871     -2.50116233149806
  C   -2.02779992325607     -0.34678864062570     -0.11566942906210
  N   -3.12812119416089     -0.45516271577347      0.28251742246794
