16
Coordinates from ORCA-job run
  C   0.35295747473710      0.33565132523843      0.33640266739508
  C   -0.53049184691216      0.16074844594013     -0.93129884833983
  Br  0.71678094576165      2.26096905265638      0.51031134397879
  H   0.04412042904974      0.50358320425556     -1.79805853307896
  N   -0.44952470919852     -0.04830953103320      1.48260364666062
  H   -0.53296955517841     -1.06173556888674      1.50130319027467
  H   -0.00268918278358      0.24505609755570      2.34341965828806
  C   1.69300634805468     -0.37381437101888      0.20890390438820
  H   1.52713591201956     -1.45245002270865      0.13248849246670
  H   2.24134803990370     -0.03929224077066     -0.67484422854422
  H   2.30730183396885     -0.17907629764794      1.09005851546159
  N   -1.80971168944526      0.83788081724349     -0.91706718774502
  H   -1.65814874435525      1.82814627829534     -1.06255720333916
  H   -2.21181224075525      0.72019902212358      0.00784655868225
  C   -0.76156457867162     -1.28732103080273     -1.08743928055661
  N   -0.92373843619523     -2.44923518043980     -1.14107269599216
