16
Coordinates from ORCA-job run
  C   0.47135244404199      0.35215849281116      0.40528491634058
  C   -0.64295402277741      0.47622646940150     -0.65927040432852
  Br  1.85333146815414      1.74782155320491     -0.18319129854899
  H   -0.87131915617006      1.54066602498211     -0.77331160076874
  N   -0.05962245983440      0.60950052478072      1.67963340859158
  H   0.65925635301520      0.69353164915474      2.38589202096598
  H   -0.68139107870047      1.40649063503958      1.70547151830511
  C   1.20952675022165     -0.97409909213751      0.38963127303732
  H   1.98293837363216     -0.97466056637446      1.16026289247306
  H   0.50539162590983     -1.77957234887439      0.61868111255421
  H   1.68394297415093     -1.16168626665851     -0.57240851246996
  N   -1.86442533259724     -0.18305584385322     -0.21272837664578
  H   -1.68886266717817     -1.16193028294229     -0.01962397831617
  H   -2.55923608939467     -0.13405931323009     -0.94949999373461
  C   -0.15105385605734     -0.00825563914827     -1.96446213012401
  N   0.15312467358386     -0.44907599615596     -3.01036084733106
