16
Coordinates from ORCA-job run
  C   0.39442832584984      0.24008278046519      0.36142918811631
  C   -0.50518356477063      0.18890091832188     -0.90039715660826
  Br  0.89009256876163      2.23097041990738      0.52083341808822
  H   0.05650674481903      0.65941265452933     -1.71386722453200
  N   -0.30770328322183     -0.22409738343574      1.48546405428183
  H   0.27590391472067     -0.28850623668444      2.30911293821202
  H   -1.12468799133998      0.33375403340165      1.69465503125042
  C   1.70415187817621     -0.49832401839525      0.17774224618927
  H   2.21751111588739     -0.15956817253809     -0.72292679554825
  H   2.36393812541068     -0.32162109639715      1.02950934049859
  H   1.50223415554564     -1.56926355070822      0.10015126130932
  N   -1.79956263499300      0.83408756793107     -0.81931786023828
  H   -1.69385206963426      1.80242341264087     -0.54371219956754
  H   -2.41771397099911      0.35105392248791     -0.18062075293355
  C   -0.70584874169363     -1.22381977496891     -1.25864585959539
  N   -0.85121457251865     -2.35448547655748     -1.53840962892268
