16
Coordinates from ORCA-job run
  C   0.16631645228784      0.11839367819508      0.55327161304932
  C   -0.74399052530408     -0.25898831945534     -0.64251475710335
  Br  -0.36180640368300      1.89982710835752      1.19606353718855
  H   -0.43606303202065     -1.27621387359038     -0.92806692161596
  N   -0.11048628890928     -0.81445581350678      1.62162921602521
  H   0.39650299369685     -0.56041974285011      2.46163423574009
  H   0.18090146274157     -1.74680781219982      1.34201190061348
  C   1.62742190910150      0.19829867718134      0.12913612975084
  H   1.80176553168244      0.96638312011444     -0.62529914922395
  H   2.25272935094068      0.42768573311793      0.99372706145129
  H   1.93617752354212     -0.77450354756447     -0.27162339757668
  N   -0.66804132303174      0.55790438476699     -1.83580273613222
  H   -0.86286983005865      1.52646611232522     -1.61171722532365
  H   0.24650479222401      0.49146203019104     -2.26157926645588
  C   -2.14581813978116     -0.34819270352666     -0.20732828528225
  N   -3.28024447342846     -0.40883903155597      0.08645804489516
