16
Coordinates from ORCA-job run
  C   0.44032964722337      0.32968268002831      0.37467601204840
  C   -0.49198369163864      0.19519729492872     -0.87371291733658
  Br  0.82905679897017      2.26707279009388      0.51707358860360
  H   0.05897454769797      0.57206065598827     -1.74252038494588
  N   -0.14466284232207     -0.07792316470409      1.61858252466015
  H   -1.04724030533843      0.35132532371165      1.77793129588169
  H   -0.22754978135814     -1.08776956517982      1.65981477258046
  C   1.75640052733259     -0.39559292469209      0.16543589974721
  H   2.41570073232250     -0.20141329135700      1.01119275366790
  H   1.57976505426807     -1.47328241727471      0.09760821821391
  H   2.24536334008768     -0.06461174598150     -0.75207135760384
  N   -1.77470050510815      0.86825751524321     -0.83552206303201
  H   -1.63895261224484      1.86133916291020     -0.69246659561854
  H   -2.36083319965674      0.50059840716697     -0.09655858730161
  C   -0.73158733499020     -1.24241159647986     -1.07248895768770
  N   -0.90708037524516     -2.40052912440215     -1.15597420187718
