16
Coordinates from ORCA-job run
  C   0.43876395039828      0.40916618874401      0.28910883144760
  C   -0.66669483211163      0.38119574476087     -0.79990222266496
  Br  1.87531187071888      1.64108210960886     -0.41312713687162
  H   -0.99183991005210      1.41808178866351     -0.95259600773356
  N   -0.14872592069041      0.90826345129939      1.48498573724756
  H   -0.43142511341875      1.87673461687199      1.38497305659003
  H   0.49059762700384      0.84027663508474      2.26732095784477
  C   1.08154972790989     -0.94183274385963      0.52728343292152
  H   0.33009033053613     -1.63569368823280      0.91185065735213
  H   1.51078857601508     -1.33849918632798     -0.39276684439430
  H   1.88112811532416     -0.85516687176763      1.26568627105600
  N   -1.83055023896159     -0.41421593313310     -0.43781015967289
  H   -2.06576962666095     -0.21087796756207      0.52711752378425
  H   -1.62490354748878     -1.40252131592648     -0.51725224933246
  C   -0.13439912330812     -0.10963017070714     -2.07423748457885
  N   0.28407811478606     -0.56536265751654     -3.07163436299522
