16
Coordinates from ORCA-job run
  C   0.27704269122449      0.14006562879413      0.54552010371076
  C   -0.72431912693219     -0.19814876411195     -0.60289072712599
  Br  -0.08545495459244      2.00233615936594      1.09637661867647
  H   -0.46750215787797     -1.22560584022179     -0.89864240959248
  N   0.12834673966231     -0.68265777140304      1.71369882885566
  H   -0.82974014135277     -0.70153268497914      2.04422692523927
  H   0.44270098799993     -1.62808087115548      1.52518487143787
  C   1.71003287568279      0.05701465537494      0.05327077531947
  H   1.89662619070352      0.75078530220144     -0.76572262827115
  H   2.38643163295021      0.29392435679873      0.87410555694672
  H   1.91919341342636     -0.96265710135847     -0.29173924972949
  N   -0.71751396074131      0.61180303122228     -1.80228532753048
  H   -0.84832837024978      1.58801600411179     -1.56507715600750
  H   0.15856837018814      0.50748651779928     -2.29654913008667
  C   -2.08723961542936     -0.25131751493697     -0.05271595037097
  N   -3.15884457466193     -0.30143110750167      0.42423889852851
