16
Coordinates from ORCA-job run
  C   0.44700665678573      0.32998818059789      0.36647151940632
  C   -0.49418319428982      0.18731746270597     -0.87427726192613
  Br  0.86485246636097      2.26413518660752      0.47094548589518
  H   0.05637771713139      0.54302872852554     -1.75208932029904
  N   -0.13685659729720     -0.04647848384056      1.62036684225753
  H   -0.23014813056973     -1.05427844829181      1.68253646299709
  H   -1.03377000298876      0.39595482053551      1.77549021409697
  C   1.75104328218289     -0.41820852985276      0.16302809290186
  H   2.23721408321760     -0.11411427738982     -0.76532693462726
  H   1.55882084599086     -1.49456968921831      0.11989403731639
  H   2.42007394824919     -0.21500730180546      0.99905521191915
  N   -1.76768090377646      0.87801489607039     -0.83995639359950
  H   -1.61852195519939      1.87125957070601     -0.71253587437921
  H   -2.35579582295584      0.52867366793588     -0.09382807984742
  C   -0.75405085022015     -1.24998800784330     -1.04755806019458
  N   -0.94638154262126     -2.40672777544269     -1.11021594191736
