16
Coordinates from ORCA-job run
  C   -0.38020067838884      0.18947629986017     -0.48248393544923
  C   0.85548405030449     -0.71389353262492     -0.48459758129061
  Cl  -0.86716695132027      0.37494307830598     -2.21458586614371
  H   0.56507247916729     -1.68597926496802     -0.89273200060737
  H   1.59740238388580     -0.28551817491767     -1.17137639629598
  C   -0.05195964921865      1.56912759584859      0.06004263583480
  H   0.23020168706866      1.48497393123877      1.11245752207151
  H   0.77115131250459      2.02242537203584     -0.49830660167653
  H   -0.91846587718791      2.22871474578236     -0.01534988475376
  C   -1.53481807615546     -0.44873143149168      0.26675310824189
  H   -1.23048079262656     -0.62267290551985      1.30026766474535
  H   -1.80708581227144     -1.40453615721243     -0.18667374885003
  H   -2.41230488901955      0.20085271087013      0.24996957446934
  N   1.35167864068362     -0.88726372954819      0.88039284688672
  H   2.07972322779042     -0.21438604504760      1.07967836056456
  H   1.75076894478382     -1.80853249261149      0.99654430225303
