16
Coordinates from ORCA-job run
  C   -0.35683073969953      0.10422924714239     -0.28314490203354
  C   0.71784288046307     -0.85243327679930      0.22511090821539
  Cl  -0.30239085960960      0.05818927179297     -2.09835407252416
  H   0.63619885692914     -0.86887136386230      1.31812806531060
  H   0.47261335817810     -1.86092007996150     -0.14018289523751
  C   -0.09810386721432      1.53410157305325      0.15289069374730
  H   -0.85970238636211      2.20236966738132     -0.25379937282758
  H   0.88723044690708      1.86136942183138     -0.17277811881317
  H   -0.13348375620429      1.58722995724268      1.24577787391686
  C   -1.73493609682466     -0.37788205938054      0.13603344653097
  H   -1.81302733250892     -0.35922869720500      1.22749650198007
  H   -1.91706428912463     -1.39707005622436     -0.21114365687168
  H   -2.51082925156583      0.26918795966101     -0.27705998469300
  N   2.05997068755531     -0.40194651679097     -0.12026304549563
  H   2.74405148755951     -0.96754360895519      0.36601160486444
  H   2.20946086152167     -0.53078143892585     -1.11372304606934
