16
Coordinates from ORCA-job run
  C   -0.35224577964221      0.06930694380839     -0.26411205286174
  C   0.72866687958973     -0.96519268901557      0.08680387047337
  Cl  -0.39294876679454      0.22089219055966     -2.06971864536562
  H   0.68138986165139     -1.12223553001845      1.17115202614606
  H   0.45170586442741     -1.91255130022099     -0.38549850279874
  C   -0.04329781709518      1.44258343288489      0.30421488244397
  H   0.02147633460913      1.38172416326390      1.39557220521567
  H   -0.82902425460151      2.15369143948423      0.04283961807209
  H   0.90042996092656      1.82880058852009     -0.08268315908449
  C   -1.71629620171914     -0.42725070967907      0.18351367132004
  H   -2.50226113932060      0.26762150391295     -0.11840283127976
  H   -1.73464190670732     -0.51912734517159      1.27396281008380
  H   -1.93601503343057     -1.40423712553478     -0.25199557497374
  N   2.10330687115244     -0.66985079900209     -0.26565942976289
  H   2.17628185218548     -0.47933285614662     -1.25707041806213
  H   2.44347327476894      0.13815809235504      0.23808153043411
