15

C	-0.298717	-0.02711	-1.511145
C	0.0	0.0	0.0
Br	-2.251155	-0.277513	-1.794271
H	1.097813	0.0	0.0
C	0.025828	1.279368	-2.090984
N	0.288996	2.303187	-2.603347
N	0.404633	-1.061641	-2.224871
H	0.165397	-1.96145	-1.816065
H	1.401277	-0.904424	-2.058973
C	-0.42544	-1.267223	0.609662
N	-0.787573	-2.26104	1.121055
N	-0.495709	1.187858	0.653965
H	-1.414234	1.041687	1.051349
H	0.153981	1.464383	1.379388
Br	3.381345	0.0	0.0
