15

C	-0.587152	8.6e-05	-1.439058
C	0.0	0.0	0.0
Br	0.293534	1.451551	-2.422933
H	1.109428	0.0	0.0
C	-0.28434	-1.253811	-2.128587
N	-0.103147	-2.292285	-2.648212
N	-2.011857	0.23942	-1.487026
H	-2.489002	-0.568412	-1.095145
H	-2.177118	1.041908	-0.883831
C	-0.504273	-1.195524	0.677861
N	-0.987537	-2.121418	1.217784
N	-0.450509	1.219497	0.680925
H	0.37914	1.712569	0.997357
H	-1.012951	0.996626	1.493117
Br	3.398709	0.0	0.0
