15

C	-0.342498	0.085749	-1.484123
C	0.0	0.0	0.0
Cl	-0.155646	-1.593243	-2.195043
H	1.091663	0.0	0.0
H	-0.449376	-0.872607	0.479039
H	-0.361945	0.912786	0.491813
C	-1.771938	0.504257	-1.789121
H	-2.480784	-0.182396	-1.315686
H	-1.943674	1.511545	-1.390436
H	-1.964524	0.515175	-2.865503
C	0.713456	0.962665	-2.150862
H	1.689769	0.648564	-1.759427
H	0.549549	2.003974	-1.839024
H	0.665714	0.908946	-3.24058
F	2.781258	0.0	0.0
