13

C	-0.182742	-0.169158	-1.500027
C	0.0	0.0	0.0
Cl	-1.83696	-0.855399	-1.956163
H	1.090749	0.0	0.0
H	-0.259179	0.842209	-1.917911
H	-0.472792	0.897259	0.386918
N	0.874884	-0.953872	-2.034828
H	1.707215	-0.791628	-1.442865
H	1.064339	-0.69186	-2.991634
N	-0.483579	-1.122601	0.81212
O	-0.205859	-2.265478	0.459937
O	-1.120065	-0.845669	1.834135
F	2.62586	0.0	0.0
