13

C	-0.094859	-0.09143	-1.519921
C	0.0	0.0	0.0
Cl	-1.761676	-0.507713	-2.116496
H	1.089952	0.0	0.0
H	0.085559	0.923287	-1.872902
H	-0.476373	0.87969	0.425043
N	0.889075	-0.954721	-2.12393
H	1.757039	-0.677199	-1.635458
H	0.69452	-1.885861	-1.776524
N	-0.522392	-1.168545	0.704484
O	-0.255523	-2.291948	0.265516
O	-1.196626	-0.977411	1.720587
F	2.60847	0.0	0.0
