15

C	0.0	0.0	0.0
C	-0.509169	0.158869	-1.431853
Cl	1.797545	0.0	0.0
H	-0.166907	-0.674548	-2.05125
H	-1.612075	0.121947	-1.294217
N	-0.509722	1.111577	0.759528
H	-0.262193	0.967676	1.733889
H	-1.537963	0.966795	0.663258
C	-0.433837	-1.362832	0.530569
H	-0.05917	-1.494646	1.549829
H	-0.042974	-2.177259	-0.086013
H	-1.528592	-1.33171	0.514675
C	-0.095802	1.408404	-2.057789
N	0.206116	2.396452	-2.615105
F	-2.895767	0.0	0.0
