15

C	0.0	0.0	0.0
C	-0.510166	-0.119058	-1.447002
Cl	1.800759	0.0	0.0
H	-0.15477	-1.036854	-1.925049
H	-1.610836	-0.149275	-1.277694
N	-0.515749	1.16122	0.673614
H	-1.541062	0.987007	0.603985
H	-0.295214	1.987532	0.123433
C	-0.448207	-1.234853	0.768169
H	-0.05114	-2.144503	0.310017
H	-0.086502	-1.159281	1.795143
H	-1.541941	-1.210106	0.733931
C	-0.147036	1.026803	-2.268664
N	0.141274	1.96083	-2.921065
F	-2.891317	0.0	0.0
