15

C	0.0	0.0	0.0
C	-0.510141	-0.029843	-1.451809
Cl	1.800002	0.0	0.0
H	-0.216404	0.893019	-1.962593
H	-1.610985	-0.046023	-1.288559
N	-0.531491	1.138466	0.701214
H	-0.334567	1.975227	0.157842
H	-1.556976	0.947529	0.62905
C	-0.442456	-1.258485	0.732279
H	-0.090516	-1.203805	1.763986
H	-0.036367	-2.153211	0.256497
H	-1.535412	-1.243326	0.692616
C	-0.066014	-1.170624	-2.240636
N	0.292278	-2.091309	-2.877347
F	-2.896244	0.0	0.0
