15

C	0.0	0.0	0.0
C	-0.516533	0.141856	-1.431527
Cl	1.797566	0.0	0.0
H	-0.190531	-0.708734	-2.037186
H	-1.618306	0.114663	-1.281637
N	-0.519261	1.11433	0.749304
H	-1.546208	0.958065	0.647326
H	-0.279747	0.976989	1.727624
C	-0.438653	-1.358013	0.542765
H	-0.047178	-2.182698	-0.060977
H	-1.533182	-1.320843	0.517079
H	-0.07494	-1.477044	1.567956
C	-0.098886	1.375044	-2.085953
N	0.208948	2.345269	-2.671406
F	-2.896638	0.0	0.0
