15

C	0.0	0.0	0.0
C	-0.518514	0.189675	-1.425172
Cl	1.797396	0.0	0.0
H	-1.620069	0.15149	-1.275468
H	-0.187458	-0.636411	-2.061153
N	-0.520402	1.087721	0.786798
H	-1.547196	0.935512	0.676817
H	-0.285421	0.914758	1.759895
C	-0.438113	-1.376197	0.496693
H	-0.071018	-1.532035	1.515429
H	-0.050096	-2.17954	-0.137432
H	-1.532619	-1.338229	0.475645
C	-0.110851	1.449005	-2.034831
N	0.190581	2.44266	-2.58355
F	-2.898848	0.0	0.0
