15

C	0.0	0.0	0.0
C	-0.623758	-0.111968	-1.378698
Cl	1.85205	0.0	0.0
H	-1.734673	-0.072449	-1.062618
H	-0.368815	-1.062957	-1.852786
N	-0.38931	1.260371	0.558471
H	-0.207775	1.275347	1.552867
H	0.112313	2.020178	0.118803
C	-0.512079	-1.125993	0.866819
H	-0.129231	-1.029198	1.886871
H	-1.608321	-0.988622	0.818155
H	-0.201315	-2.093588	0.467258
C	-0.269089	0.987996	-2.254746
N	0.010392	1.888345	-2.956288
F	-2.959388	0.0	0.0
