18

C	-0.205076	0.021774	-1.519161
C	0.0	0.0	0.0
Cl	-1.973152	0.10094	-1.944666
H	1.093782	0.0	0.0
C	0.526216	1.189464	-2.164717
H	0.54536	1.043418	-3.247974
H	1.539337	1.173104	-1.751126
H	0.057246	2.14419	-1.941153
C	0.381626	-1.283757	-2.041894
H	1.411461	-1.318144	-1.673099
H	0.366378	-1.286409	-3.133689
H	-0.16999	-2.151609	-1.678501
C	-0.539281	-1.193731	0.621561
N	-0.909772	-2.201424	1.100369
N	-0.508017	1.200227	0.709425
O	-0.044406	2.288828	0.375909
O	-1.335129	1.045253	1.610311
F	2.533146	0.0	0.0
