18

C	-0.342469	0.059427	-1.515263
C	0.0	0.0	0.0
Cl	-0.02661	-1.610669	-2.143068
H	1.09126	0.0	0.0
C	-1.805856	0.365067	-1.77146
H	-2.444361	-0.358232	-1.260989
H	-2.047909	1.366596	-1.40657
H	-2.016248	0.327132	-2.843366
C	0.633215	0.977904	-2.239258
H	1.627698	0.774564	-1.835265
H	0.379309	2.020837	-2.048194
H	0.594727	0.788186	-3.315599
C	-0.601627	-1.127994	0.680544
N	-1.071932	-2.056625	1.224978
N	-0.470009	1.255665	0.654178
O	-1.349459	1.186603	1.514661
O	0.055917	2.307407	0.290938
F	2.5189	0.0	0.0
