18

C	-0.364973	-0.021567	-1.492555
C	0.0	0.0	0.0
Cl	0.388583	1.404065	-2.302733
H	1.095146	0.0	0.0
C	0.354459	-1.241308	-2.064865
H	1.393552	-1.198111	-1.725411
H	-0.113062	-2.162211	-1.705401
H	0.309606	-1.22419	-3.156191
C	-1.851244	-0.004767	-1.799302
H	-2.300234	0.918621	-1.44277
H	-2.336018	-0.852791	-1.309953
H	-2.011201	-0.080603	-2.878202
C	-0.470998	-1.207904	0.649744
N	-0.855259	-2.214161	1.123627
N	-0.481209	1.151908	0.804062
O	-0.303935	1.069746	2.017916
O	-0.97968	2.126596	0.236404
F	2.482675	0.0	0.0
