18

C	-0.208035	0.017161	-1.518877
C	0.0	0.0	0.0
Cl	-1.977601	0.096778	-1.938592
H	1.093834	0.0	0.0
C	0.521692	1.179583	-2.176222
H	0.05959	2.137239	-1.952327
H	0.529579	1.028215	-3.25883
H	1.538633	1.159878	-1.772827
C	0.3757	-1.291137	-2.038078
H	0.358883	-1.297036	-3.130409
H	-0.176775	-2.157411	-1.670802
H	1.406338	-1.32578	-1.670322
C	-0.535693	-1.194498	0.624235
N	-0.900287	-2.201965	1.107944
N	-0.507854	1.198393	0.712015
O	-0.065295	2.291538	0.362237
O	-1.313192	1.038531	1.631723
F	2.531698	0.0	0.0
