18

C	-0.518172	-0.011928	-1.445192
C	0.0	0.0	0.0
Cl	0.240823	-1.431347	-2.265483
H	1.09126	0.0	0.0
C	-2.018133	-0.203667	-1.599142
H	-2.542232	0.617146	-1.104569
H	-2.298689	-0.233243	-2.656348
H	-2.32447	-1.139647	-1.129142
C	-0.009722	1.235275	-2.145542
H	-0.529322	2.119138	-1.762156
H	-0.196388	1.16553	-3.222467
H	1.064012	1.322143	-1.936952
C	-0.533425	-1.100543	0.775351
N	-0.94665	-2.009255	1.398946
N	-0.468191	1.277293	0.654006
O	-1.620575	1.32584	1.10521
O	0.318729	2.226023	0.639513
F	2.508266	0.0	0.0
