15

C	-0.404989	0.136188	-1.45125
C	0.0	0.0	0.0
Br	0.101697	-1.561486	-2.450233
H	1.0961	0.0	0.0
H	-1.482322	0.17174	-1.613213
N	0.266359	1.278198	-1.952601
H	0.164663	1.357546	-2.955264
H	1.25692	1.204227	-1.709837
N	-0.597386	-1.201224	0.644757
O	-0.030529	-1.624547	1.648082
O	-1.65803	-1.645789	0.196902
N	-0.434138	1.140536	0.793937
H	0.404421	1.506406	1.23977
H	-0.773825	1.862554	0.171324
H	2.752381	0.0	0.0
