15

C	-0.603667	-0.006035	-1.386362
C	0.0	0.0	0.0
Br	0.369248	1.38943	-2.499991
H	1.089441	0.0	0.0
H	-0.375696	-0.924677	-1.916747
N	-1.994587	0.250935	-1.323733
H	-2.387513	0.369642	-2.248044
H	-2.12068	1.104749	-0.790684
N	-0.350974	-1.279925	0.640869
O	-0.682477	-1.281333	1.836192
O	-0.187536	-2.310017	-0.024146
N	-0.443472	1.135441	0.767813
H	0.389328	1.546995	1.17714
H	-1.016362	0.798547	1.53199
H	2.553365	0.0	0.0
