15

C	-0.399615	-0.072628	-1.4489
C	0.0	0.0	0.0
Br	-2.4887	-0.27384	-1.51348
H	1.104191	0.0	0.0
H	-0.314478	0.935471	-1.845182
N	0.235711	-1.019585	-2.254628
H	0.856618	-0.581498	-2.916822
H	0.715449	-1.713521	-1.699918
N	-0.346409	-1.24472	0.735818
O	-0.80282	-1.150332	1.880593
O	-0.060622	-2.319251	0.194945
N	-0.445152	1.188573	0.642905
H	0.206438	1.389092	1.392482
H	-1.361644	1.051051	1.04882
H	2.603983	0.0	0.0
