15

C	-0.518636	-0.032325	-1.430086
C	0.0	0.0	0.0
Br	0.256359	1.579107	-2.393887
H	1.093717	0.0	0.0
H	-0.082468	-0.869306	-1.967138
N	-1.935368	-0.055173	-1.513296
H	-2.243024	-0.129298	-2.473692
H	-2.325824	0.79608	-1.128502
N	-0.366829	-1.317283	0.585765
O	-0.077055	-2.308676	-0.093869
O	-0.868621	-1.373729	1.711563
N	-0.439417	1.058772	0.843302
H	0.114477	1.88512	0.654555
H	-1.429311	1.255779	0.791889
H	2.635008	0.0	0.0
