12
Coordinates from ORCA-job run
  C   0.67602862592871     -0.12926027510526      0.50203592170468
  C   -0.59430554701077     -0.72698189068364     -0.10792458655890
  Br  1.46211373462998     -1.56783372033613      1.59625121975680
  H   -1.29088330055159     -1.02908564067295      0.67484442105147
  H   -0.35120770744392     -1.58613155146942     -0.73397563888739
  C   0.37941472925723      0.99254525857866      1.38874084650880
  N   0.12258507212746      1.86310883530392      2.13555831248604
  C   1.65182188565915      0.23446688537598     -0.52173256914084
  N   2.44518251260959      0.47580404446346     -1.35483555695801
  N   -1.31817821989398      0.25776407824996     -0.97998563112719
  O   -0.83804231868627      1.38097698597599     -1.10298941881049
  O   -2.34352946662559     -0.16537300968057     -1.49598732002497
