12
Coordinates from ORCA-job run
  C   0.67891439671319     -0.15320213602549      0.49080222074482
  C   -0.61905680865513     -0.70875091781426     -0.10000154219947
  Br  1.43585784706739     -1.61770048330124      1.56998141279248
  H   -1.31251728576703     -0.98949300702701      0.69340584419109
  H   -0.41424387622002     -1.57383366236139     -0.73150342118687
  C   0.43226653866534      0.97640377158934      1.38337865754462
  N   0.21555825786120      1.85450923270361      2.13407748789131
  C   1.65023481169667      0.18413002652704     -0.54634488404807
  N   2.44104868693516      0.40829712320415     -1.38666196826645
  N   -1.32501750237940      0.30045734583533     -0.95923752817660
  O   -0.81163801143359      1.40825747492642     -1.08750140931535
  O   -2.37140705448377     -0.08907476825649     -1.45939486997150
