12
Coordinates from ORCA-job run
  C   0.63655316536305     -0.04722201519446      0.56488529623498
  C   -0.65173163452150     -0.68401808526573      0.03765797005031
  Br  1.23415725156690     -1.21003861244957      2.03925498568425
  H   -1.40988482989524     -0.71995252869828      0.82082759306889
  H   -0.45918903692000     -1.69177809414733     -0.33224197310436
  C   0.39926461696372      1.28432818137769      1.11605131249940
  N   0.18549575865069      2.33520697102621      1.59725738176962
  C   1.69018140225052     -0.03197560641370     -0.44620238265203
  N   2.54205746227481     -0.06900517676663     -1.25522351117712
  N   -1.24002985580281      0.09460864164062     -1.10346512371258
  O   -0.65358850612289      1.10776535206207     -1.47350010613462
  O   -2.27428579380724     -0.36791902717087     -1.56530144252673
