12
Coordinates from ORCA-job run
  C   0.54494468640895      0.05956407669271      0.52035801210739
  C   -0.74540192428032      0.35401088269410     -0.25686860421289
  Br  0.20971025829685     -1.37303917615183      1.81805743988098
  H   -1.51331409926746      0.72425473230525      0.41975793984235
  H   -0.53979638924861      1.07937262169099     -1.04858329781182
  C   0.89240966735837      1.27078349996912      1.26480005799197
  N   1.13985360527654      2.26620487845258      1.83976463966666
  C   1.67332262355390     -0.31873958314422     -0.32945783283944
  N   2.61975250760287     -0.56163193244264     -0.98323849175750
  N   -1.29189657622581     -0.87133463626829     -0.91476023757244
  O   -0.49685452878961     -1.55531548191453     -1.55006250836100
  O   -2.49372983068566     -1.07212988188324     -0.78176711693425
