12
Coordinates from ORCA-job run
  C   0.61416034383700      0.01247775829114      0.45298354372094
  C   -0.80507395589434      0.28190892998393     -0.06148695761379
  Br  0.64558402683943     -1.68635747076345      1.43201829726049
  H   -0.81111169635428      1.19053568918194     -0.67012976452633
  H   -1.49541268911924      0.38056644958440      0.77442289995812
  C   0.94139313264086      1.08217485685888      1.39765162909114
  N   1.18320025107476      1.96831121786705      2.13172551979702
  C   1.62753938067408     -0.01574672799623     -0.60100467699967
  N   2.47374594586875      0.02987959460894     -1.41576340661138
  N   -1.32412620017812     -0.82141018726998     -0.92790137434637
  O   -0.52555767513216     -1.36576195414160     -1.68157146266195
  O   -2.52334086425675     -1.05557815620503     -0.83294424706822
