12

C	-0.375474	-0.100956	-1.466207
C	0.0	0.0	0.0
F	-1.739626	-0.362677	-1.610613
H	1.094034	0.0	0.0
H	-0.223676	0.865222	-1.966269
H	-0.336464	-0.9101	0.502981
N	0.361617	-1.19005	-2.032584
H	0.358216	-1.127215	-3.043706
H	1.327289	-1.150382	-1.710173
C	-0.5649	1.170751	0.649498
N	-1.047856	2.110855	1.159017
Br	3.504008	0.0	0.0
