12

C	-0.517879	-0.083306	-1.425418
C	0.0	0.0	0.0
F	-0.139786	1.088633	-2.100412
H	1.091892	0.0	0.0
H	-0.017918	-0.903307	-1.94505
H	-0.320897	-0.900552	0.531631
N	-1.93021	-0.273198	-1.473444
H	-2.240019	-0.282578	-2.437561
H	-2.38957	0.498476	-1.002439
C	-0.553243	1.166509	0.679192
N	-1.058276	2.099688	1.181581
Br	3.562945	0.0	0.0
