12

C	-0.373883	-0.130323	-1.472725
C	0.0	0.0	0.0
F	-1.739151	-0.390214	-1.575585
H	1.092892	0.0	0.0
H	-0.184808	0.810654	-1.995415
H	-0.336059	-0.900193	0.525702
N	0.344643	-1.176219	-2.144437
H	0.356187	-1.997493	-1.55014
H	1.313945	-0.883728	-2.221095
C	-0.565753	1.177533	0.642242
N	-1.029728	2.124083	1.158931
Br	3.516583	0.0	0.0
