12

C	-0.395901	0.105284	-1.466429
C	0.0	0.0	0.0
F	-0.214357	-1.16679	-2.056691
H	1.094451	0.0	0.0
H	-1.459159	0.322872	-1.609826
H	-0.318599	0.907101	0.520043
N	0.40009	1.107144	-2.067865
H	0.26058	1.129289	-3.069019
H	1.383432	0.942981	-1.860893
C	-0.568926	-1.164023	0.660229
N	-1.072375	-2.073974	1.203496
Br	3.54594	0.0	0.0
