12

C	-0.517723	-0.037961	-1.427244
C	0.0	0.0	0.0
F	-0.132289	1.151047	-2.067471
H	1.091856	0.0	0.0
H	-0.022475	-0.84527	-1.970933
H	-0.321631	-0.916319	0.503325
N	-1.931168	-0.2177	-1.481082
H	-2.239837	-0.197767	-2.445319
H	-2.386162	0.543305	-0.98855
C	-0.552421	1.145296	0.715077
N	-1.057068	2.062587	1.246105
Br	3.561835	0.0	0.0
