12

C	-0.49526	-0.00171	-1.436424
C	0.0	0.0	0.0
F	-0.051224	1.205571	-2.008692
H	1.092069	0.0	0.0
H	-0.019429	-0.798408	-2.011536
H	-0.330558	0.926002	0.48274
N	-1.909074	-0.127136	-1.527413
H	-2.203541	-0.072	-2.494228
H	-2.356452	0.619024	-1.008536
C	-0.50614	-1.144296	0.749598
N	-0.920226	-2.05472	1.363351
Br	3.565998	0.0	0.0
