16

C	-0.165841	-0.054284	-1.516887
C	0.0	0.0	0.0
Cl	-1.782233	0.384699	-2.12334
H	1.094284	0.0	0.0
N	0.82736	0.805901	-2.019137
H	0.906602	0.747768	-3.02547
H	1.712171	0.614566	-1.506306
N	0.113731	-1.512517	-2.014688
O	-0.239439	-1.789006	-3.155957
O	0.816205	-2.205853	-1.290226
N	-0.626597	-1.096769	0.77204
O	-0.306092	-1.167439	1.954439
O	-1.43716	-1.828436	0.207453
C	-0.458199	1.265314	0.532477
N	-0.811887	2.286237	0.994165
F	2.532199	0.0	0.0
