16

C	-0.158184	0.059063	-1.522299
C	0.0	0.0	0.0
Cl	-0.383314	1.858211	-2.023893
H	1.107587	0.0	0.0
N	0.920216	-0.553387	-2.101145
H	1.783682	-0.389042	-1.547413
H	0.986681	-0.459119	-3.10163
N	-1.487461	-0.520311	-2.023082
O	-2.459836	-0.371473	-1.294513
O	-1.478179	-1.04388	-3.130136
N	-0.393788	-1.328326	0.557334
O	-0.490719	-1.39816	1.779983
O	-0.524443	-2.268693	-0.219315
C	-0.596103	1.056266	0.77935
N	-1.040806	1.914311	1.447069
F	2.532617	0.0	0.0
