16

C	-0.533079	-0.114406	-1.422554
C	0.0	0.0	0.0
Cl	0.554608	-1.195839	-2.404832
H	1.100938	0.0	0.0
N	-1.900688	-0.439398	-1.508794
H	-2.200125	-0.422668	-2.475475
H	-2.03331	-1.361129	-1.111722
N	-0.357408	1.241717	-2.125935
O	0.520036	1.98761	-1.720275
O	-1.089481	1.438342	-3.092034
N	-0.336384	-1.195052	0.812585
O	-0.640093	-2.245524	0.236899
O	-0.209956	-1.08516	2.028224
C	-0.531295	1.163686	0.677029
N	-0.950781	2.119026	1.219153
F	2.418414	0.0	0.0
