10
Coordinates from ORCA-job run
  C   -1.01751407833940     -0.28248126372970     -0.30233235186769
  C   0.14563145426314      0.48602954816292      0.28656802070645
  Br  -2.64550529994920      0.73369713564469     -0.01744205781788
  H   0.27535462909161      1.46657396174074     -0.16625058896639
  H   -0.90121454981359     -0.41747136740195     -1.37657169783079
  H   -1.14049535723582     -1.24781452869126      0.17959738283994
  H   0.04591965442235      0.59159583017189      1.36827395664500
  N   1.42660649402718     -0.25840870799879      0.05598140434221
  O   2.42687301761187      0.41022698592090     -0.18305879380537
  O   1.38534403592186     -1.48294759381944      0.15523472575452
