10
Coordinates from ORCA-job run
  C   -0.95490332511263     -0.23072800529194     -0.49181564358618
  C   0.07765756602512      0.39812732279476      0.41850334845456
  Br  -2.68266812970625      0.57172353370411     -0.12434904169183
  H   -0.14558404250788      0.25223144831598      1.47312053785825
  H   -1.04669473297027     -1.30028128984300     -0.30914482262071
  H   -0.72273017357868     -0.05371163496241     -1.53776507348131
  H   0.19409823453174      1.46347084008968      0.21196395192329
  N   1.42187832920940     -0.22251942261064      0.18160901687711
  O   1.71240364724416     -0.49625861908454     -0.98102184029451
  O   2.14454262686529     -0.38205417311200      1.15989956656133
