10
Coordinates from ORCA-job run
  C   -1.07744227351800     -0.08137405471707     -0.36492537611083
  C   0.11841853414657      0.59371517502137      0.25850575139209
  Br  -0.67714607490483     -0.68779780393979     -2.16351785053089
  H   0.52022603262220      1.39822888525235     -0.35327480749093
  H   -1.37487339225017     -0.95268396635018      0.21348810420073
  H   -1.90604565757179      0.62190339719981     -0.43882267468607
  H   -0.13947170973479      0.96590151965066      1.25419750008950
  N   1.23519314284118     -0.38059382732512      0.46870696302345
  O   0.93807250048745     -1.45417451069561      0.98441736225401
  O   2.36206889788216     -0.02312481409642      0.14122502785894
