10
Coordinates from ORCA-job run
  C   -1.07039906845484     -0.08750787944851     -0.38334400910358
  C   0.26837423040049      0.57508230320532     -0.17534974271707
  Br  -1.89724686677420     -0.53659722136733      1.31301252986109
  H   0.21825260768489      1.43800919849799      0.48480568721716
  H   -0.96153251724961     -1.01103217020124     -0.94677291858117
  H   -1.74613523968012      0.59188166288216     -0.90145642057597
  H   0.69878775791516      0.85899984795090     -1.14001128144189
  N   1.24739524202057     -0.37580737090611      0.43908534076522
  O   1.31177122215022     -1.49591563083759     -0.05881268148816
  O   1.93073263198744      0.04288726022441      1.36784349606438
