10
Coordinates from ORCA-job run
  C   -0.97697618208547     -0.30006826006707     -0.32766627075959
  C   0.13063076846990      0.52510243224080      0.29870904964814
  Br  -2.66500342253410      0.63006385022449     -0.13277382392524
  H   0.25320850623843      1.48210737218600     -0.20437398319793
  H   -0.80101556967966     -0.44115666430317     -1.39294324669871
  H   -1.07331443017160     -1.26308619579345      0.17133421661345
  H   -0.02051995014759      0.65575805940342      1.36831424836796
  N   1.40955340446548     -0.22902981688303      0.12505465260471
  O   2.03835208211218     -0.02699351555152     -0.91140245048471
  O   1.70508479333243     -1.03369726145648      1.00574760783193
