15

C	-0.40152	-0.026409	-1.468892
C	0.0	0.0	0.0
F	-0.032732	1.154261	-2.08335
H	1.096755	0.0	0.0
C	0.247784	-1.150692	-2.181648
N	0.652543	-2.063502	-2.800713
C	-1.864465	-0.177156	-1.6368
N	-3.028757	-0.307856	-1.733124
C	-0.409012	-1.271928	0.737227
H	-0.039628	-1.203698	1.762436
H	0.086546	-2.12976	0.274544
H	-1.490937	-1.434182	0.756689
C	-0.53165	1.194535	0.623895
N	-0.935268	2.157811	1.16645
H	2.600128	0.0	0.0
