15

C	-0.415154	-0.060329	-1.467398
C	0.0	0.0	0.0
F	0.110556	-1.204471	-2.041177
H	1.106141	0.0	0.0
C	-1.885478	-0.14326	-1.622268
N	-3.052497	-0.249528	-1.714666
C	0.070176	1.10954	-2.227285
N	0.385167	2.043004	-2.866852
C	-0.436621	-1.242083	0.769475
H	-0.003629	-2.121806	0.291556
H	-1.523103	-1.351376	0.837673
H	-0.019555	-1.178159	1.776577
C	-0.501956	1.222636	0.593628
N	-0.883897	2.212868	1.103049
H	2.603759	0.0	0.0
