15

C	-0.392867	0.104999	-1.456621
C	0.0	0.0	0.0
F	-1.782905	0.070728	-1.639899
H	1.107252	0.0	0.0
C	0.089078	1.363122	-2.057302
N	0.457644	2.359646	-2.55868
C	0.151281	-1.032649	-2.227002
N	0.503958	-1.955699	-2.861235
C	-0.420755	-1.322649	0.631818
H	-1.495671	-1.506393	0.562445
H	-0.125465	-1.311698	1.683017
H	0.127003	-2.136967	0.15139
C	-0.498167	1.147112	0.729925
N	-0.863222	2.069337	1.363765
H	2.576162	0.0	0.0
