15

C	0.0	0.0	0.0
C	-0.27306	-0.099605	-1.515216
Br	1.968031	0.0	0.0
H	-0.038963	-1.10856	-1.853061
H	0.379579	0.616714	-2.016067
C	-0.397814	1.322967	0.648387
H	0.032636	2.150595	0.080218
H	-0.01516	1.352758	1.671864
H	-1.49081	1.318556	0.619457
C	-0.464286	-1.175668	0.727165
N	-0.617515	-2.176918	1.325765
N	-1.62376	0.221059	-2.076705
O	-2.231909	-0.70028	-2.610721
O	-1.899668	1.41158	-2.180401
F	-2.503389	0.0	0.0
