15

C	0.0	0.0	0.0
C	-0.607171	-0.117315	-1.392198
Br	1.963735	0.0	0.0
H	-0.352778	-1.069816	-1.851768
H	-1.718752	-0.013774	-1.130995
C	-0.476151	1.209532	0.801393
H	-1.570768	1.124794	0.772325
H	-0.132183	2.127851	0.329994
H	-0.085755	1.148817	1.819006
C	-0.372652	-1.23164	0.7064
N	-0.589694	-2.232244	1.283443
N	-0.139435	0.924992	-2.323388
O	-0.350398	2.105382	-2.037074
O	0.414963	0.555748	-3.364977
F	-2.831744	0.0	0.0
