15

C	0.0	0.0	0.0
C	-0.62561	0.091657	-1.38191
Br	1.956755	0.0	0.0
H	-0.412055	-0.794334	-1.976664
H	-1.745163	0.156556	-1.08133
C	-0.467744	1.06386	0.995574
H	-0.080006	0.826052	1.988468
H	-0.111473	2.043276	0.686151
H	-1.561606	0.997539	0.960689
C	-0.371557	-1.327686	0.507866
N	-0.570052	-2.410543	0.918197
N	-0.1811	1.237819	-2.188258
O	-0.059448	2.339981	-1.652009
O	0.008247	1.035683	-3.391528
F	-2.830977	0.0	0.0
