15

C	0.0	0.0	0.0
C	-0.60117	0.164638	-1.390315
Br	1.957406	0.0	0.0
H	-0.307907	-0.65627	-2.041902
H	-1.712145	0.188558	-1.123804
C	-0.475327	1.042844	1.010806
H	-0.100148	0.784648	2.003367
H	-0.112275	2.029658	0.728391
H	-1.570228	0.980121	0.954618
C	-0.386152	-1.339553	0.458012
N	-0.585637	-2.431924	0.842488
N	-0.159089	1.401503	-2.062838
O	0.512397	1.286278	-3.093461
O	-0.502045	2.483071	-1.582161
F	-2.826334	0.0	0.0
