15

C	0.0	0.0	0.0
C	-0.566427	-0.415949	-1.365611
Br	1.967772	0.0	0.0
H	-1.517872	-0.908407	-1.158963
H	0.159183	-1.01251	-1.924195
C	-0.442825	1.339158	0.595135
H	-1.537386	1.299703	0.534309
H	-0.101229	1.381295	1.632763
H	-0.003524	2.16246	0.037021
C	-0.357585	-1.081288	0.927212
N	-0.512383	-1.96168	1.690273
N	-0.93803	0.699645	-2.27731
O	-0.307974	1.756204	-2.23135
O	-1.820939	0.448794	-3.090577
F	-2.669212	0.0	0.0
