14

C	0.0	0.0	0.0
C	-0.424886	-0.056849	-1.487039
Br	1.929389	0.0	0.0
H	-1.508498	-0.195487	-1.391729
H	-0.224298	0.94672	-1.874594
C	-0.479716	1.198725	0.674092
N	-0.622421	2.249474	1.183924
N	-0.459577	-1.226204	0.772297
O	-0.472316	-1.127049	1.991737
O	-0.686293	-2.239646	0.129729
N	0.287657	-1.068321	-2.252002
H	-0.355383	-1.801166	-2.510112
H	0.683409	-0.669226	-3.08927
F	-2.469037	0.0	0.0
