14

C	0.0	0.0	0.0
C	-0.401924	-0.027201	-1.498929
Br	1.946524	0.0	0.0
H	-1.482088	-0.179126	-1.435219
H	-0.202571	0.986678	-1.858992
C	-0.48792	1.186168	0.684241
N	-0.633551	2.247891	1.169773
N	-0.451177	-1.248095	0.73053
O	-0.60061	-2.257128	0.057261
O	-0.529181	-1.177875	1.948196
N	0.342833	-1.000666	-2.283416
H	-0.242931	-1.803413	-2.45612
H	0.624763	-0.602145	-3.166804
F	-2.433101	0.0	0.0
