14

C	0.0	0.0	0.0
C	-0.428728	0.07017	-1.490376
Br	1.935904	0.0	0.0
H	-0.382844	1.13413	-1.745928
H	-1.481816	-0.211007	-1.430605
C	-0.475116	1.136363	0.777191
N	-0.609215	2.139595	1.377818
N	-0.440997	-1.288377	0.66479
O	-0.480942	-1.283568	1.886723
O	-0.601366	-2.260835	-0.057488
N	0.378736	-0.750954	-2.379272
H	0.868803	-0.183552	-3.054909
H	-0.223766	-1.396297	-2.868699
F	-2.440905	0.0	0.0
