11

C	0.0	0.0	0.0
C	-0.316334	0.16795	-1.494526
F	1.380247	0.0	0.0
H	-0.057436	1.196789	-1.764818
H	-0.357962	-0.943075	0.392465
H	0.398898	-0.473659	-2.023511
C	-0.466664	1.115877	0.827749
N	-0.550642	2.077256	1.498373
C	-1.656133	-0.130214	-2.015644
N	-2.444274	-0.360333	-2.861728
F	-2.332487	0.0	0.0
