11

C	0.0	0.0	0.0
C	-0.505408	-0.238431	-1.415539
F	1.377397	0.0	0.0
H	-1.623864	-0.255232	-1.209856
H	-0.368076	-0.795073	0.644252
H	-0.218157	0.593273	-2.063862
C	-0.464754	1.278402	0.562281
N	-0.633047	2.30766	1.101057
C	0.032821	-1.48218	-1.941336
N	0.449557	-2.49911	-2.358012
F	-2.581978	0.0	0.0
