11

C	0.0	0.0	0.0
C	-0.451349	0.498838	-1.382728
F	1.379913	0.0	0.0
H	-1.225545	1.251097	-1.26852
H	-0.361497	-1.001705	0.201866
H	0.43086	0.900333	-1.901599
C	-0.442191	0.902351	1.073154
N	-0.520476	1.64876	1.976848
C	-0.997092	-0.587577	-2.189276
N	-1.330779	-1.461798	-2.895994
F	-2.349125	0.0	0.0
