15

C	-0.36912	-0.17349	-1.461585
C	0.0	0.0	0.0
F	-1.577692	-0.819739	-1.618577
H	1.091147	0.0	0.0
H	-0.310343	-0.930438	0.496439
N	-0.54734	1.207085	-2.087367
O	0.482152	1.844166	-2.246052
O	-1.680781	1.582533	-2.35545
N	0.609917	-0.86664	-2.239308
H	1.532898	-0.570101	-1.904437
H	0.524855	-1.851406	-2.011434
N	-0.532183	1.207767	0.609405
H	-1.289244	1.004535	1.246956
H	0.216852	1.652131	1.12176
H	2.912	0.0	0.0
