15

C	-0.310261	-0.016142	-1.477497
C	0.0	0.0	0.0
F	-0.084826	-1.25626	-1.979985
H	1.095178	0.0	0.0
H	-0.346863	0.956135	0.400071
N	-1.789634	0.276386	-1.71876
O	-2.143615	1.425102	-1.449021
O	-2.519815	-0.617152	-2.122868
N	0.431481	0.928058	-2.246925
H	0.146803	1.854959	-1.955156
H	1.40754	0.807576	-1.961009
N	-0.627905	-1.12131	0.701674
H	-0.781021	-0.848549	1.666122
H	0.055938	-1.872096	0.724898
H	2.95804	0.0	0.0
