15

C	-0.426617	-0.0896	-1.443936
C	0.0	0.0	0.0
F	-1.801407	-0.190097	-1.539339
H	1.092023	0.0	0.0
H	-0.398694	0.907204	0.465661
N	-0.088179	1.233428	-2.125949
O	0.831179	1.259601	-2.936188
O	-0.767435	2.198683	-1.780756
N	0.159919	-1.149632	-2.182615
H	1.16315	-0.963675	-2.204025
H	0.033201	-1.959897	-1.579755
N	-0.394906	-1.24996	0.655418
H	0.370079	-1.526123	1.260942
H	-1.224663	-1.122527	1.217117
H	2.901256	0.0	0.0
