15

C	-0.559309	-0.003626	-1.400898
C	0.0	0.0	0.0
F	0.0721	0.966104	-2.157244
H	1.094072	0.0	0.0
H	-0.377487	-0.87786	0.522475
N	-0.276113	-1.307308	-2.13855
O	-0.074188	-2.314255	-1.472506
O	-0.35559	-1.2618	-3.364264
N	-1.9639	0.151948	-1.426366
H	-2.256751	0.430309	-2.355519
H	-2.161974	0.885452	-0.751636
N	-0.501127	1.235034	0.647281
H	0.242911	1.919657	0.549157
H	-0.572665	1.053032	1.64059
H	2.966082	0.0	0.0
