15

C	-0.320759	-0.154654	-1.463171
C	0.0	0.0	0.0
F	-0.139297	-1.455053	-1.831366
H	1.097868	0.0	0.0
H	-0.343721	0.991069	0.310088
N	-1.797636	0.151912	-1.731361
O	-2.560194	-0.769815	-1.984
O	-2.113888	1.337331	-1.636588
N	0.451768	0.676399	-2.327384
H	0.176211	1.6364	-2.162236
H	1.421066	0.577242	-2.011085
N	-0.655789	-1.028696	0.812124
H	-0.232212	-1.912797	0.550519
H	-0.368145	-0.867763	1.771793
H	2.965199	0.0	0.0
