12
Coordinates from ORCA-job run
  C   0.40137302335719     -0.62297004345461      0.20902071179458
  C   -0.73740299524252      0.02370367621515     -0.12605055865067
  H   0.33139131562338     -1.69737189914437      0.37832960020190
  C   1.73916141336775      0.01863563981604      0.40306916023707
  H   1.71195136794209      1.08702575760234      0.18241977227660
  H   2.08455090318337     -0.10435151072095      1.43416531191484
  H   2.48942308550781     -0.44361666210822     -0.24496560116226
  C   -0.71569155062788      1.44161687132848     -0.37040551012298
  N   -0.70328143219932      2.59563804632260     -0.59685140812520
  N   -2.01988497514834     -0.54494233829895     -0.16978121550219
  H   -2.58527337509861     -0.19747590703080     -0.93127557735408
  H   -1.99631678066492     -1.55489163052670     -0.16767468550761
