12
Coordinates from ORCA-job run
  C   0.66432557438309      0.40312447669912      0.39247351940289
  C   -0.65720991543854      0.43324698506961      0.10511534179189
  H   1.08819783700656      1.24601360020897      0.92651770869840
  C   1.53246977766395     -0.76157098228226      0.02129328057683
  H   2.54237042939341     -0.64024761445502      0.41215635649222
  H   1.13061635917637     -1.69960219866790      0.41976356386770
  H   1.61666091146961     -0.87780317832453     -1.06632823042013
  C   -1.45205988287359      1.55672647517254      0.51535452207900
  N   -2.11511327147953      2.47522406801992      0.83161601314155
  N   -1.36524582979711     -0.61246364325469     -0.49705279713084
  H   -0.78886553662800     -1.20739595792439     -1.07398518457071
  H   -2.19614645287621     -0.31525203026134     -0.98592409392879
