12
Coordinates from ORCA-job run
  C   0.62304018111120      0.42973555193825      0.39664589781409
  C   -0.65065803011391      0.43901153685005     -0.05844229272206
  H   0.96044934949656      1.28775588494932      0.96569437292580
  C   1.57269374784613     -0.70677377325168      0.15342895232050
  H   1.50224811473311     -1.46388107236086      0.94224082126569
  H   2.59919363547533     -0.33970615141265      0.14225063950029
  H   1.37351649070514     -1.19327209511677     -0.80549627672362
  C   -1.46539389941020      1.59768407207543      0.18419715134560
  N   -2.13366613754029      2.54266811343981      0.39132776342928
  N   -1.23642068438868     -0.56774926363317     -0.83282388778908
  H   -2.24397503580696     -0.53086472972405     -0.84733401353044
  H   -0.90102773210744     -1.49560807375370     -0.63068912783604
