12
Coordinates from ORCA-job run
  C   0.59649320453817      0.53286003196837      0.34597072588269
  C   -0.63169284367142      0.43142528332598     -0.21138205280907
  H   0.91782799586841      1.50654090610637      0.69820188833620
  C   1.51757417104425     -0.64452741994010      0.45894409837815
  H   1.13596900176318     -1.40163222594741      1.15547426792738
  H   1.65569757203248     -1.13546090375130     -0.51064476831479
  H   2.50044766440078     -0.34131473583062      0.81846668114232
  C   -1.46088785831403      1.59717309548745     -0.33616490339574
  N   -2.16204452171495      2.53616043144579     -0.43539862854805
  N   -1.15054944640406     -0.73456384393078     -0.78570702914037
  H   -2.15866714656207     -0.76759505592668     -0.80008713593318
  H   -0.75916779298074     -1.58006556300708     -0.39667314352554
