12
Coordinates from ORCA-job run
  C   0.46966428343820     -0.60439369063739     -0.08970725182068
  C   -0.73190784970742      0.01139733117253     -0.15355047532434
  H   0.49787092709960     -1.66404458302910     -0.34372660429873
  C   1.76484405940373      0.05400809589318      0.26685417971289
  H   2.46684169734997      0.01405920753451     -0.57172000778797
  H   2.24115410915282     -0.45564330369038      1.10950325026977
  H   1.62483474883958      1.10158290887958      0.53881110239419
  C   -0.84518994745294      1.40756149216842      0.17633764731701
  N   -0.95354108530972      2.54136797455956      0.46952432582421
  N   -1.92376531015290     -0.56384560624507     -0.62164731725336
  H   -2.73874102062834     -0.27082479881992     -0.10177073894830
  H   -1.87206461203258     -1.57122502778591     -0.67690811008470
