12
Coordinates from ORCA-job run
  C   0.46450674738769     -0.61169743715416      0.06310811800060
  C   -0.73964740206757     -0.02227939210288     -0.10907753826611
  H   0.49964201399634     -1.69864116979578     -0.01113700297384
  C   1.74205590754704      0.09956706978528      0.37946757083544
  H   1.60881008949744      1.18259348203971      0.39610197259297
  H   2.51246307342414     -0.13723647762235     -0.36017775126653
  H   2.12842948404114     -0.20786791488420      1.35609412504096
  C   -0.85908396962020      1.40980205913371     -0.03287607881815
  N   -0.96311113822478      2.58080807707627      0.00086192207214
  N   -1.96416912012090     -0.69041772531104     -0.26619202385406
  H   -1.84585535647988     -1.66732705079897     -0.49465101953756
  H   -2.58404032938048     -0.23730352036560     -0.92252229382586
