12
Coordinates from ORCA-job run
  C   0.48532445721474     -0.59499946871191     -0.15478549529524
  C   -0.69903493942091      0.04633565904450     -0.25020552372212
  H   0.54764817293494     -1.60663328876239     -0.55453427600836
  C   1.73249137246535     -0.03720412477852      0.45000954699104
  H   2.01934097621905     -0.61664377618299      1.33212915236895
  H   1.61688094934972      0.99998949592881      0.76359216908663
  H   2.56267088905294     -0.10108310132447     -0.26076509743182
  C   -0.84304034687892      1.38282437041161      0.26896596502274
  N   -0.99450568887909      2.46455997181234      0.70754866711878
  N   -1.85835599462378     -0.41769996558163     -0.86361454871390
  H   -1.85034508709862     -1.41751563408998     -0.99614374123427
  H   -2.71907476033542     -0.10193013776537     -0.44219681818245
