12
Coordinates from ORCA-job run
  C   0.52429595461139     -0.54466280502569     -0.27412095926687
  C   -0.72454282929400     -0.11633469482443      0.00999429911004
  H   0.60349737615011     -1.46681291241778     -0.84852966014765
  C   1.79070238814065      0.14952129475712      0.11346125209979
  H   2.33971661332609      0.48582916580111     -0.77139399093403
  H   2.44994423248842     -0.53096618610670      0.66013287581436
  H   1.60041153182596      1.01951934488717      0.74438842061398
  C   -0.91998003507381      1.06609781809179      0.80595939670755
  N   -1.11082099222569      2.02301358413676      1.46371360299270
  N   -1.89270862884894     -0.78975747192884     -0.40575244074059
  H   -1.91833308200701     -0.95743161064898     -1.40011711618903
  H   -2.74118252909318     -0.34001552672154     -0.09873568006026
