12
Coordinates from ORCA-job run
  C   0.70803825469888      0.29009350308415     -0.41530862560752
  C   -0.61898269430961      0.45171519624500     -0.20844205144813
  H   1.19346379646010      0.93909190766291     -1.13533041318879
  C   1.51183622184839     -0.72800751237611      0.33674829030632
  H   1.40384551686102     -0.59889964882123      1.41928951951738
  H   2.57168957213645     -0.64848772863912      0.09618793131771
  H   1.20022325569292     -1.75222515343242      0.09707066964912
  C   -1.33591985496212      1.46671480205132     -0.92845865957108
  N   -1.94140243208556      2.28393746123810     -1.51895865917498
  N   -1.36654222594348     -0.24499323836643      0.74721764835854
  H   -0.97711703496726     -1.14615312480834      0.98233129551266
  H   -2.34913237542974     -0.31178646383784      0.52865305432876
