12
Coordinates from ORCA-job run
  C   0.46168012118358     -0.61092074129424     -0.08437836829638
  C   -0.74439700364412     -0.00085689176654     -0.07430614045376
  H   0.48448945423285     -1.66135205117708     -0.37415199416501
  C   1.75945567692010      0.02523453465716      0.30261031063220
  H   2.48856349333713     -0.05296177582822     -0.50895752168309
  H   1.63600648947861      1.08169806846976      0.54671245361574
  H   2.19359743308943     -0.47411942305524      1.17426376358973
  C   -0.84727820179037      1.38703071556704      0.29150076425398
  N   -0.93898656784433      2.52757861978201      0.56344344805098
  N   -1.98056407407647     -0.62692671502917     -0.29743868107970
  H   -1.88215174620112     -1.53949172137770     -0.71955361173687
  H   -2.63041507468529     -0.05491261894778     -0.81774442272781
