12
Coordinates from ORCA-job run
  C   0.40234742074599     -0.60952776254549      0.24657574188363
  C   -0.70732971208394     -0.01205245432126     -0.24201947302671
  H   0.33258572946390     -1.67185638352800      0.47982408668483
  C   1.72532005345112      0.05675069691932      0.45851130057182
  H   2.49598750059646     -0.39868417029331     -0.17103472251651
  H   1.68505304169760      1.12179150893065      0.22394496891921
  H   2.05283452312968     -0.05075848818689      1.49661495589723
  C   -0.68924538930831      1.39032979708546     -0.56447129273631
  N   -0.69547500340013      2.54087457212525     -0.80771496864151
  N   -1.90620946680890     -0.65991837863133     -0.57797023533729
  H   -1.96667119847435     -1.59015778173673     -0.18856874701346
  H   -2.72919749900911     -0.11879115581767     -0.35369161468492
