12
Coordinates from ORCA-job run
  C   0.49876292048584     -0.57904551058317     -0.10054303653024
  C   -0.74377394039068     -0.04835125998743     -0.06129016961343
  H   0.58430259761177     -1.62124544472721     -0.40767363344594
  C   1.75938425622244      0.13400902703780      0.27560039974946
  H   2.24053250066110     -0.34802431084280      1.13247598934455
  H   2.47709875127712      0.11490379470999     -0.54959865666246
  H   1.57150266380039      1.17634230422276      0.53836513945975
  C   -0.93051133476768      1.32401202344262      0.32908961943271
  N   -1.09259063100749      2.45224559800193      0.61917312632310
  N   -1.94063741594177     -0.74880589609553     -0.27814625401684
  H   -2.63371496435036     -0.21113894006641     -0.77872156509053
  H   -1.79035540360067     -1.64590138511255     -0.71773095895013
