12
Coordinates from ORCA-job run
  C   0.50267818846802      0.50897813027149      0.39799166077202
  C   -0.68744038805845      0.42141778431024     -0.24509570039005
  H   0.90214053357986      1.50225659798653      0.59732007750328
  C   1.46187184862536     -0.63187007050254      0.58449905962216
  H   2.11929623702390     -0.67244782303210     -0.28302540765555
  H   2.08922034265343     -0.49887285571906      1.46508344704186
  H   0.96266923874792     -1.59933042340003      0.67585324083537
  C   -1.45905366682088      1.62373592616830     -0.41888459382813
  N   -2.08682358650691      2.61726698278898     -0.50108217072721
  N   -1.39301426166826     -0.76286447618628     -0.58064925087596
  H   -1.40977772003843     -0.94130067544891     -1.58319001126127
  H   -1.00176676600555     -1.56596909723663     -0.10782035103651
