12
Coordinates from ORCA-job run
  C   0.46613649520045     -0.61311804083510      0.02540341318932
  C   -0.72503075136680     -0.01269692986884     -0.19210689608749
  H   0.49853483448384     -1.69676355594004     -0.05600312258446
  C   1.75235000370464      0.09182833869600      0.32036552264796
  H   2.43406689074032      0.04533495393637     -0.53484103478969
  H   1.58853624405620      1.14474189121148      0.56061434132294
  H   2.26084777448823     -0.37233503051125      1.16875035544112
  C   -0.84232368364495      1.41626353381020     -0.06583059658667
  N   -0.94745249947602      2.57997324590100      0.06811403368907
  N   -1.90190851003757     -0.65009713219542     -0.62189217045719
  H   -1.85041689063420     -1.65247754935276     -0.49683187067110
  H   -2.73133990751412     -0.27965372485164     -0.17674197511380
