12
Coordinates from ORCA-job run
  C   0.69678208559684      0.30158580406055     -0.43123783482069
  C   -0.65096638424207      0.32516643151434     -0.31466199027173
  H   1.15419691254192      0.95153968127687     -1.16871189114485
  C   1.54829236315534     -0.60818768908685      0.40253368815267
  H   1.49379874051297     -0.35959354870131      1.46968053432475
  H   2.59550795852940     -0.54684401699055      0.10971110611287
  H   1.23095982537298     -1.65129945029731      0.29607118126172
  C   -1.42848191140735      1.18151976074832     -1.16554118257729
  N   -2.08228327206646      1.88297989405462     -1.84688554592132
  N   -1.38885469531512     -0.51346870632691      0.52845480152069
  H   -0.87396222225981     -0.81651605282475      1.34188671565193
  H   -2.29498940041866     -0.14688210742702      0.77870041771125
