12
Coordinates from ORCA-job run
  C   0.69510596434478      0.31265918640446     -0.42094229767329
  C   -0.64039149615353      0.40627315669306     -0.22766258272516
  H   1.16782639785767      1.03897954382880     -1.07240427789172
  C   1.51708903957920     -0.76493454239632      0.21931533914633
  H   2.51870001062088     -0.80171738554357     -0.20918845005690
  H   1.05792189838695     -1.74916206846445      0.07780217375623
  H   1.63113426672307     -0.60693966714939      1.29897717867358
  C   -1.38809284437602      1.43363739352872     -0.89672485236513
  N   -2.01281933972862      2.27748568090937     -1.42668412802672
  N   -1.39864825640773     -0.49831615258974      0.52531013215377
  H   -2.27243091470797     -0.11941379246173      0.85784289823631
  H   -0.87739472613866     -0.92955135275922      1.27435886677269
