12
Coordinates from ORCA-job run
  C   0.67031368152148      0.45676727293297      0.31637930083726
  C   -0.63494177732340      0.47535091622374     -0.03853113670466
  H   1.12082901090497      1.38474356063614      0.64986939378052
  C   1.48424660385696     -0.80210875696004      0.28636403699600
  H   1.61693868312526     -1.17886470615416     -0.73531379942653
  H   2.47798885523685     -0.63771644682610      0.70205642165078
  H   1.00538755544979     -1.59746625371337      0.86791988998311
  C   -1.38051564623541      1.69985068037198      0.04486636554049
  N   -2.00218891909985      2.69711833270830      0.09355720265057
  N   -1.37569016579989     -0.65375898814326     -0.40463089812534
  H   -2.17157198938344     -0.44983508214811     -0.99002742317854
  H   -0.81079589225331     -1.39508052892808     -0.79250935400366
