15

C	0.0	0.0	0.0
C	-0.254171	-0.020361	-1.520873
F	1.388506	0.0	0.0
H	0.193568	-0.942429	-1.900873
H	-0.356448	0.932912	0.435289
C	-0.506205	-1.218813	0.716287
H	-1.59743	-1.211987	0.695679
H	-0.114785	-2.12288	0.241556
H	-0.160369	-1.190547	1.75214
N	0.62159	1.074225	-2.114824
O	0.460101	2.20883	-1.68358
O	1.413596	0.740028	-2.990923
C	-1.551274	0.155655	-2.177037
N	-2.298159	0.298286	-3.076186
Cl	-3.550967	0.0	0.0
