15

C	0.0	0.0	0.0
C	-0.271912	0.063865	-1.520077
F	1.388581	0.0	0.0
H	0.061021	-0.883127	-1.951881
H	-0.350172	0.911924	0.484064
C	-0.513806	-1.247586	0.658723
H	-0.122607	-2.131852	0.147321
H	-1.605657	-1.233524	0.628922
H	-0.175879	-1.267078	1.697706
N	0.704833	1.087933	-2.082365
O	0.622909	2.227007	-1.642827
O	1.492633	0.696233	-2.936884
C	-1.551542	0.436109	-2.124977
N	-2.30173	0.829495	-2.942406
Cl	-3.581507	0.0	0.0
