15

C	0.0	0.0	0.0
C	-0.538927	0.166024	-1.420615
F	1.381363	0.0	0.0
H	-1.640214	0.120753	-1.333224
H	-0.345988	0.879181	0.551742
C	-0.466874	-1.268545	0.673445
H	-1.555206	-1.310452	0.652059
H	-0.045093	-2.141056	0.171905
H	-0.117185	-1.259508	1.708387
N	-0.07824	-0.979269	-2.277147
O	-0.774629	-1.990625	-2.257245
O	0.975845	-0.844757	-2.897163
C	-0.090027	1.416501	-2.024515
N	0.211839	2.449053	-2.494882
Cl	-3.587083	0.0	0.0
