15

C	-0.528448	-0.022555	-1.440404
C	0.0	0.0	0.0
F	0.094769	1.058689	-2.09324
H	1.098648	0.0	0.0
C	-0.134852	-1.237398	-2.17902
N	0.123071	-2.196194	-2.805716
N	-1.935829	0.105053	-1.441928
H	-2.28704	0.261957	-2.378274
H	-2.16898	0.877064	-0.825173
C	-0.509008	-1.154282	0.734958
N	-0.895673	-2.070595	1.359016
N	-0.5008	1.252072	0.610614
H	0.194634	1.95903	0.386228
H	-0.473649	1.141365	1.618046
Cl	3.283889	0.0	0.0
