15

C	-0.493528	0.011792	-1.45384
C	0.0	0.0	0.0
F	-1.921952	0.164916	-1.390465
H	1.094497	0.0	0.0
C	-0.04257	1.233058	-2.150908
N	0.294291	2.19353	-2.734634
N	-0.118286	-1.127958	-2.172302
H	-0.29177	-1.982271	-1.660905
H	-0.521546	-1.155592	-3.098529
C	-0.492869	-1.240548	0.615002
N	-0.899554	-2.251121	1.054425
N	-0.436157	1.153101	0.766036
H	-1.329897	1.493288	0.438431
H	0.266134	1.876689	0.689027
Cl	3.260894	0.0	0.0
