15

C	-0.567559	0.046148	-1.432328
C	0.0	0.0	0.0
F	-0.023891	1.185968	-2.005586
H	1.098836	0.0	0.0
C	-0.145079	-1.122614	-2.228325
N	0.111452	-2.068238	-2.87433
N	-1.99422	0.163285	-1.490528
H	-2.430021	-0.748639	-1.451679
H	-2.275943	0.710001	-0.680977
C	-0.51816	-1.197468	0.658271
N	-0.971114	-2.144021	1.186322
N	-0.524195	1.200101	0.684406
H	-0.348826	1.088975	1.676764
H	0.07377	1.964186	0.381557
Cl	3.284762	0.0	0.0
