15

C	-0.548622	0.036576	-1.424733
C	0.0	0.0	0.0
F	-1.970906	0.133431	-1.296009
H	1.093578	0.0	0.0
C	-0.158592	1.277493	-2.120417
N	0.084209	2.239584	-2.746019
N	-0.165198	-1.081443	-2.182978
H	-0.345577	-1.950261	-1.697898
H	-0.586579	-1.079816	-3.101505
C	-0.459042	-1.253322	0.624798
N	-0.864154	-2.235735	1.127468
N	-0.432501	1.192466	0.708812
H	0.257411	1.421668	1.412064
H	-1.337944	1.067791	1.139643
Cl	3.265288	0.0	0.0
