15

C	-0.354373	0.047391	-1.498079
C	0.0	0.0	0.0
F	-0.152918	-1.211847	-2.02553
H	1.095087	0.0	0.0
C	-1.78795	0.389503	-1.672859
N	-2.922986	0.673523	-1.767444
N	0.459479	0.973253	-2.226882
H	1.430649	0.750126	-1.997688
H	0.279566	1.897306	-1.84729
C	-0.544901	-1.181404	0.670616
N	-0.99972	-2.090099	1.261367
N	-0.404897	1.269616	0.596456
H	-1.324316	1.205469	1.015575
H	0.266416	1.520893	1.311306
Cl	3.268193	0.0	0.0
