15

C	-0.565491	0.034157	-1.433496
C	0.0	0.0	0.0
F	-0.016389	1.1651	-2.017881
H	1.100074	0.0	0.0
C	-0.145441	-1.144979	-2.215291
N	0.116673	-2.098211	-2.847112
N	-1.99162	0.157034	-1.493363
H	-2.271759	0.712779	-0.689335
H	-2.432503	-0.751732	-1.451332
C	-0.521915	-1.189633	0.669025
N	-0.983153	-2.129185	1.202053
N	-0.522565	1.208281	0.670946
H	-0.358629	1.102538	1.666336
H	0.084203	1.966485	0.369157
Cl	3.284865	0.0	0.0
