15

C	-0.514	-0.085781	-1.443706
C	0.0	0.0	0.0
F	-0.127183	1.02941	-2.137224
H	1.095118	0.0	0.0
C	0.067677	-1.259839	-2.150711
N	0.397322	-2.215758	-2.74895
N	-1.959627	-0.107422	-1.459423
H	-2.275012	-0.112664	-2.423419
H	-2.290464	-0.957781	-1.016132
C	-0.478597	-1.200123	0.710138
N	-0.952543	-2.114447	1.278093
N	-0.433934	1.245986	0.5985
H	0.2358	1.513022	1.307444
H	-1.359894	1.175412	0.996051
Cl	3.271067	0.0	0.0
