15

C	-0.493988	0.00192	-1.453853
C	0.0	0.0	0.0
F	-1.923151	0.150856	-1.390342
H	1.094455	0.0	0.0
C	-0.047857	1.219937	-2.158475
N	0.28383	2.17806	-2.749256
N	-0.115651	-1.141208	-2.165475
H	-0.519735	-1.176192	-3.091071
H	-0.284952	-1.992783	-1.648115
C	-0.491845	-1.23775	0.622812
N	-0.896954	-2.24608	1.068806
N	-0.437648	1.157013	0.758476
H	-1.332526	1.493642	0.430323
H	0.262824	1.881584	0.676617
Cl	3.261056	0.0	0.0
