16

C	-0.467661	0.02336	-1.4298
C	0.0	0.0	0.0
F	-1.884016	0.07067	-1.464051
H	1.092718	0.0	0.0
H	-0.181764	-0.91025	-1.914829
C	0.089008	1.220529	-2.155626
H	-0.201382	1.200318	-3.209758
H	-0.282296	2.131343	-1.686506
H	1.179738	1.199441	-2.065799
N	-0.39231	-1.308267	0.625978
O	-0.850509	-1.298443	1.772942
O	-0.159904	-2.337555	-0.010822
N	-0.441166	1.130882	0.748382
H	0.177005	1.244632	1.542175
H	-1.381104	0.986911	1.090493
H	2.701246	0.0	0.0
