16

C	-0.546077	-0.022842	-1.424691
C	0.0	0.0	0.0
F	-0.48519	1.299787	-1.916369
H	1.096216	0.0	0.0
H	-1.608084	-0.288526	-1.428183
C	0.269734	-0.893084	-2.352032
H	1.324906	-0.631541	-2.248796
H	-0.060483	-0.744171	-3.384108
H	0.138427	-1.939479	-2.081174
N	-0.411962	-1.231791	0.723663
O	-0.141567	-1.269773	1.921732
O	-0.940368	-2.165281	0.10146
N	-0.481621	1.135236	0.768146
H	-0.646645	1.885715	0.11177
H	0.293167	1.428044	1.35446
H	2.752136	0.0	0.0
