16

C	-0.47417	-0.009279	-1.427897
C	0.0	0.0	0.0
F	-1.889511	0.050176	-1.45494
H	1.091258	0.0	0.0
H	-0.199522	-0.957509	-1.891386
C	0.089911	1.164438	-2.185355
H	-0.264736	2.090563	-1.73245
H	1.180939	1.132942	-2.107679
H	-0.211648	1.124335	-3.235244
N	-0.388077	-1.293698	0.658994
O	-0.167442	-2.336869	0.040882
O	-0.832726	-1.257319	1.813141
N	-0.437831	1.147947	0.725399
H	-1.369671	1.007397	1.092186
H	0.196109	1.289281	1.502341
H	2.700271	0.0	0.0
