15
Coordinates from ORCA-job run
  C   -0.85125423618941      0.34625225622718     -0.34387429201759
  C   0.48189404260335      0.54117029623633      0.40043980291846
  Br  -1.83273893065811      2.00812195047269     -0.48099646989191
  H   0.22816353061892      0.98921339124512      1.36665892119628
  C   -0.65972578430505     -0.21964292369538     -1.66820223733563
  N   -0.44325189094595     -0.65484947616052     -2.73933488107847
  N   -1.69676240126053     -0.61938321463903      0.50864386324300
  O   -2.13204522520824     -1.61810206559734     -0.04645105954521
  O   -1.83069765935133     -0.29924777175423      1.67976486063974
  C   1.31914549322681      1.47587688171706     -0.34954317487076
  N   2.02749556338197      2.19906204351154     -0.94507341039849
  C   1.20661470271911     -0.79379486629861      0.60951853693128
  H   2.15184836102064     -0.61143697003925      1.12272661670025
  H   1.42132001611322     -1.27763396234635     -0.34510086016628
  H   0.60999441823459     -1.46460556887921      1.22982378367534
