15
Coordinates from ORCA-job run
  C   -0.88729463555139      0.24826327722048     -0.33599703280167
  C   0.40156784408131      0.57592882151380      0.43914858806164
  Br  -2.08315962852788      1.76871110107391     -0.39140897866596
  H   0.08234642095067      0.92918515923235      1.42502890784778
  C   -0.61089773544024     -0.20527519197032     -1.68820894900260
  N   -0.32824311173195     -0.53743605613243     -2.78066882219409
  N   -1.60167840296870     -0.87119487683713      0.44457360837815
  O   -1.78509728064583     -0.64421952385671      1.63057174685147
  O   -1.89582410301166     -1.88309534214658     -0.17574948636282
  C   1.11119051943698      1.65575772646433     -0.24464071182127
  N   1.71916127789261      2.49965137464029     -0.79005115498829
  C   1.29736439528922     -0.66013163670205      0.58375454755533
  H   1.58040225653445     -1.05625558815493     -0.39327825442593
  H   0.79241233894256     -1.43844213302874      1.15827379370392
  H   2.20674984474984     -0.38244711131625      1.11865219786432
