15
Coordinates from ORCA-job run
  C   -0.91169171485319      0.29924784037947     -0.29008936770500
  C   0.58316550648256      0.55681256100808      0.03236758169708
  Br  -2.04131133966344      1.37629361755299      0.84553083785064
  H   0.70549096459803      1.64474433144734     -0.01747569019482
  C   -1.22547175227493      0.59549496948486     -1.67823545817404
  N   -1.46264215433959      0.88154578652955     -2.79425776618662
  N   -1.17765536212989     -1.20238461384977     -0.04117593261509
  O   -1.59417040604466     -1.53765361826415      1.05396874957096
  O   -0.84558224281394     -1.92462814515367     -0.97302559834139
  C   1.43133760116646     -0.03188427489617     -1.00747965405973
  N   2.16456540582646     -0.49077651346196     -1.80255179611599
  C   1.00603731973019      0.04892032762004      1.41424174176813
  H   1.00315676984472     -1.04101857312909      1.44996465570907
  H   0.34265380999799      0.43280933260449      2.18867445681984
  H   2.02111759447324      0.39247697212796      1.61854323997695
