15
Coordinates from ORCA-job run
  C   -0.86871153889057     -0.17097244312847     -0.05791906299840
  C   0.66196519938136      0.03760989623522     -0.05739908653365
  Br  -1.51856871511807     -0.87175900153375      1.60843077318859
  H   0.90173474641292      0.39074752139195     -1.06750864758925
  C   -1.54962313509666      1.07753572991389     -0.36579643018473
  N   -2.06287688346939      2.10902130794548     -0.60313645740304
  N   -1.17168818691522     -1.15766651616613     -1.22507953026608
  O   -1.56972605478556     -2.27701034898942     -0.96593934001073
  O   -0.91949311127782     -0.68086945741793     -2.32431446555042
  C   1.32883753411058     -1.24979471467692      0.14023458640603
  N   1.89087097204659     -2.26703177968035      0.31041806610110
  C   1.12661691325730      1.07319516993085      0.96790732195715
  H   2.20096419064139      1.22815140071307      0.85631399628994
  H   0.92856290405892      0.73387838628916      1.98412664149762
  H   0.62113516564424      2.02596484917335      0.79966163509587
