15
Coordinates from ORCA-job run
  C   -0.87006608977378     -0.03682480747777     -0.16496682059987
  C   0.66058258548574     -0.07708852531462      0.03945828498096
  Br  -1.83989582026580     -0.35030810024839      1.46385771994524
  H   1.08495508279408      0.06804521175938     -0.96122500847832
  C   -1.27236119619250      1.23869551079178     -0.73785349730367
  N   -1.56311805306320      2.28838556062724     -1.18183414441208
  N   -1.19641016429774     -1.13674413791693     -1.21902058146449
  O   -0.72701746866893     -0.88861291654671     -2.32229333190234
  O   -1.81832280541143     -2.12247281446850     -0.87275898143987
  C   1.05365820724070     -1.40720839566116      0.50577722484526
  N   1.39472010249383     -2.46546573204371      0.88476772485986
  C   1.17161021195655      1.02089037839136      0.97331206169149
  H   2.26144763089837      0.98002167931117      1.00854578154217
  H   0.87490540536337      2.00309554206253      0.60064814188211
  H   0.78631237144074      0.88659154673433      1.98358542585354
