15
Coordinates from ORCA-job run
  C   -0.86864178148460      0.15269198770212     -0.42890703582074
  C   0.36347653337989      0.66024173412797      0.34153840756027
  Br  -2.08436578405252      1.59843194216121     -0.84840805079602
  H   -0.02330018616434      1.18211811069137      1.22286410166447
  C   -0.50053403807046     -0.54725671196108     -1.64747967759262
  N   -0.14445716081527     -1.08330440932231     -2.63213667242319
  N   -1.61175955391331     -0.81470432508335      0.51240872372216
  O   -1.87035653795477     -0.36866175730869      1.61961711622679
  O   -1.85153130580950     -1.93475696942782      0.08471051762678
  C   1.09214996286565      1.61546945646946     -0.49109531411415
  N   1.71298786506281      2.36656752068975     -1.14664971674726
  C   1.27295839837443     -0.49790642158568      0.76857657815024
  H   2.13775610404547     -0.09682620341115      1.29897554481298
  H   1.62963224532814     -1.05692517356295     -0.09837341645347
  H   0.74698523920838     -1.17417878017884      1.44435889418375
