15
Coordinates from ORCA-job run
  C   -0.85003425734678      0.13260500703723     -0.47166926884032
  C   0.36815176865288      0.68083195490634      0.29323126362191
  Br  -2.01370980601233      1.56066726581361     -1.06336147409174
  H   -0.03468692777884      1.28984462167014      1.10913921109249
  C   -0.45897189005630     -0.68306178993690     -1.60835924880411
  N   -0.08312606150373     -1.31389101167077     -2.52732558421934
  N   -1.64813339589804     -0.72807238247953      0.52591266385382
  O   -1.93594670109082     -0.17593024321762      1.57674674121225
  O   -1.89912614898459     -1.87790864654750      0.19447306861504
  C   1.14969444983251      1.53824702199068     -0.59624275889451
  N   1.81513581893865      2.20736064764908     -1.29546021250568
  C   1.23228705855500     -0.45402144857951      0.85597061038391
  H   0.66708968591129     -1.05099229811713      1.57371566116661
  H   1.60029534329500     -1.10039062553393      0.05697845751017
  H   2.09108106348609     -0.02628807298419      1.37525086989949
