15
Coordinates from ORCA-job run
  C   -0.88219258575854     -0.04395300934120     -0.06739785862029
  C   0.66129525755297     -0.08320363290331     -0.01947538314008
  Br  -1.67660910909102     -0.13629823571237      1.67948470075605
  H   0.97907829902402     -0.07354484958529     -1.06903986269804
  C   -1.33908872363317      1.15625450815370     -0.75125402355173
  N   -1.67698912093158      2.14406147269278     -1.29286461335447
  N   -1.32063137140200     -1.26063134179566     -0.93570775783272
  O   -0.96907614837408     -1.15882212879805     -2.10418014945722
  O   -1.90679981845480     -2.18520480226056     -0.40644696957845
  C   1.09726711182225     -1.34908270838296      0.57134646574399
  N   1.47300235350970     -2.35398375760034      1.04961050171664
  C   1.27080218423806      1.11630820266539      0.70761827039492
  H   0.98870307239947      1.12132883938892      1.76012154107727
  H   0.94384526328571      2.04749571431671      0.24079392000981
  H   2.35839333581300      1.05927572916224      0.63939121853431
