15
Coordinates from ORCA-job run
  C   -0.82115207851980     -0.22198112510829     -0.05914050870924
  C   0.69123093853849      0.04769612050881     -0.10269541688121
  Br  -1.34676333415727     -1.15780509946202      1.55079902159451
  H   0.89753749835327      0.43917819560915     -1.10507183753301
  C   -1.57740488998168      1.01734303536251     -0.16636809457077
  N   -2.14685761101330      2.04162516501435     -0.26899683621410
  N   -1.26178330678205     -1.09206084033071     -1.27167304442404
  O   -2.44735110266067     -1.37069926067010     -1.32015230958985
  O   -0.38905007853425     -1.38617253153171     -2.07643332827961
  C   1.43873944202668     -1.20070868003779      0.05186459232757
  N   2.08356325696484     -2.16778830607389      0.21819639414354
  C   1.13061003823882      1.07337475713677      0.94787733183488
  H   0.60975502968513      2.02083464041938      0.80073957285576
  H   2.20243093196654      1.24850759096744      0.84490893287699
  H   0.93649526587525      0.70765633819611      1.95614553056857
