15
Coordinates from ORCA-job run
  C   -0.86843960312219     -0.15094461893650     -0.09363287509599
  C   0.66568063093603      0.01770050867483     -0.02895318695498
  Br  -1.60960100404194     -0.79507266095335      1.55768122242192
  H   0.96037018552432      0.33633522949366     -1.03599581836535
  C   -1.50273590440024      1.10656079266109     -0.45860128281036
  N   -1.98218544045975      2.14444738752291     -0.73494200452292
  N   -1.14630694776572     -1.15706940839532     -1.25027615286060
  O   -0.83489412500447     -0.71319189475686     -2.34806143825542
  O   -1.58400193394903     -2.25967642732903     -0.98343782992359
  C   1.28697886350343     -1.28053452816344      0.23475769541549
  N   1.80918006503671     -2.30858658787957      0.45897888829178
  C   1.11198868184303      1.06981884216464      0.98790635091568
  H   0.64660775158916      2.03194985816584      0.76579436919746
  H   0.85236235086251      0.76874635710888      2.00238258328923
  H   2.19499642944818      1.18751715062221      0.92639947925764
