15
Coordinates from ORCA-job run
  C   -0.86988052966838     -0.16489018970800     -0.04282554772367
  C   0.66207264105342      0.03229524188301     -0.06929323342419
  Br  -1.49454441344438     -0.85903135468307      1.63636649539690
  H   0.88656740290487      0.38028563435470     -1.08478185991479
  C   -1.54848932718973      1.08771588488238     -0.33840250066776
  N   -2.06678796082255      2.12028359157809     -0.55902669752079
  N   -1.20073959621827     -1.15069983425969     -1.20250619947728
  O   -0.96671955410931     -0.67685360003556     -2.30701644327108
  O   -1.60028336326363     -2.26737489116014     -0.93467362410180
  C   1.32227256713726     -1.25978212301490      0.12059565473485
  N   1.87693987867865     -2.28275621617897      0.28091707977292
  C   1.15209252750704      1.06830876122428      0.94348077270342
  H   0.65583193200735      2.02594946220897      0.77536815203371
  H   2.22668238105236      1.20960213481733      0.81738688025067
  H   0.96298541437532      0.73794749809156      1.96441107120888
