15
Coordinates from ORCA-job run
  C   -0.87533701834225     -0.04416889457306     -0.13291323926488
  C   0.66112622374966     -0.07981531054556      0.02255913486253
  Br  -1.79018471187755     -0.23790920426051      1.54573352321988
  H   1.05259889801872     -0.00966609859854     -0.99947497574812
  C   -1.29173764507962      1.19174823934416     -0.77806349338745
  N   -1.59581173481852      2.20965697601825     -1.28288345337716
  N   -1.24171223481810     -1.21082808968413     -1.09670771782913
  O   -1.85430748710909     -2.16731480960260     -0.66269680675736
  O   -0.80993748886530     -1.04132362746243     -2.22990001004984
  C   1.06487590366364     -1.37512832267465      0.57077724078212
  N   1.41487844873371     -2.40400855665664      1.01657923502157
  C   1.20792680432067      1.07947182575491      0.85707971563845
  H   0.90320874490054      2.03410321887098      0.42398629299177
  H   0.85628621131772      1.02142397336136      1.88677321624045
  H   2.29812708620575      1.03375868070845      0.85915133765717
