15
Coordinates from ORCA-job run
  C   -0.92901740220702      0.25192856459929     -0.27251964920089
  C   0.55679341001981      0.58419061925070      0.02263719406712
  Br  -2.09101331981333      1.26584357302301      0.88816066909050
  H   0.62547415604509      1.67636645892656     -0.03778210825047
  C   -1.28292320589398      0.53812177686925     -1.65337916656032
  N   -1.55775857132436      0.81404967197477     -2.76330392641022
  N   -1.11558421783291     -1.26194445146782     -0.02687868746200
  O   -0.78676633259836     -1.96426020230605     -0.97489711045236
  O   -1.47776963173840     -1.62126004941699      1.08012934259757
  C   1.41093477391285      0.02736637124275     -1.03011035370401
  N   2.14238843246352     -0.40970595924531     -1.83886064109801
  C   1.03020680698605      0.10902494330106      1.39962195249207
  H   1.07632783986806     -0.97946695772466      1.44619593161547
  H   2.03301330531572      0.49931764355973      1.57880311833034
  H   0.36669395679727      0.47142799741370      2.18418343494519
