15
Coordinates from ORCA-job run
  C   -0.90098719626032      0.23943656188955     -0.24315273544205
  C   0.58271075452679      0.55675541085982      0.05002060293395
  Br  -2.04246024933845      1.23545522067100      0.96397357921170
  H   0.63468060942352      1.65182117536931      0.02000637997349
  C   -1.26638325332870      0.57730720630719     -1.61150058195675
  N   -1.54359452489650      0.85429690128389     -2.72100996301201
  N   -1.19970538415203     -1.27842283180429     -0.08935641403293
  O   -0.24319089508929     -2.01258850989091     -0.29725356776508
  O   -2.34813159623859     -1.60208021112464      0.15397732849533
  C   1.44633519743870      0.06789827106875     -1.02826148656210
  N   2.18353457260775     -0.27414189393852     -1.87617549526270
  C   1.07401160263447      0.07698185652857      1.41932428021160
  H   1.12233447500798     -1.00983284253299      1.45884880282578
  H   0.42285525697287      0.44646100871466      2.21166618132057
  H   2.07699063069179      0.47165267659862      1.58889308906120
