15
Coordinates from ORCA-job run
  C   -0.82240490069955     -0.21645151117687     -0.05905532772202
  C   0.69145890159707      0.04521029968292     -0.10403607837137
  Br  -1.34850328616741     -1.16657287771666      1.54252671537327
  H   0.89669405498298      0.44812592641566     -1.10213368439743
  C   -1.57193047803137      1.02827188030087     -0.14958739137153
  N   -2.13727895958067      2.05614210767574     -0.23892960077523
  N   -1.27105283478247     -1.07021255311768     -1.27992684030938
  O   -0.40346175713641     -1.35317838708558     -2.09416127033773
  O   -2.45697435746363     -1.34764172491122     -1.32535453926086
  C   1.43153298384800     -1.20981159493471      0.03232876267478
  N   2.06929247692250     -2.18398771831349      0.18401465272602
  C   1.14020658049044      1.05553884554210      0.95741558911524
  H   0.62703193846492      2.00866064108514      0.82091714131507
  H   2.21319838399871      1.22331832169989      0.85520048037456
  H   0.94419125355687      0.68058834485388      1.96178139096662
