15
Coordinates from ORCA-job run
  C   -0.86443586122635     -0.15585604347994     -0.11553450789343
  C   0.66658128019888      0.01600885509266     -0.00548559126576
  Br  -1.66581824365435     -0.70052504948199      1.54373323619814
  H   0.99823139225683      0.27348087869502     -1.01856318603281
  C   -1.48363562630157      1.07773959235742     -0.57622623202692
  N   -1.95705262987322      2.09613106738948     -0.92579338317318
  N   -1.10299766298171     -1.22895839861194     -1.21929527144300
  O   -1.54998336906600     -2.31454435621576     -0.90274093546381
  O   -0.75316313169164     -0.85054620150963     -2.32995156427496
  C   1.27503757581222     -1.26505629628947      0.35543413183554
  N   1.78871449644641     -2.27906625385696      0.65151809884386
  C   1.07850368842507      1.12668534313353      0.96202124223965
  H   2.16359262368343      1.23836855717387      0.93527492738563
  H   0.77917045511986      0.88856778543802      1.98231525818439
  H   0.62625501285213      2.07457052016568      0.66429377688665
