15
Coordinates from ORCA-job run
  C   -0.85721703247117      0.18509530274655     -0.43874484337715
  C   0.42618413421871      0.65761522896402      0.26740074962289
  Br  -1.94459834753484      1.68299934886902     -1.00390862236953
  H   0.10063826961698      1.30542060166536      1.08781858418698
  C   -0.57125892779683     -0.66870413822770     -1.57888416990833
  N   -0.28002359635368     -1.33202724233066     -2.50559665910594
  N   -1.67001977665527     -0.60643229239355      0.60325887295603
  O   -2.01101867526129     -1.74083894001971      0.30015588568622
  O   -1.87664024781030     -0.02223876560281      1.65591749442649
  C   1.22814269950697      1.44458586387688     -0.66768697874651
  N   1.90938984208016      2.05515868121240     -1.40418764349465
  C   1.23146614962371     -0.52678729264171      0.81516345127769
  H   1.51755316149473     -1.21061689207876      0.01388952823947
  H   0.65705166954141     -1.06987364386153      1.56736138940934
  H   2.14035067780072     -0.15335582017781      1.28904296119701
