15
Coordinates from ORCA-job run
  C   -0.89746190300106      0.17494867383772     -0.28545730918359
  C   0.57424231206304      0.51097335303754      0.05978312098628
  Br  -2.13548304869204      0.95818940790628      0.98790509453123
  H   0.66801839364758      1.57855616185926     -0.17546250828030
  C   -1.21940092153761      0.67979869647815     -1.61325309269814
  N   -1.41774725774214      1.14670698361454     -2.67442126868000
  N   -1.16027969653539     -1.34210894269297     -0.27643688010549
  O   -0.58177197675200     -1.98219301355720      0.58845736515136
  O   -1.95060836411644     -1.76084391009338     -1.10871669951167
  C   1.41631501642822     -0.22033724334122     -0.89259954651014
  N   2.09476730482025     -0.81749409809718     -1.64304327702103
  C   1.05418119177453      0.29628808143306      1.49886351822239
  H   0.42807807197439      0.85223465058983      2.19587073237986
  H   1.05312859007205     -0.75562762417575      1.76858769658621
  H   2.07302228759660      0.68190882320135      1.57192305413302
