15
Coordinates from ORCA-job run
  C   -0.89383273857581      0.11908633285085     -0.38320384190005
  C   0.32998234419222      0.65807662967883      0.37860903287483
  Br  -2.22613833644366      1.49802489076507     -0.64597416948075
  H   -0.05542204540732      1.08157188183246      1.31168840647380
  C   -0.52910893548210     -0.45949015656643     -1.66485438203535
  N   -0.17992103396171     -0.89532286888568     -2.70009848141745
  N   -1.52779615588234     -0.96744614069420      0.50705539198978
  O   -1.76594348212282     -0.62658933630010      1.65550582487484
  O   -1.71443182862742     -2.06446980269696      0.00056261056085
  C   0.95312621944743      1.72469634641040     -0.40311659049652
  N   1.49220876548385      2.56646157332228     -1.01977208664585
  C   1.33759031921762     -0.45778806040770      0.67942448113236
  H   2.19342097487175     -0.03505222995472      1.20770843923617
  H   0.89044972579231     -1.22124808791589      1.31799640053051
  H   1.69681620749802     -0.92051097143822     -0.24153103569716
