15
Coordinates from ORCA-job run
  C   -0.88346609448471      0.27674415424790     -0.32465590423472
  C   0.44120790331909      0.57425980541200      0.40069421187503
  Br  -2.00460228044937      1.85127881569733     -0.41933725910949
  H   0.16704242059187      0.98657778752230      1.37716284027577
  C   -0.66873826058000     -0.25063652289149     -1.66130077284791
  N   -0.43707701821184     -0.64580334868573     -2.74466846664776
  N   -1.62835570635768     -0.76909989062180      0.52593651983245
  O   -1.98546446286305     -1.79415711001247     -0.03700322339027
  O   -1.76842207276163     -0.47864881785079      1.70416450895739
  C   1.18331406460820      1.58615007317694     -0.34922703713632
  N   1.81659147268936      2.37554308946685     -0.94522073383733
  C   1.27960981589706     -0.69704181094698      0.57928809448968
  H   2.21549767250979     -0.44134662580840      1.07813893661130
  H   0.75334276731320     -1.42292900622678      1.20125676489445
  H   1.51651977877972     -1.14989059247888     -0.38522847973227
