15
Coordinates from ORCA-job run
  C   -0.82601832854135     -0.09369374844064     -0.19063989088435
  C   0.69056128131373     -0.10168535794413      0.05996349031943
  Br  -1.83324908192643     -0.32404472903750      1.44590368034352
  H   1.15844888563734     -0.11443182519680     -0.93081011293281
  C   -1.24262465088120      1.13929465255464     -0.84267522419813
  N   -1.53161722179332      2.14465114533314     -1.38092001507668
  N   -1.23216570362999     -1.24251009864833     -1.15697656851009
  O   -0.32125757092568     -1.92651680097816     -1.60224693123674
  O   -2.42227514506073     -1.32994273414911     -1.40553613917723
  C   1.08745928803763     -1.32586399610362      0.75666593158161
  N   1.44989749281163     -2.27019002188554      1.35302610666195
  C   1.16034170220255      1.13568752284465      0.83249996375004
  H   0.71213720592876      1.17013863941907      1.82530087293193
  H   2.24443324984023      1.09171952117572      0.94469917226362
  H   0.90592859698682      2.04738783105661      0.28974566416394
