15
Coordinates from ORCA-job run
  C   -0.92017112115677      0.23976361879955     -0.31027601182228
  C   0.55041693049293      0.58805067236774      0.03764692113106
  Br  -2.13323916137601      1.25623570532581      0.79537144659279
  H   0.61166334302093      1.68020321218088     -0.03063564868801
  C   -1.22437972281638      0.51065827627444     -1.70598649243726
  N   -1.45999665723553      0.77905739550237     -2.82667909893442
  N   -1.10382089285459     -1.27212337974246     -0.05596648510342
  O   -0.73171995799128     -1.98083175560350     -0.98319352252093
  O   -1.50476244509088     -1.62353728036780      1.04018077744193
  C   1.44897490988150      0.02986830694862     -0.97689175262145
  N   2.21525631180901     -0.40592811767891     -1.75344346549984
  C   0.97515276826533      0.12990112740803      1.43599320082057
  H   0.27790597099230      0.49166135073517      2.19122724304691
  H   1.03057805140493     -0.95762776842849      1.49432748681871
  H   1.96614167265452      0.53264863627855      1.65032540177567
