15
Coordinates from ORCA-job run
  C   -0.87732902254386      0.10945033515842     -0.42380435221965
  C   0.34803760591838      0.68419514635043      0.30917717540329
  Br  -2.13903796955870      1.50148146062384     -0.88798132945543
  H   -0.04361724138660      1.23365769503365      1.17137701438048
  C   -0.50311920799179     -0.62894410145879     -1.61775253352459
  N   -0.14377224864651     -1.19066311314378     -2.58675636037833
  N   -1.58133005978692     -0.83836015168069      0.56553104208989
  O   -1.84230209295764     -0.35358027657843      1.65587976043613
  O   -1.79279224725212     -1.98188153965430      0.18770731650042
  C   1.04112261468448      1.62095518163880     -0.57350796504642
  N   1.63628386718721      2.35649731941029     -1.26926835978092
  C   1.29394548003335     -0.42864567016044      0.77579388535102
  H   2.15537672316895      0.01890332818615      1.27353318532721
  H   1.65331802161684     -1.01865017837578     -0.06932879045868
  H   0.79521577751492     -1.08541543534936      1.49040031137559
