15
Coordinates from ORCA-job run
  C   -0.87891137018564      0.08020742988043     -0.42742924077370
  C   0.33131794861087      0.69870317783642      0.29573982492336
  Br  -2.17120990898334      1.43288298510537     -0.92278140118719
  H   -0.07522561612132      1.25714799247604      1.14513022730861
  C   -0.48423152882637     -0.67390872534063     -1.60467881143050
  N   -0.11000676961866     -1.24806867529388     -2.56069079360431
  N   -1.56333784549090     -0.86287702248832      0.57984035747609
  O   -1.74884329186055     -2.01804322202494      0.22467101421182
  O   -1.83700156029061     -0.36209248393971      1.65980412060450
  C   1.00471755481576      1.63162085245022     -0.60613334605973
  N   1.58511670424097      2.36405517106917     -1.31752045992847
  C   1.30190217135542     -0.38162545554367      0.78727120024537
  H   0.81725651211491     -1.03472108730386      1.51483791305561
  H   2.15168147773946      0.09656729298500      1.27652930807727
  H   1.67677552249999     -0.98084822986766     -0.04458991291872
