15
Coordinates from ORCA-job run
  C   -0.86148099286446      0.05802445023690     -0.46475340298167
  C   0.33282671270608      0.71629056096274      0.24931684180209
  Br  -2.11050778503411      1.38325545359406     -1.11893417623339
  H   -0.09327516796461      1.35001629343104      1.03386931681763
  C   -0.43854574326342     -0.79828347592363     -1.55950672637894
  N   -0.04019247197536     -1.45676484455853     -2.44901025317194
  N   -1.59915921671212     -0.78706196698602      0.59112549203588
  O   -1.79686024722127     -1.96386348530230      0.32451351710592
  O   -1.89894013734438     -0.19473255758372      1.61640187266158
  C   1.05518760626101      1.55986880980014     -0.70158208689173
  N   1.67529131537613      2.21812892733826     -1.45107937492644
  C   1.26604883696306     -0.33363310512649      0.86357230852797
  H   2.10332407892821      0.17119003302226      1.34754289744322
  H   0.74360471406058     -0.92099629899687      1.62034708029887
  H   1.66367849808467     -1.00143879390782      0.09717669389094
