15
Coordinates from ORCA-job run
  C   -0.91742253179116      0.27986534537735     -0.28307506527336
  C   0.57906993737401      0.56095233149786      0.01112477148297
  Br  -2.04357090961642      1.36534648927037      0.84812817480425
  H   0.69067883830024      1.64761333664383     -0.07796922756676
  C   -1.25386131500656      0.54874073710339     -1.67173606105699
  N   -1.51280822562794      0.81431845636743     -2.78798242761269
  N   -1.16508988191742     -1.21898645100977     -0.00345821196316
  O   -1.53708724637148     -1.53808062793451      1.11256303596141
  O   -0.86933962068415     -1.95552060105950     -0.93621298996637
  C   1.41411491737152     -0.05647580451671     -1.02303942366984
  N   2.13022322258718     -0.54153219494675     -1.81804608601062
  C   1.02887867096527      0.10410117709297      1.40203946008399
  H   1.03704513795703     -0.98389759917110      1.47546455695952
  H   0.37442909102848      0.50826730700666      2.17385387579209
  H   2.04373991543139      0.46428809827849      1.57734561803557
