15
Coordinates from ORCA-job run
  C   -0.92095280771487      0.26037258639146     -0.28982706367493
  C   0.56255499163480      0.57483566446167      0.03565639296955
  Br  -2.09380786783053      1.28628257100344      0.84938642308903
  H   0.64380528341052      1.66640614110472     -0.01977158550402
  C   -1.24223306551266      0.55585678866011     -1.67671306047348
  N   -1.48694241049399      0.85158920258691     -2.78868308557285
  N   -1.13048971727427     -1.25106756012095     -0.05149864900517
  O   -0.78470886021714     -1.95494079071648     -0.99241697716402
  O   -1.52467434750225     -1.60869329909117      1.04496821316368
  C   1.43092065507525      0.01413738179261     -1.00320904125557
  N   2.17236377119068     -0.41727639631192     -1.80580099162837
  C   1.00318270068181      0.09088684299777      1.42018370229627
  H   1.03467199805955     -0.99817395325054      1.46545080975562
  H   0.32923539133851      0.46031301649823      2.19256473480289
  H   2.00707428515459      0.46847180399414      1.61971017820138
