17

C	0.0	0.0	0.0
C	-0.6699	-0.376251	-1.322248
Cl	1.763359	0.0	0.0
H	-1.753261	-0.305931	-1.097302
N	-0.38552	1.477317	0.27058
O	0.336662	2.361409	-0.17297
O	-1.417925	1.636994	0.908784
C	-0.527125	-0.856143	1.131615
H	-0.150849	-0.485376	2.086104
H	-0.185881	-1.883754	0.992331
H	-1.619299	-0.816099	1.120537
C	-0.349611	-1.782341	-1.633598
N	-0.083116	-2.880323	-1.957787
N	-0.35995	0.545466	-2.392948
H	-1.05642	0.460735	-3.12168
H	0.557989	0.365114	-2.780116
Cl	-3.914133	0.0	0.0
