17

C	0.0	0.0	0.0
C	-0.402354	0.212721	-1.497688
Cl	1.77314	0.0	0.0
H	0.001934	-0.68708	-1.982146
N	-0.405712	1.202269	0.848095
O	-0.838483	2.189844	0.263513
O	-0.246763	1.091895	2.058114
C	-0.625677	-1.230374	0.597622
H	-0.371915	-2.102244	-0.009338
H	-1.713249	-1.086333	0.606003
H	-0.273828	-1.379029	1.616993
C	0.336579	1.344285	-2.094091
N	0.903049	2.216445	-2.63903
N	-1.786022	0.326986	-1.849838
H	-2.328127	-0.486532	-1.580906
H	-2.234188	1.095125	-1.365058
Cl	-4.272326	0.0	0.0
