17

C	0.0	0.0	0.0
C	-0.404877	-0.038613	-1.510078
Cl	1.774195	0.0	0.0
H	0.036723	-0.983834	-1.852947
N	-0.412095	1.320288	0.643877
O	-0.910722	2.17507	-0.080012
O	-0.202436	1.4246	1.846574
C	-0.621291	-1.11818	0.791874
H	-1.709064	-0.976273	0.789028
H	-0.255847	-1.102625	1.817563
H	-0.372241	-2.076151	0.330079
C	0.292858	1.015869	-2.273474
N	0.849918	1.801301	-2.944777
N	-1.791004	-0.039751	-1.867966
H	-2.290101	0.75132	-1.478693
H	-2.284627	-0.84804	-1.510515
Cl	-4.293357	0.0	0.0
