17

C	0.0	0.0	0.0
C	-0.514338	-0.343489	-1.444261
Cl	1.778449	0.0	0.0
H	0.379774	-0.618739	-2.011014
N	-0.339043	1.451634	0.391872
O	0.032417	2.324334	-0.385469
O	-0.895869	1.63563	1.464763
C	-0.505769	-0.934009	1.065797
H	-0.058905	-0.66942	2.023447
H	-0.242795	-1.954003	0.790637
H	-1.592438	-0.841052	1.124149
C	-1.078966	0.797646	-2.198562
N	-1.485701	1.577359	-2.977923
N	-1.381998	-1.508825	-1.422305
H	-2.289105	-1.21561	-1.033571
H	-1.542622	-1.788109	-2.384338
Cl	-3.786759	0.0	0.0
