17

C	0.0	0.0	0.0
C	-0.564614	0.068722	-1.437283
Cl	1.763668	0.0	0.0
H	-1.656312	0.155211	-1.290814
N	-0.39795	1.267815	0.774589
O	-0.912168	2.194694	0.158216
O	-0.148227	1.266419	1.973631
C	-0.521132	-1.190921	0.770893
H	-1.614564	-1.13838	0.764467
H	-0.1832	-2.109178	0.290033
H	-0.145265	-1.156437	1.792586
C	-0.290502	-1.222336	-2.083733
N	-0.035449	-2.235754	-2.619096
N	-0.098749	1.120518	-2.320756
H	0.913668	1.162652	-2.307962
H	-0.466713	1.996728	-1.978216
Cl	-3.691865	0.0	0.0
