17

C	0.0	0.0	0.0
C	-0.414238	-0.006726	-1.487606
Cl	1.772252	0.0	0.0
H	0.254734	-0.755007	-1.93153
N	-0.44784	1.268977	0.720692
O	-0.105819	1.36678	1.893541
O	-1.134178	2.067146	0.09394
C	-0.569705	-1.1734	0.761169
H	-0.327422	-2.097132	0.234797
H	-1.658114	-1.072952	0.805374
H	-0.148523	-1.190354	1.76621
C	-0.034367	1.258209	-2.168881
N	0.266951	2.177404	-2.836459
N	-1.757773	-0.474619	-1.676106
H	-2.026692	-0.41712	-2.649243
H	-2.485463	-0.01533	-1.115496
Cl	-4.3612	0.0	0.0
