15

C	-0.437106	0.077731	-1.459917
C	0.0	0.0	0.0
Cl	-2.256223	0.658767	-1.452542
H	1.094244	0.0	0.0
H	-0.328141	0.899712	0.524704
C	0.343242	1.154027	-2.183633
H	1.403768	0.896866	-2.117178
H	0.182001	2.124466	-1.713423
H	0.028182	1.218392	-3.228439
N	-0.309631	-1.164496	-2.102282
H	-0.808714	-1.906233	-1.62881
H	-0.582316	-1.120197	-3.074305
C	-0.537837	-1.171813	0.675046
N	-0.964068	-2.138383	1.18805
Cl	3.378384	0.0	0.0
