15

C	-0.318992	-0.0184	-1.492494
C	0.0	0.0	0.0
Cl	-2.109988	-0.277973	-1.747099
H	1.096034	0.0	0.0
H	-0.345156	-0.931757	0.452655
C	0.042662	1.301853	-2.155237
H	-0.533802	2.133267	-1.745059
H	1.108899	1.47951	-1.983226
H	-0.147031	1.241401	-3.230558
N	0.37161	-1.167702	-2.026834
H	0.36738	-1.128082	-3.039871
H	1.339839	-1.126856	-1.707015
C	-0.548542	1.142881	0.708278
N	-1.011006	2.061894	1.273955
Cl	3.337742	0.0	0.0
