18

C	0.0	0.0	0.0
C	-0.532936	-0.421122	-1.399577
Br	1.972234	0.0	0.0
H	-1.622796	-0.354542	-1.266757
C	-0.346846	1.405803	0.218673
N	-0.580536	2.546356	0.38185
C	-0.508602	-0.867455	1.139354
H	-1.601533	-0.889283	1.063459
H	-0.09811	-1.875002	1.059205
H	-0.215427	-0.444166	2.101108
C	-0.162588	-1.84734	-1.772104
H	0.919803	-1.963771	-1.884627
H	-0.524434	-2.568794	-1.038012
H	-0.631969	-2.069303	-2.73141
N	-0.164336	0.481916	-2.479308
H	-0.648994	1.363653	-2.358772
H	0.832526	0.66741	-2.454351
Cl	-3.753433	0.0	0.0
