18

C	0.0	0.0	0.0
C	-0.415946	-0.093598	-1.525241
Br	1.97238	0.0	0.0
H	0.305242	-0.805739	-1.945179
C	-0.38648	1.270869	0.606619
N	-0.658868	2.315644	1.072985
C	-0.521014	-1.17049	0.815408
H	-0.129219	-1.140304	1.833671
H	-1.613154	-1.103667	0.84448
H	-0.217876	-2.110414	0.346318
C	-0.257617	1.252856	-2.21891
H	-0.380575	1.105914	-3.29286
H	-1.04191	1.933682	-1.878988
H	0.713225	1.712582	-2.024898
N	-1.730246	-0.606692	-1.793928
H	-2.486529	-0.087196	-1.340517
H	-1.830501	-1.561652	-1.474457
Cl	-4.30487	0.0	0.0
