18

C	0.0	0.0	0.0
C	-0.590012	0.164566	-1.412095
Br	1.963465	0.0	0.0
H	-1.662667	-0.01177	-1.240482
C	-0.346311	1.174433	0.809201
N	-0.570128	2.12864	1.458049
C	-0.508155	-1.260527	0.690335
H	-0.124191	-1.316273	1.710222
H	-0.181795	-2.14826	0.145863
H	-1.602138	-1.206968	0.704363
C	-0.056984	-0.845069	-2.413574
H	0.978336	-0.613279	-2.674763
H	-0.112003	-1.867281	-2.036808
H	-0.667413	-0.799091	-3.32093
N	-0.330871	1.518813	-1.906471
H	-0.587879	1.54399	-2.887787
H	-0.971997	2.150222	-1.434299
Cl	-3.810849	0.0	0.0
