18

C	0.0	0.0	0.0
C	-0.414017	-0.049669	-1.528256
Br	1.972773	0.0	0.0
H	0.311719	-0.744092	-1.969496
C	-0.390712	1.25079	0.643304
N	-0.674971	2.275705	1.145464
C	-0.520266	-1.194322	0.781147
H	-0.219136	-2.119911	0.283063
H	-0.125009	-1.195407	1.798614
H	-1.612222	-1.127118	0.815179
C	-0.2636	1.31896	-2.178875
H	0.703472	1.779465	-1.967405
H	-0.382338	1.20515	-3.257351
H	-1.054426	1.982354	-1.820461
N	-1.725133	-0.561869	-1.813544
H	-2.483611	-0.061937	-1.34161
H	-1.818105	-1.527823	-1.526554
Cl	-4.295499	0.0	0.0
