20

C	-0.364349	-0.084952	-1.484148
C	0.0	0.0	0.0
Br	-2.28525	-0.461044	-1.764344
H	1.097154	0.0	0.0
N	-0.109134	1.286815	-2.117273
O	0.992136	1.433373	-2.636254
O	-0.964914	2.158679	-2.012234
C	0.451807	-1.119175	-2.233849
H	0.289527	-1.032336	-3.309499
H	0.150916	-2.117973	-1.916887
H	1.508827	-0.964873	-1.998911
C	-0.41829	-1.258445	0.7603
H	-1.500207	-1.297843	0.912986
H	-0.100663	-2.172902	0.257275
H	0.073727	-1.243109	1.735572
C	-0.504465	1.246371	0.714312
H	-0.037845	2.154051	0.331342
H	-1.590307	1.349682	0.631188
H	-0.240422	1.167522	1.771865
Br	3.582999	0.0	0.0
