17

C	-0.501171	-0.057497	-1.449521
C	0.0	0.0	0.0
Br	0.15402	1.642362	-2.349914
H	1.093068	0.0	0.0
C	0.144109	-1.209733	-2.188872
H	-0.136091	-1.189783	-3.245841
H	1.228664	-1.133673	-2.097334
H	-0.192538	-2.138855	-1.727679
N	-1.923173	-0.12905	-1.477601
H	-2.331415	0.717607	-1.095917
H	-2.252554	-0.240284	-2.428847
N	-0.398798	-1.237135	0.669321
H	-1.368004	-1.192336	0.958598
H	0.196075	-1.368376	1.479071
C	-0.528834	1.193455	0.68297
N	-1.038149	2.064449	1.287367
Cl	3.340584	0.0	0.0
