17

C	-0.4835	0.062542	-1.46045
C	0.0	0.0	0.0
Br	-0.271475	1.899768	-2.138445
H	1.094865	0.0	0.0
C	0.396254	-0.837859	-2.315685
H	0.078988	-0.793663	-3.3612
H	1.445871	-0.550181	-2.227919
H	0.285869	-1.861977	-1.948131
N	-1.902486	-0.241185	-1.495828
H	-1.984808	-1.193356	-1.148042
H	-2.217218	-0.2324	-2.460032
N	-0.404425	-1.310687	0.547084
H	-1.184838	-1.200504	1.183114
H	0.381031	-1.681605	1.069564
C	-0.520034	1.093724	0.823738
N	-0.967753	1.893437	1.559286
Cl	3.344263	0.0	0.0
