17

C	-0.388555	-0.002756	-1.472405
C	0.0	0.0	0.0
Br	-2.567011	0.201118	-1.46363
H	1.096901	0.0	0.0
C	0.086821	1.210299	-2.229192
H	1.179552	1.222527	-2.148502
H	-0.324394	2.124494	-1.802904
H	-0.209457	1.150561	-3.279073
N	-0.035094	-1.196283	-2.036385
H	-0.288749	-1.325623	-3.002136
H	-0.214821	-1.984799	-1.42858
N	-0.432794	-1.231829	0.645602
H	0.196116	-1.435981	1.412488
H	-1.377712	-1.133103	0.996586
C	-0.440827	1.22034	0.687332
N	-0.768961	2.170061	1.29701
Cl	3.289926	0.0	0.0
