17

C	0.0	0.0	0.0
C	-0.45026	-0.051994	-1.475816
F	1.358292	0.0	0.0
H	0.295854	-0.699239	-1.946449
N	-0.357571	1.331395	0.708689
O	-0.013503	1.381591	1.886618
O	-0.95116	2.204273	0.090701
N	-0.500813	-1.091653	0.712022
H	-0.386761	-0.941567	1.706562
H	-1.472568	-1.272373	0.474154
N	-0.145672	1.303208	-2.197473
O	0.977509	1.776329	-2.05169
O	-1.012207	1.739652	-2.942094
N	-1.733365	-0.549414	-1.647531
H	-2.504303	-0.085866	-1.147332
H	-1.979397	-0.691866	-2.614391
Cl	-4.271371	0.0	0.0
