17

C	0.0	0.0	0.0
C	-0.559612	-0.141731	-1.427077
F	1.353488	0.0	0.0
H	-1.632261	-0.326256	-1.333937
N	-0.255245	1.459389	0.577694
O	0.14186	2.41758	-0.084984
O	-0.719163	1.528048	1.70911
N	-0.517973	-0.981873	0.826685
H	-0.303709	-0.78622	1.795425
H	-1.537399	-0.986299	0.712659
N	0.06002	-1.420929	-1.959265
O	1.179506	-1.325111	-2.459183
O	-0.596176	-2.454776	-1.866278
N	-0.312435	0.888722	-2.379513
H	0.575937	1.338808	-2.212074
H	-1.045965	1.579907	-2.297726
Cl	-3.537099	0.0	0.0
