18
Coordinates from ORCA-job run
  C   0.77399305386821     -0.11661797114309     -0.24896045034019
  C   -0.69655777516529      0.32184627024002     -0.02775892289690
  F   0.68036039680328     -1.29479680672064     -1.00224443379369
  H   -0.68721197560158      1.33323282282906      0.38504948000112
  N   1.58090697711910      0.80269674685904     -0.97715510603934
  H   1.05512725682158      1.33390508779845     -1.65806141538679
  H   2.09170771835245      1.42484663141766     -0.36874612182463
  C   1.44979426769423     -0.46803709813697      1.06115896653153
  H   2.49904437415930     -0.68379596889666      0.85317810688421
  H   0.99728864001272     -1.35667644982526      1.49755881510066
  H   1.38652689394914      0.35528693578500      1.77729185114837
  C   -1.52064516187030     -0.62832145991177      0.81526437727450
  H   -1.43436772880818     -1.64622471329666      0.43892106842602
  H   -1.18164564537161     -0.59212885515531      1.85134812498224
  H   -2.57293886145658     -0.34221441983600      0.79328339023648
  N   -1.32683624692021      0.47609138913632     -1.38484758063379
  O   -2.05100163270734     -0.42251109211753     -1.79754219099135
  O   -1.04254455087892      1.50241895097434     -2.00873795867844
