18
Coordinates from ORCA-job run
  C   0.73098401077443     -0.23609199378673      0.22111136385369
  C   -0.78985678991298     -0.01587932848419      0.29748547718637
  F   0.91278859867023     -1.43241323243852      0.97786199723335
  H   -1.04142147210365      0.11753200990893      1.35054708533473
  N   1.15498606672881     -0.39370020078590     -1.11556954300298
  H   0.71692668579200     -1.18519160740913     -1.56661288929427
  H   2.16031101876486     -0.48975905193110     -1.17226028944577
  C   1.54736374223321      0.82649733167071      0.92339527756545
  H   1.50394903359909      1.77410821006919      0.39007699450779
  H   2.58492906983307      0.48735892516571      0.97325091819451
  H   1.18560684277256      0.97273464259525      1.94081669848481
  C   -1.61134946302085     -1.12753041431704     -0.32182997986131
  H   -1.33701540026157     -2.07471786924546      0.14229773392691
  H   -2.67392871913149     -0.94835792136315     -0.14908190254765
  H   -1.45998673380989     -1.18255452205909     -1.39882363345252
  N   -1.11880828441318      1.30185117102547     -0.34300145740778
  O   -1.45432507111804      1.30568280916342     -1.52336822888033
  O   -1.01415313539663      2.29843104222165      0.37270437760501
