18
Coordinates from ORCA-job run
  C   0.79977303760107     -0.15580305008153     -0.08232311785844
  C   -0.70371600795424      0.21609777394500      0.02997797609200
  F   0.85970195882535     -1.49300537721957     -0.45136664779721
  H   -0.77987225908715      1.15363177577180      0.58412690092349
  N   1.54355204588853      0.55905647704533     -1.08201208007785
  H   1.53437428040329      1.55557718646561     -0.90627547876074
  H   1.16403840490421      0.38330728141498     -2.00518719368780
  C   1.47965101408174     -0.00319529622204      1.26286174390761
  H   1.51518276723670      1.04648935413885      1.56374206403941
  H   0.96156589626657     -0.57419953628853      2.03394877519613
  H   2.49857693984929     -0.37699488618928      1.16555473010440
  C   -1.58063352723074     -0.86777591308279      0.62497245669386
  H   -1.23892890476406     -1.11841185995637      1.62998378712989
  H   -1.54031962914429     -1.76112223973698      0.00620390793550
  H   -2.61503076868232     -0.52422926156401      0.69286105798497
  N   -1.19561956794147      0.56394646397648     -1.33791943015469
  O   -1.31217455551328      1.75990894344681     -1.60645734363127
  O   -1.38912112473921     -0.36327783586377     -2.12169210803925
