18
Coordinates from ORCA-job run
  C   0.71226782337994     -0.36851972058644      0.26598095679623
  C   -0.78682613378156     -0.03119180507735      0.33328642855062
  F   0.84615130636159     -1.46688882434980      1.12872561393828
  H   -1.03211586269289      0.10763934134781      1.38636359411299
  N   1.07750366614714     -0.80951971738178     -1.04247526885822
  H   2.08411328053696     -0.82186637978896     -1.14947294645710
  H   0.67375718137419     -0.20624755280596     -1.74776049759060
  C   1.58006729687175      0.72973354394773      0.85468164604119
  H   2.60644042732306      0.36176655414907      0.92472615904779
  H   1.24413618284627      1.00644890246897      1.85605734367063
  H   1.57168706056098      1.61598753470925      0.21747140029686
  C   -1.68307102087537     -1.06961983956109     -0.31052384197397
  H   -1.46797325201493     -2.03808232171176      0.14083225109842
  H   -1.50243564953999     -1.14018535836060     -1.38090915441905
  H   -2.73229042936091     -0.82097704776188     -0.13658817519897
  N   -1.01229573511844      1.31080005606986     -0.28846545701753
  O   -0.86786046408306      1.39781771788997     -1.50973426119456
  O   -1.30825567793474      2.24290491680296      0.45580420915700
