18
Coordinates from ORCA-job run
  C   0.76583435335107     -0.08839072808234     -0.10160898185173
  C   -0.72370646878700      0.25644516534005      0.05517885736967
  F   0.86287985480904     -1.44748763810939     -0.47673978007067
  H   -0.79913071571515      1.14458975192770      0.68358359775154
  N   1.37787744195325      0.75982694933501     -1.06090125194247
  H   1.04033936770708      0.54308068594008     -1.99100462022532
  H   2.38275116757727      0.64033989203919     -1.04443952593841
  C   1.47461428400305      0.03421227558351      1.23408270041645
  H   1.49659762011634      1.07431215949731      1.56026135892089
  H   2.49908297690352     -0.32810505666291      1.12326954066846
  H   0.98652939064403     -0.57751033847688      1.99278944497736
  C   -1.57462746069391     -0.88371984585714      0.58708166852131
  H   -1.54612422071558     -1.72245488872604     -0.10623542108443
  H   -2.60596849224001     -0.54859422796691      0.71469322858280
  H   -1.20102295138775     -1.21840293591964      1.55547134020943
  N   -1.31883615694488      0.68738328923472     -1.25054041556321
  O   -1.97593222271436      1.72486278272305     -1.25508365599711
  O   -1.14115776786601     -0.05038729181937     -2.21985808474454
