18
Coordinates from ORCA-job run
  C   0.77396502314350     -0.32225310633536      0.28050755981829
  C   -0.74846362042585     -0.03162948283907      0.35521805252841
  F   0.91429386242538     -1.42987171862768      1.12001435372303
  H   -1.01083164858857      0.08332478836764      1.40738159732458
  N   1.29571428149795     -0.72074963784232     -0.99158586409367
  H   0.80440659742354     -1.53607801354210     -1.33726592293278
  H   1.19185864810562      0.02722970291756     -1.66570035612379
  C   1.59296322341837      0.81418175926230      0.85082720504896
  H   2.62315211759693      0.47173096259260      0.94331586467573
  H   1.57186015595861      1.68525330004888      0.19262094057294
  H   1.21487503889448      1.10801257078037      1.83124918860386
  C   -1.60944221106520     -1.07818543416839     -0.32008120662679
  H   -1.36718633097985     -2.05833083839691      0.09357344667792
  H   -2.66720807605698     -0.87924735385408     -0.13738838934247
  H   -1.44284623930368     -1.08469838054055     -1.39675018181213
  N   -0.99500464639607      1.30907723431791     -0.25317608693859
  O   -1.30566295662638      2.23069849312254      0.49926437696031
  O   -0.83444321902181      1.41053515473666     -1.47102457806382
