18
Coordinates from ORCA-job run
  C   0.69633389161617     -0.34367611149159      0.51241163513092
  C   -0.80483291044981     -0.31074287977539      0.16787323181796
  F   0.72415549375232     -0.50199327939357      1.90294756873056
  H   -1.22125704800973     -1.27066996372009      0.48307631685910
  N   1.34060726351489     -1.48161929571023     -0.06068045701512
  H   0.75209701434984     -2.30221215501719     -0.10368887432821
  H   1.76212503039270     -1.29213614201441     -0.95667415502337
  C   1.47727377005260      0.90982833266114      0.18627268327686
  H   2.50453353011694      0.75308962713523      0.51814299465139
  H   1.47544163099700      1.11968455410513     -0.88487341503385
  H   1.05842200875297      1.76661340598258      0.70897793673681
  C   -1.11128939384968     -0.01409329661040     -1.28620999538070
  H   -2.18563807726631     -0.08397176729587     -1.46754969930476
  H   -0.78471003559886      0.98976309244998     -1.55399002091613
  H   -0.61168803884048     -0.74099779454758     -1.92835251273617
  N   -1.51401624724542      0.68452940200467      1.03680775346824
  O   -2.20706452889313      0.24226090226568      1.94883868942406
  O   -1.35249335339201      1.87634336897191      0.77467031964239
