18
Coordinates from ORCA-job run
  C   0.80626964279385     -0.12792427893909     -0.06251864605209
  C   -0.71125617909850      0.19258161036479      0.01731354184284
  F   0.92027938283341     -1.44432270087782     -0.48905403972034
  H   -0.83440034842986      1.09874256287733      0.61360405862876
  N   1.55804678912378      0.65419451699403     -1.00417149636623
  H   1.51178923784994      1.64093435084105     -0.78472606281218
  H   1.21391505520475      0.50896032731735     -1.94629610791215
  C   1.43834821465885     -0.01652356044152      1.30972098557909
  H   0.91170582581784     -0.63369741442995      2.03830813016027
  H   1.43519104229261      1.01972309076319      1.65586117937080
  H   2.46981924572762     -0.35878845650228      1.23044739498566
  C   -1.57133856706962     -0.94529758751037      0.53038998400078
  H   -2.61760792224023     -0.63669174205404      0.58212986149751
  H   -1.48410547309549     -1.80533210354432     -0.12936533335634
  H   -1.25221468025244     -1.23503482157340      1.53232267640515
  N   -1.17045830827219      0.59221466995505     -1.34765730862405
  O   -1.30829033408931     -0.30047264139416     -2.18166596314571
  O   -1.31769262375500      1.79573417815417     -1.56164285448176
