18
Coordinates from ORCA-job run
  C   0.74993010602792     -0.15885749485314      0.38319913808960
  C   -0.78338916647632     -0.22733194597290      0.36517528022790
  F   1.08685865214844      0.26608486098833      1.69112839090128
  H   -1.08493424880367     -1.02759994682694      1.04461858296122
  N   1.23097678680911     -1.47346673291059      0.13395082119791
  H   2.23952857198347     -1.47380838082171      0.04451889459490
  H   0.97256234704792     -2.09612688920960      0.89056044984280
  C   1.38035083351522      0.83046633409757     -0.57026566606461
  H   0.97778168633846      1.82766989841771     -0.40680425852533
  H   1.21314569760509      0.53372389865641     -1.60526370484507
  H   2.45581163329897      0.85419221624250     -0.37859096138671
  C   -1.37925915954129     -0.41270875443073     -1.01500213793631
  H   -1.19136345760318      0.46211362822486     -1.63613833814973
  H   -2.45899450426355     -0.55899149928328     -0.94336325000090
  H   -0.93283791549689     -1.29177639226271     -1.47975800060048
  N   -1.34814902547405      1.00681409452302      1.00227775488423
  O   -1.28132865617219      2.05488219767266      0.36160604911742
  O   -1.84569018094346      0.88472090774855      2.11815095569189
