18
Coordinates from ORCA-job run
  C   0.73934192867714      0.11851167322381      0.41628694661348
  C   -0.79524010716291      0.13366840183658      0.38623957575790
  F   1.10979518783857      1.32144588651692      1.06501395268036
  H   -1.14495606025206      0.05614070336815      1.41803832079605
  N   1.13230044745791     -1.01444828771306      1.18036052878171
  H   0.83941118651634     -0.91164705823184      2.14499490949569
  H   2.13791509390136     -1.12981292962946      1.15759818009862
  C   1.42873276289197      0.12107539452565     -0.92913464709586
  H   1.24189355134939     -0.81004271118358     -1.46334353354296
  H   2.50373922260267      0.22395962040943     -0.76289172641094
  H   1.08956654573720      0.96134475464594     -1.53084155077881
  C   -1.40760884650040     -0.93652626301675     -0.49346908310411
  H   -1.02435657388979     -1.91017115521290     -0.18828544395189
  H   -2.49458637630157     -0.93464897681225     -0.38930276271185
  H   -1.16251472565584     -0.76094805885743     -1.54014115583400
  N   -1.27525329595196      1.48635985348044     -0.04780883364337
  O   -1.14374640772133      1.77841978186190     -1.23558589181386
  O   -1.77343353353669      2.20731937078846      0.81227221466384
