18

C	0.0	0.0	0.0
C	-0.411934	0.12614	-1.468504
Br	2.072809	0.0	0.0
H	-1.507044	0.162927	-1.395249
C	-0.405345	1.199607	0.824304
H	0.022899	2.114687	0.42365
H	-0.088225	1.051451	1.858212
H	-1.498291	1.259673	0.782716
N	-0.442762	-1.204609	0.599352
H	-1.398877	-1.045072	0.918894
H	-0.472483	-1.916879	-0.12367
N	-0.069485	-1.106904	-2.177302
H	0.913055	-1.089798	-2.427487
H	-0.621523	-1.172838	-3.023199
N	0.040283	1.38143	-2.04916
H	-0.427267	1.521852	-2.936983
H	1.040209	1.3355	-2.213676
Br	-3.878523	0.0	0.0
