18

C	0.0	0.0	0.0
C	-0.315845	0.37886	-1.487145
Br	1.978053	0.0	0.0
H	0.192121	-0.401426	-2.085476
C	-0.511255	1.015344	0.996968
H	-1.606435	1.015953	0.954156
H	-0.203238	0.72795	2.003538
H	-0.1423	2.009586	0.755338
N	-0.460785	-1.308606	0.364369
H	-1.459222	-1.243993	0.55961
H	-0.324644	-1.95692	-0.404792
N	0.152748	1.72716	-1.786876
H	1.162862	1.75109	-1.833233
H	-0.22758	1.960344	-2.696428
N	-1.702791	0.355991	-1.865537
H	-2.262274	0.979281	-1.29247
H	-2.125311	-0.552514	-1.728469
Br	-4.390667	0.0	0.0
