19

C	-0.341205	-0.035568	-1.485242
C	0.0	0.0	0.0
Cl	-2.083934	-0.339307	-1.805882
H	1.098055	0.0	0.0
N	-0.07113	1.397896	-2.07254
O	-0.94491	2.255277	-2.010576
O	1.064173	1.563082	-2.510176
N	0.433616	-1.01279	-2.133277
H	1.410544	-0.898996	-1.862993
H	0.335689	-0.965788	-3.139325
C	-0.469754	-1.279028	0.685773
H	-0.207975	-2.158141	0.096615
H	-1.551912	-1.270234	0.847566
H	0.028219	-1.355835	1.655537
C	-0.493813	1.23905	0.7317
H	-0.252613	1.132452	1.792389
H	0.001565	2.144309	0.378217
H	-1.57537	1.369389	0.629496
Cl	3.425683	0.0	0.0
