19

C	-0.473593	0.045518	-1.43908
C	0.0	0.0	0.0
Cl	-2.356042	0.186721	-1.447649
H	1.093111	0.0	0.0
N	-0.059587	1.314266	-2.212299
O	0.671214	2.122904	-1.660835
O	-0.45331	1.372036	-3.373337
N	-0.014233	-0.998181	-2.225688
H	-0.445356	-1.057101	-3.135387
H	0.089586	-1.876402	-1.751296
C	-0.41129	-1.320768	0.660827
H	0.086216	-2.188078	0.219565
H	-1.493763	-1.473496	0.639509
H	-0.084455	-1.289664	1.702487
C	-0.489475	1.160749	0.864564
H	-0.287194	2.126504	0.407582
H	-1.558371	1.081033	1.079587
H	0.060955	1.126928	1.807784
Cl	3.447573	0.0	0.0
