19

C	-0.527141	0.008284	-1.441281
C	0.0	0.0	0.0
Cl	0.339644	1.229428	-2.394633
H	1.094484	0.0	0.0
N	-0.216588	-1.370584	-2.045869
O	-1.142615	-2.182575	-2.01115
O	0.919831	-1.596514	-2.425313
N	-1.935915	0.215877	-1.647689
H	-2.45599	-0.501147	-1.156848
H	-2.182398	1.127364	-1.282831
C	-0.448293	-1.24637	0.76256
H	-0.105052	-1.155769	1.795672
H	-1.53776	-1.368034	0.776012
H	-0.000211	-2.154031	0.355693
C	-0.454742	1.260472	0.731955
H	-1.531517	1.251989	0.937274
H	-0.202215	2.164516	0.174641
H	0.070969	1.313637	1.687339
Cl	3.495099	0.0	0.0
