13
Coordinates from ORCA-job run
  C   0.30252941119997     -0.58815330331870      0.01638367084449
  C   -0.66003447948542      0.57875569471408     -0.09152761343164
  Cl  0.17724780086767     -1.29944088907811      1.66868319154162
  H   -0.50268122301051      1.03567372136808     -1.07453364092671
  H   -0.03100740029111     -1.37498950503984     -0.66228169580657
  H   -0.38617252591132      1.32428109997816      0.67086899609201
  C   1.74211734233764     -0.19596030805142     -0.24743890307217
  H   2.40738521693252     -1.05314524353452     -0.13766917608549
  H   2.06474549187887      0.57953667808260      0.45039366155956
  H   1.83841772030510      0.18726048958947     -1.26727305922141
  N   -2.04262418999657      0.12204249301984     -0.02455034126437
  H   -2.24239772241866     -0.20902718044781      0.91138079288122
  H   -2.66852544240817      0.89516625271819     -0.21143588311054
