13
Coordinates from ORCA-job run
  C   0.29185911207197     -0.51407878097396      0.02560523886787
  C   -0.69394041013086      0.65012981972624     -0.05735106693814
  Cl  0.15632067778978     -1.28930363607252      1.64488869442566
  H   -0.53918403650550      1.13789836309044     -1.02657579684641
  H   0.00050012154765     -1.29006701354950     -0.68795432809429
  H   -0.43055580134626      1.37870202199542      0.71548364247504
  C   1.72696365341089     -0.08444271037521     -0.20583131010567
  H   2.02471932405842      0.66274918689694      0.53281128695515
  H   2.41055908125736     -0.93100940182181     -0.13111392001131
  H   1.82518831757089      0.35275453045052     -1.20365024466070
  N   -2.10592003175302      0.33899504154398      0.07215772422281
  H   -2.28007714895225     -0.09798038001441      0.96841719948414
  H   -2.38943285901907     -0.31534704089613     -0.64688711977415
