13
Coordinates from ORCA-job run
  C   0.27390675327265     -0.69028731769979     -0.33159903115639
  C   -1.11201778522035     -0.15379018379196      0.03363898079228
  Cl  0.29447182886637     -2.45800563489526     -0.00459696706136
  H   -1.86589434653610     -0.73354306219786     -0.50508280402158
  H   0.42900357253163     -0.59108115490821     -1.40988881058803
  H   -1.28311345516937     -0.32750876393686      1.10029857419157
  C   1.40693062861448     -0.02837783656037      0.42691290232976
  H   2.36706567855958     -0.47154824731589      0.15996180382324
  H   1.26255608405022     -0.14563767049882      1.50360156429966
  H   1.45054579921983      1.03713898885753      0.18894997697986
  N   -1.33064989525294      1.25617439425098     -0.24725439257862
  H   -0.72529915902363      1.84291441728872      0.31015845339302
  H   -1.16650570391236      1.46355207140779     -1.22410025040341
