15

C	-0.425494	0.157229	-1.465181
C	0.0	0.0	0.0
F	0.035935	1.354592	-1.961021
H	1.09483	0.0	0.0
C	0.108814	-0.945802	-2.287836
N	0.459006	-1.849545	-2.950492
C	-1.89986	0.149423	-1.600334
N	-3.07093	0.135337	-1.693574
C	-0.474594	-1.323312	0.601003
H	-0.109935	-1.387539	1.626934
H	-0.039778	-2.156644	0.045165
H	-1.564658	-1.410258	0.605706
C	-0.506405	1.142129	0.75353
N	-0.94636	2.035312	1.37707
Br	3.372301	0.0	0.0
