15

C	-0.443048	0.228387	-1.445999
C	0.0	0.0	0.0
F	-1.835538	0.209425	-1.528322
H	1.095284	0.0	0.0
C	0.002975	1.533692	-1.962293
N	0.288675	2.587973	-2.394113
C	0.049542	-0.846877	-2.326273
N	0.355003	-1.721337	-3.04816
C	-0.469065	-1.355656	0.530792
H	-1.556387	-1.449375	0.505049
H	-0.013852	-2.155643	-0.056076
H	-0.122764	-1.463757	1.559377
C	-0.505645	1.094691	0.822738
N	-0.945866	1.946407	1.501202
Br	3.361369	0.0	0.0
