15

C	-0.434814	-0.017583	-1.469556
C	0.0	0.0	0.0
F	0.021118	1.113128	-2.108557
H	1.1044	0.0	0.0
C	0.091975	-1.208408	-2.164188
N	0.430399	-2.176321	-2.736743
C	-1.910448	-0.041312	-1.588911
N	-3.082819	-0.070896	-1.657091
C	-0.470337	-1.242813	0.756383
H	-0.03677	-2.135677	0.301468
H	-0.100512	-1.183864	1.780548
H	-1.5601	-1.330028	0.776732
C	-0.500343	1.223984	0.616751
N	-0.929192	2.188625	1.132619
Br	3.376899	0.0	0.0
