15

C	-0.437945	0.049596	-1.46804
C	0.0	0.0	0.0
F	0.021902	1.205158	-2.057517
H	1.106208	0.0	0.0
C	0.084192	-1.111825	-2.214152
N	0.432393	-2.054991	-2.821128
C	-1.914301	0.042617	-1.581477
N	-3.088253	0.047793	-1.634886
C	-0.467578	-1.278235	0.699294
H	-0.03457	-2.147833	0.201402
H	-1.55744	-1.36626	0.719984
H	-0.092867	-1.265806	1.724023
C	-0.50426	1.190183	0.676335
N	-0.946649	2.116912	1.247244
Br	3.381424	0.0	0.0
