17

C	-0.501047	0.046456	-1.438531
C	0.0	0.0	0.0
F	-1.931805	0.246015	-1.302716
H	1.094392	0.0	0.0
N	-0.032882	1.161287	-2.204845
H	0.955177	0.990993	-2.364769
H	-0.099489	1.972435	-1.599918
N	-0.222018	-1.150722	-2.118986
H	-0.439549	-1.936373	-1.521341
H	-0.725281	-1.17565	-2.994742
N	-0.446104	-1.246643	0.626629
H	-1.395952	-1.136924	0.962827
H	0.158279	-1.453054	1.412238
N	-0.397961	1.249227	0.645612
H	-1.37585	1.214825	0.904279
H	0.167063	1.388187	1.47245
Br	3.628819	0.0	0.0
