17

C	-0.414001	0.00714	-1.472196
C	0.0	0.0	0.0
F	-1.83067	0.035972	-1.447191
H	1.098857	0.0	0.0
N	0.021052	1.180096	-2.171364
H	1.0187	1.093271	-2.34306
H	-0.084813	1.94433	-1.51131
N	-0.019571	-1.178804	-2.170819
H	-0.077428	-1.931516	-1.492279
H	0.95825	-1.090806	-2.42423
N	-0.436765	-1.247823	0.623194
H	0.127984	-1.42536	1.443846
H	-1.407827	-1.176472	0.900048
N	-0.432513	1.246975	0.628284
H	0.131446	1.419218	1.450013
H	-1.405259	1.181312	0.901465
Br	3.583509	0.0	0.0
