17

C	-0.316064	-0.045044	-1.491774
C	0.0	0.0	0.0
F	-1.705341	-0.080917	-1.660463
H	1.103517	0.0	0.0
N	0.136478	1.126301	-2.19906
H	-0.174628	1.922461	-1.64849
H	1.151988	1.124177	-2.139321
N	0.221271	-1.257676	-2.045285
H	0.227509	-1.158414	-3.054419
H	1.184185	-1.351639	-1.730009
N	-0.55201	-1.168075	0.691613
H	0.153763	-1.514386	1.331271
H	-0.710856	-1.896844	0.004976
N	-0.474378	1.256988	0.564089
H	-1.380137	1.064124	0.976763
H	0.154859	1.529666	1.309019
Br	3.579233	0.0	0.0
