17

C	0.0	0.0	0.0
C	-0.352429	0.031825	-1.559054
Cl	1.798706	0.0	0.0
H	0.618053	0.045309	-2.061582
C	-0.442868	1.189325	0.727461
N	-0.587869	2.193676	1.321873
C	-0.447379	-1.214359	0.681887
N	-0.580733	-2.241853	1.238225
C	-1.095884	1.295004	-1.975962
H	-1.17791	1.307914	-3.068622
H	-0.561749	2.19972	-1.671759
H	-2.0746	1.266872	-1.502352
C	-1.076701	-1.227869	-2.019077
H	-1.209042	-1.182437	-3.10656
H	-0.499981	-2.129028	-1.78945
H	-2.036826	-1.255889	-1.509204
F	-2.394195	0.0	0.0
