17

C	0.0	0.0	0.0
C	-0.422766	0.015862	-1.504673
Cl	1.79946	0.0	0.0
H	-1.514917	0.014957	-1.385124
C	-0.47566	1.188655	0.710244
N	-0.630067	2.20115	1.289039
C	-0.454096	-1.218782	0.674439
N	-0.567857	-2.257661	1.21268
C	0.031429	-1.240076	-2.234141
H	-0.321656	-2.140979	-1.726107
H	1.118831	-1.302519	-2.339884
H	-0.403898	-1.23735	-3.238365
C	0.031662	1.286685	-2.207977
H	-0.406619	1.305792	-3.210721
H	-0.318879	2.17696	-1.679712
H	1.11887	1.348842	-2.315354
F	-2.477257	0.0	0.0
