17

C	0.0	0.0	0.0
C	-0.348831	0.287234	-1.534255
Cl	1.798718	0.0	0.0
H	0.623065	0.378973	-2.027424
C	-0.447814	1.053658	0.909913
N	-0.583324	1.949949	1.659652
C	-0.452603	-1.30962	0.469347
N	-0.568808	-2.421388	0.835706
C	-1.075227	1.613305	-1.732816
H	-2.036846	1.542058	-1.22782
H	-1.206766	1.786397	-2.807151
H	-0.498411	2.451381	-1.328551
C	-1.083699	-0.871068	-2.199659
H	-2.051389	-0.968023	-1.71085
H	-0.523853	-1.807631	-2.110733
H	-1.198826	-0.649836	-3.266751
F	-2.388821	0.0	0.0
