17

C	0.0	0.0	0.0
C	-0.347357	-0.151499	-1.55637
Cl	1.798652	0.0	0.0
H	0.6246	-0.189433	-2.056781
C	-0.445267	1.269441	0.572215
N	-0.572837	2.346309	1.027499
C	-0.459291	-1.12461	0.813915
N	-0.559416	-2.101792	1.461464
C	-1.08621	1.058687	-2.117173
H	-0.503257	1.976123	-1.995015
H	-2.0376	1.13852	-1.594732
H	-1.243221	0.904934	-3.192079
C	-1.068926	-1.455774	-1.871605
H	-0.4995	-2.325733	-1.531111
H	-1.189757	-1.538259	-2.958009
H	-2.035435	-1.427486	-1.37178
F	-2.381657	0.0	0.0
