13

C	0.0	0.0	0.0
C	-0.317045	-0.011692	-1.510831
Cl	1.770172	0.0	0.0
H	-0.058511	0.989508	-1.871628
H	0.385601	-0.703498	-1.980852
C	-0.500543	1.152751	0.730787
N	-0.599853	2.174642	1.306548
N	-0.409935	-1.294481	0.671933
O	-0.45394	-2.282253	-0.047613
O	-0.532478	-1.26888	1.886649
C	-1.655204	-0.358194	-1.99484
N	-2.462048	-0.665478	-2.797658
F	-2.277961	0.0	0.0
