13

C	0.0	0.0	0.0
C	-0.31305	0.234183	-1.490216
Cl	1.758661	0.0	0.0
H	0.074418	-0.641708	-2.019505
H	0.299954	1.085418	-1.805723
C	-0.487913	1.041339	0.892269
N	-0.594096	1.966113	1.611242
N	-0.433727	-1.371432	0.489073
O	-0.500363	-2.256796	-0.35027
O	-0.538174	-1.504665	1.697966
C	-1.687562	0.48271	-1.939314
N	-2.498832	0.771539	-2.745865
F	-2.297507	0.0	0.0
