13
Coordinates from ORCA-job run
  C   -0.77064788026365      0.36451901374019     -0.29897129592378
  C   0.61969194322097      0.14651143646812      0.29787480480598
  Br  -0.97862712091191     -0.87482154912318     -1.85272240882383
  H   0.77076555379007      0.92350483553336      1.05411183641904
  H   -0.80148583342810      1.35784308628438     -0.74324611362527
  N   -1.74150386587562      0.23425837181445      0.71686125477699
  H   -1.81229064444289     -0.71508619811026      1.06427928046664
  H   -2.65274745634799      0.54265674274284      0.40559612318005
  N   1.68446523807166      0.39314269058002     -0.74711647560217
  O   2.50940459901784     -0.48415574992831     -0.95848153457955
  O   1.62073663959909      1.49424119503700     -1.28116789510210
  C   0.75935024201430     -1.17071675648352      0.90149246072038
  N   0.79388858555625     -2.21289711855509      1.44148996328762
