13
Coordinates from ORCA-job run
  C   -0.89670485364207      0.46081971443651      0.04975409308543
  C   0.61771416052998      0.47514687054045      0.27304396747216
  Br  -1.19663142506786      1.46594495333762     -1.68346170419627
  H   0.97794341686423      1.50405337268961      0.30369845852455
  H   -1.34313374821446      1.13019092822868      0.78538771536501
  N   -1.46815359452787     -0.81098767760303      0.13800060983198
  H   -2.47742409349314     -0.78888143405523      0.11514744435672
  H   -1.09708349666029     -1.46627722261209     -0.53577590220231
  N   1.36412181999237     -0.16827786018378     -0.87660250746866
  O   1.00081313091226     -1.29242828487734     -1.20769609831090
  O   2.27542842479097      0.48236015299577     -1.36856321652860
  C   0.97374909318035     -0.23090245363837      1.50128248789650
  N   1.27036116533552     -0.76176105925880      2.50578465217439
