13
Coordinates from ORCA-job run
  C   -0.92601035636279      0.25198907134946      0.25586572448476
  C   0.59438492404028      0.42642470523742      0.03755537937101
  Br  -1.62489799392935      2.05711335842182      0.56174234916427
  H   0.78725996055193      1.08691081435662     -0.80985306608816
  H   -1.08396807121560     -0.30055574086907      1.18226947604983
  N   -1.61715792278347     -0.38889025988024     -0.80218614093835
  H   -1.56574776497249     -1.39630215823740     -0.74981704453208
  H   -1.37236507706843     -0.05006742093201     -1.72221739914875
  N   1.11632727769441     -0.93347941728296     -0.35833008866363
  O   1.49265821188231     -1.06270662834381     -1.51820081002957
  O   1.04582357069890     -1.81045691358012      0.49614188204060
  C   1.29619651824341      0.87943581622871      1.22987124310711
  N   1.85649672322089      1.23958477353158      2.19715849518297
