15

C	-0.477445	0.096621	-1.43603
C	0.0	0.0	0.0
F	-0.323707	-1.158776	-2.051273
H	1.095093	0.0	0.0
H	-1.55656	0.305539	-1.475163
H	-0.350634	-0.952673	0.409157
C	0.299699	1.105394	-2.251664
H	1.365376	0.890431	-2.163059
H	-0.002253	1.058559	-3.301192
H	0.120582	2.117938	-1.885828
C	-0.503282	1.161066	0.853926
H	-0.171346	1.040128	1.887311
H	-1.597796	1.228186	0.852964
H	-0.101917	2.114087	0.501364
Cl	3.65699	0.0	0.0
