16

C	0.0	0.0	0.0
C	-0.486816	-0.144958	-1.442611
Cl	1.805782	0.0	0.0
H	-0.052692	-1.032752	-1.900451
H	-1.580779	-0.177643	-1.423271
N	-0.483672	1.242765	0.536522
H	-0.315562	1.245543	1.536672
H	-1.499017	1.232774	0.398879
C	-0.440197	-1.242059	0.767906
H	-0.038071	-2.156173	0.322622
H	-1.532755	-1.271543	0.769031
H	-0.079144	-1.17475	1.798451
N	-0.092625	1.003162	-2.301466
O	0.941326	0.886698	-2.96675
O	-0.820984	1.992358	-2.300384
Cl	-3.687779	0.0	0.0
