16

C	0.0	0.0	0.0
C	-0.262961	0.184515	-1.519336
Cl	1.813481	0.0	0.0
H	-0.267829	1.251715	-1.73333
H	0.53414	-0.303894	-2.076323
N	-0.514637	1.147032	0.695162
H	-0.40712	0.991851	1.693602
H	-1.528133	1.134372	0.516506
C	-0.431514	-1.344393	0.561544
H	-0.008746	-2.177067	-0.000733
H	-1.521194	-1.390944	0.530066
H	-0.092406	-1.409948	1.599874
N	-1.482964	-0.396467	-2.164647
O	-1.626912	-1.611746	-2.078966
O	-2.137691	0.356151	-2.876686
Cl	-3.659795	0.0	0.0
