16

C	0.0	0.0	0.0
C	-0.473266	-0.059408	-1.458383
Cl	1.797768	0.0	0.0
H	-0.204367	0.861649	-1.973383
H	-1.559974	-0.201436	-1.432198
N	-0.4868	1.203639	0.623402
H	-1.502443	1.094296	0.697703
H	-0.303965	2.003898	0.026332
C	-0.448855	-1.188473	0.831738
H	-0.030836	-2.116637	0.448644
H	-0.111494	-1.025325	1.856574
H	-1.53919	-1.23633	0.804564
N	0.124298	-1.150512	-2.272231
O	0.836975	-0.82346	-3.223799
O	-0.128652	-2.312447	-1.957694
Cl	-3.673056	0.0	0.0
