16

C	0.0	0.0	0.0
C	-0.149836	-0.270453	-1.533332
Cl	1.80827	0.0	0.0
H	0.255209	0.588228	-2.069742
H	0.411628	-1.16715	-1.789858
N	-0.538768	1.232623	0.4658
H	-0.392611	1.965402	-0.219504
H	-1.551168	1.094008	0.561404
C	-0.502104	-1.150573	0.844105
H	-1.589249	-1.201194	0.738637
H	-0.243684	-0.960866	1.887661
H	-0.053823	-2.091703	0.522395
N	-1.499498	-0.504316	-2.120982
O	-1.930441	-1.652369	-2.057356
O	-2.025557	0.438439	-2.708045
Cl	-3.778774	0.0	0.0
