16

C	0.0	0.0	0.0
C	-0.285104	0.239605	-1.506153
Cl	1.812869	0.0	0.0
H	-0.356026	1.31214	-1.675172
H	0.530985	-0.177089	-2.095642
N	-0.50455	1.12433	0.738103
H	-0.389434	0.93406	1.728921
H	-1.518011	1.12205	0.566315
C	-0.422132	-1.358388	0.534397
H	-1.513088	-1.397447	0.534193
H	-0.02223	-2.176461	-0.063926
H	-0.049414	-1.451026	1.56036
N	-1.477333	-0.382406	-2.16927
O	-2.136627	0.349426	-2.898234
O	-1.592319	-1.600136	-2.079751
Cl	-3.68133	0.0	0.0
