16

C	-0.36318	-0.007877	-1.484468
C	0.0	0.0	0.0
F	-0.00376	1.19468	-2.006814
H	1.089357	0.0	0.0
C	0.221221	-1.066795	-2.309367
N	0.68335	-1.791479	-3.110171
N	-1.889302	-0.089059	-1.63574
O	-2.381343	-1.209382	-1.726777
O	-2.500728	0.973204	-1.556818
N	-0.513123	-1.271492	0.599052
O	-0.096345	-2.312289	0.085577
O	-1.288905	-1.22139	1.551488
N	-0.440253	1.143032	0.704158
H	-1.302085	1.556665	0.376594
H	0.311019	1.816981	0.717684
F	2.483837	0.0	0.0
