16

C	-0.62645	0.054916	-1.372834
C	0.0	0.0	0.0
F	-1.995452	-0.025726	-1.298503
H	1.090736	0.0	0.0
C	-0.273788	1.311528	-2.044565
N	-0.031739	2.291429	-2.644879
N	-0.168669	-1.068673	-2.315783
O	1.014246	-1.032872	-2.613909
O	-1.017561	-1.858153	-2.701194
N	-0.425128	-1.282545	0.648313
O	-0.903246	-1.239065	1.784815
O	-0.22564	-2.318676	0.014078
N	-0.412049	1.159496	0.723287
H	0.343986	1.418299	1.343297
H	-1.250912	0.992934	1.26276
F	2.474957	0.0	0.0
