16

C	-0.639605	0.062497	-1.364808
C	0.0	0.0	0.0
F	-2.008749	0.024072	-1.274976
H	1.090718	0.0	0.0
C	-0.254619	1.303842	-2.048394
N	0.008089	2.268695	-2.664418
N	-0.225924	-1.076025	-2.311672
O	0.96235	-1.103256	-2.586988
O	-1.109817	-1.808992	-2.727626
N	-0.426285	-1.269684	0.666683
O	-0.779233	-1.219533	1.846184
O	-0.348112	-2.305939	0.006898
N	-0.384815	1.170994	0.721652
H	0.378754	1.415577	1.338424
H	-1.224809	1.026174	1.265606
F	2.47165	0.0	0.0
