15

C	0.0	0.0	0.0
C	-0.488265	-0.043212	-1.452281
F	1.3646	0.0	0.0
H	0.018145	0.833449	-1.880801
H	-0.36805	0.879438	0.531218
N	-0.405499	-1.174047	0.862053
O	-1.019933	-2.109523	0.356047
O	-0.049234	-1.101376	2.034807
N	-1.898836	0.120884	-1.681388
H	-2.470095	-0.570719	-1.203699
H	-2.26446	1.00428	-1.346035
N	0.07091	-1.213975	-2.116058
H	-0.438357	-2.020898	-1.779853
H	-0.163432	-1.116743	-3.097953
Cl	-4.612005	0.0	0.0
