15

C	0.0	0.0	0.0
C	-0.512819	-0.021167	-1.427389
F	1.361775	0.0	0.0
H	-1.599348	-0.101752	-1.347519
H	-0.378015	0.860546	0.544734
N	-0.368082	-1.200422	0.841468
O	-0.592445	-2.277604	0.296173
O	-0.321197	-1.017422	2.055148
N	0.005173	-1.1002	-2.263958
H	-0.453869	-1.958152	-1.985248
H	0.992714	-1.224693	-2.061432
N	-0.175368	1.297058	-1.956238
H	-0.774519	1.458323	-2.756319
H	0.777033	1.266986	-2.30404
Cl	-3.562703	0.0	0.0
