14
Coordinates from ORCA-job run
  C   -0.66506542782703      0.13710163168040      0.15403149006878
  C   0.65713141597292     -0.11121624210906      0.13228627344766
  C   -1.56391763369897      0.28099911003791     -1.04531158769929
  H   -1.12584935852055      0.94773243438784     -1.78730104329474
  H   -1.70435038416602     -0.68786701412335     -1.52775678675581
  H   -2.53318098414423      0.66971521461828     -0.73439842093319
  C   -1.26330661902894      0.24308042510701      1.45045617477626
  N   -1.79217614205245      0.32164021469031      2.50024543805764
  N   1.47630799641734     -0.27398736647167     -1.07001779488572
  O   0.88629653284799     -0.50702254435695     -2.11967448552869
  O   2.68781575403751     -0.16456791730880     -0.91134481049169
  N   1.44890968009536     -0.24723872958109      1.35552325185144
  O   1.66160817683232     -1.39990747386835      1.71822730325949
  O   1.82877699323476      0.79153825729751      1.88503499812785
