14
Coordinates from ORCA-job run
  C   -0.66098846461810      0.06881152044188      0.20085441178259
  C   0.67513413912350     -0.05303612506304      0.15482843923672
  C   -1.54752373732472      0.20036837849419     -1.00666373829923
  H   -1.00072801062813      0.53296861313484     -1.88626257953069
  H   -2.35095654019655      0.90528630938947     -0.78803556498015
  H   -1.99828956638651     -0.77007147158418     -1.23152212666744
  C   -1.32543901032360      0.02993267158295      1.46856211406566
  N   -1.96598166802995     -0.01072327590680      2.45586265654428
  N   1.44159535263961     -0.02556068221758     -1.08883092761204
  O   2.38064218009273      0.76515266159780     -1.10175980483775
  O   1.08131723633052     -0.77071819964910     -1.99447349153687
  N   1.54136207813288     -0.23579448879036      1.32289338964846
  O   1.30746086001473      0.44096278193091      2.31620294611326
  O   2.42239515117357     -1.07857869336098      1.17934427607320
