14
Coordinates from ORCA-job run
  C   -0.66106192297511      0.11821258392646      0.17324779993873
  C   0.65917410918258     -0.13110631892090      0.13199033699497
  C   -1.56437944078769      0.24871118487890     -1.02551522342952
  H   -1.70875950449159     -0.72185097908029     -1.50018271341432
  H   -2.53425961982720      0.63657725548269     -0.70955169858970
  H   -1.14294039900937      0.93503855525420     -1.76020169955116
  C   -1.25388000295790      0.24785854226517      1.47009672485548
  N   -1.79755942638953      0.38160261222283      2.50663270712208
  N   1.45545885065156     -0.22453105990328     -1.08746360673686
  O   2.62791004334797      0.12787319689173     -0.97991278187191
  O   0.89007694433486     -0.60859646524689     -2.10580165148717
  N   1.47552681082194     -0.29114873324579      1.33721196059920
  O   1.66810129959021      0.70970036822285      2.01888354825574
  O   1.88759225850927     -1.42934074274768      1.53356629731445
