14
Coordinates from ORCA-job run
  C   -0.64967964189697      0.23531410009332     -0.06416162681361
  C   0.67896690665522      0.03402839114819      0.02790728303203
  C   -1.72697488437772     -0.81459010095063     -0.00051583275317
  H   -2.69988878001327     -0.34674320690919     -0.14349891512708
  H   -1.70910294327844     -1.32165355878293      0.96535279307351
  H   -1.57226994738050     -1.57532272370337     -0.76636407851994
  C   -1.05893794604026      1.59925449231943     -0.22002264139263
  N   -1.42746624307543      2.71063272456207     -0.34834841686601
  N   1.63788392421625      1.13825439564164     -0.02693433577771
  O   2.04073148412559      1.54223916700407      1.05890103244683
  O   1.94026013913583      1.54163000205004     -1.14493969900596
  N   1.34505169360246     -1.26037372787565      0.18497572279776
  O   0.63027577498871     -2.24400343494262      0.34009294801141
  O   2.57115046333855     -1.24066651965436      0.13755576689458
