14
Coordinates from ORCA-job run
  C   -0.63795591938912      0.29133716995043     -0.03041213631778
  C   0.67928300752449      0.02244937348581      0.02448029105947
  C   -1.73804790097037     -0.73786897873078     -0.05939094268105
  H   -1.79017850483824     -1.27105373929039      0.89186453318545
  H   -1.55256394166968     -1.47909743957682     -0.83933873085896
  H   -2.69324361935429     -0.24849696883206     -0.24725784702062
  C   -1.01341585704328      1.67233085715747     -0.05068833794624
  N   -1.37059980116288      2.79450294273911     -0.06221644231117
  N   1.71219550349747      1.05672281834697      0.09576467849327
  O   2.36464178270893      1.05339105704652      1.13506118828555
  O   1.82355846630171      1.81101591262738     -0.86354046821309
  N   1.25852826227296     -1.32237075119072      0.01460401285895
  O   2.38007427955255     -1.40820200960355     -0.47676357676530
  O   0.57772424256976     -2.23566024412939      0.46783377823151
