14
Coordinates from ORCA-job run
  C   -0.62487976700309      0.27729090825026      0.12389566571604
  C   0.69053951569306      0.05031999857870     -0.01933031030934
  C   -1.69697964179329     -0.76153573168652     -0.05725475912298
  H   -1.31582986947358     -1.77413518690942      0.05809569587209
  H   -2.49368402685861     -0.58629476774465      0.66702849030134
  H   -2.12258051167008     -0.67066604286066     -1.06042107054714
  C   -1.07128790991459      1.60241338257861      0.43237243629981
  N   -1.52839825023331      2.66109455252419      0.67009510697581
  N   1.73310339434559      1.07267388792699      0.10412238421443
  O   2.58194549571902      1.04510984929049     -0.78222541578387
  O   1.65941849898531      1.85001621837383      1.04794251455060
  N   1.25295629356685     -1.26274041309105     -0.32667671274260
  O   0.75416738568999     -1.89165396735031     -1.25449121121725
  O   2.18150939294675     -1.61189268788045      0.39684718579308
