14
Coordinates from ORCA-job run
  C   -0.63246322792709      0.28212147508967      0.02752197900451
  C   0.69124761659990      0.06764345070430     -0.03306666580136
  C   -1.67651929471852     -0.79842469712802     -0.02305995039217
  H   -2.50556618431269     -0.46728569367555     -0.65055772734777
  H   -1.28239077477094     -1.73796137197640     -0.40382078427337
  H   -2.06368720607270     -0.97314050817623      0.98451712798957
  C   -1.12113906599841      1.61783809481234      0.19337668634848
  N   -1.62463344454864      2.67050480012032      0.35152594099083
  N   1.28445171123938     -1.25718088921562     -0.20099918550753
  O   0.92457286858948     -2.14257105172488      0.56829170049162
  O   2.09289086648275     -1.34999892302139     -1.12020187768925
  N   1.71539056981463      1.11163459722664      0.06773446994531
  O   2.67727150389362      0.81845395563081      0.77199972154243
  O   1.51957406172925      2.16036676133402     -0.53326143530130
