14
Coordinates from ORCA-job run
  C   -0.66873925882779     -0.01063712190823      0.20442760425303
  C   0.67326655209301     -0.01702569171723      0.20584875060924
  C   -1.48488814939558     -0.00835769886571     -1.05888355016788
  H   -2.00971716178859      0.94666601100555     -1.14604954140078
  H   -0.87526342309870     -0.15241190514483     -1.94897759184726
  H   -2.23576049226077     -0.79916268728677     -1.00376194442835
  C   -1.41786637288079      0.02070897529333      1.42343526562060
  N   -2.15435863529594      0.05637368688717      2.34133922086415
  N   1.54653483921808      0.01919649488597      1.38612456648995
  O   1.05780440194247     -0.31338735315900      2.45686671954114
  O   2.69256739274356      0.40626755746760      1.17700274706285
  N   1.43883300466288     -0.03837995186161     -1.03807316022489
  O   1.99492463027962     -1.10225817036693     -1.29439132934550
  O   1.44366267260853      0.99140785477069     -1.70490775702630
