14
Coordinates from ORCA-job run
  C   -0.62938635317462      0.28123582254631     -0.00543054490431
  C   0.69276699659883      0.04754860909411     -0.01292558681823
  C   -1.69829375786725     -0.77539040258336     -0.03764294094901
  H   -2.15721336439526     -0.85395539759946      0.95169413201444
  H   -1.30933565053248     -1.75280396289447     -0.31151671887288
  H   -2.47326600816459     -0.47691895548377     -0.74556386065438
  C   -1.09062526295783      1.63462141655932      0.07395376899126
  N   -1.56124229452416      2.71009599283156      0.16379645151419
  N   1.28484948821556     -1.28697758496494     -0.08901275810449
  O   2.17539287613331     -1.40920242895533     -0.92554272800085
  O   0.84668009339618     -2.15015570925741      0.66355861239243
  N   1.71847656233046      1.09112237655471      0.06187703265651
  O   2.60913752639633      0.87402278753132      0.87927995076794
  O   1.59305914854551      2.06575743662140     -0.66852481003262
