14
Coordinates from ORCA-job run
  C   -0.62685316954227      0.29557925728306      0.02810198904109
  C   0.69206695787397      0.06201203370388     -0.05764932490482
  C   -1.67670387036233     -0.77941585073850      0.07586436626193
  H   -2.08665499379813     -0.83717778183578      1.08776113763253
  H   -2.49087242869739     -0.51624852907444     -0.60190415058223
  H   -1.28158784947178     -1.75707809849464     -0.19060636424660
  C   -1.10862402397832      1.64098967660712      0.11837103363705
  N   -1.61390303866879      2.69969683245605      0.21967892961881
  N   1.73534127709804      1.09310684440333     -0.05415752027162
  O   1.50114365970609      2.14005390263382     -0.64335342396322
  O   2.75088129001387      0.79350639597897      0.56723376428544
  N   1.25929892907686     -1.28113336976356     -0.15150235669929
  O   1.96818037678402     -1.47591688961107     -1.13478384108758
  O   0.97828688396617     -2.07897442354825      0.73694576127851
