14
Coordinates from ORCA-job run
  C   -0.46470461977463      0.49776305457685     -0.12012193566859
  C   0.86147320478882     -0.11207957785625      0.17335167112401
  C   -1.49191398830756     -0.39356132730799     -0.77939654330492
  H   -1.02385392119203     -0.91393010057880     -1.61661854583225
  H   -1.86887459524605     -1.12141017908141     -0.05805932059436
  H   -2.32162869506553      0.21243915117999     -1.14768971917930
  C   -1.00136525126131      1.27989278857984      0.99506373061883
  N   -1.45257555600709      1.89286674025543      1.89018647539173
  N   1.37318170685563     -1.15334011404690      0.99559537052767
  O   0.52188889979949     -1.74109918524986      1.66266798136434
  O   2.58229903296248     -1.36436988486035      0.96023780749632
  N   1.51523867666767      0.65382305366382     -0.69643909266614
  O   2.56954930759638      0.88951215698931     -1.17922350721506
  O   0.20228579818373      1.37249342373634     -1.07755437206230
