14
Coordinates from ORCA-job run
  C   -0.46511501221610      0.49592381601966     -0.12489447859456
  C   0.86062510673149     -0.10955703097998      0.17911970996717
  C   -1.48437775939276     -0.39978152411699     -0.79061165663707
  H   -1.00815851419891     -0.92002161945765     -1.62329528745566
  H   -2.31346733271914      0.20262024670026     -1.16638739051094
  H   -1.86423659268781     -1.12783711590868     -0.07076993452668
  C   -1.01291305711823      1.27736825482353      0.98528209452164
  N   -1.47516943769917      1.89087811877087      1.87428965311681
  N   1.36860224190698     -1.14751462871047      1.00811047857448
  O   0.51566191090783     -1.72622861038546      1.68077942903463
  O   2.57677905400272     -1.36428772124911      0.97282812498691
  N   1.51907847480790      0.65784707016368     -0.68580402598370
  O   2.57655899301875      0.89805204542923     -1.15916290463596
  O   0.20613192465647      1.37153869890111     -1.07848381185707
