14
Coordinates from ORCA-job run
  C   -0.62284790129929      0.27588984918892      0.12441000386705
  C   0.69239644617539      0.04789168032265     -0.01848697677977
  C   -1.69846285669583     -0.75985350568637     -0.05215137446525
  H   -2.14993137642461     -0.64584700533294     -1.04148765191528
  H   -2.47625231450674     -0.60043656953619      0.69604386712394
  H   -1.31384221958607     -1.77387609575790      0.03048287922834
  C   -1.07049458660846      1.60264051935133      0.42438863017560
  N   -1.53734397365332      2.66018435577002      0.64875852805651
  N   1.73371011487627      1.07207106808878      0.10149003178532
  O   1.66076882763010      1.85049535479590      1.04407847085416
  O   2.58098084508658      1.04475513344621     -0.78657283026152
  N   1.25707440171621     -1.26487720444331     -0.32308962589868
  O   2.18626011266699     -1.61069476771247      0.40103541721893
  O   0.75898448062279     -1.89734281249464     -1.24889936898934
