14
Coordinates from ORCA-job run
  C   -0.67791498965741      0.01817234808701      0.10650503468855
  C   0.65406389422805     -0.09405700663353      0.22774731564443
  C   -1.40395648388337      0.31556092419120     -1.17629277951624
  H   -2.12717556776852     -0.48217676325263     -1.36516637585489
  H   -0.73101715070347      0.41411894077884     -2.02240521800268
  H   -1.96204233704879      1.24963165508198     -1.06739444221703
  C   -1.51333994347328     -0.14278209075963      1.25833959265513
  N   -2.30102584233028     -0.22047689308408      2.12957440496222
  N   1.58631642267850      0.03225437080469     -0.89036693740974
  O   2.35884250797290     -0.91321316897187     -1.02421107075134
  O   1.52417529506691      1.04740658145556     -1.57560312077615
  N   1.35660905051849     -0.35715916896286      1.48945501804977
  O   2.37624446907882      0.30668654246956      1.65581405762750
  O   0.86122067532143     -1.17496627120425      2.25300452090049
