14
Coordinates from ORCA-job run
  C   -0.63333490866364      0.30938418562333     -0.01175220019521
  C   0.69552492469930      0.12094928768527     -0.00430798109584
  C   -1.60443217858046     -0.84004140457130     -0.02803565076649
  H   -1.12247434944824     -1.78505924886266     -0.27485016123257
  H   -2.38912011915918     -0.64231859375617     -0.76062477769930
  H   -2.07646669042007     -0.92757016770147      0.95441756896470
  C   -1.21792745951748      1.61418927455632      0.03578088271567
  N   -1.83976352765254      2.61329891972555      0.07330501907065
  N   1.26015041967027     -1.22624080524326     -0.02755679296624
  O   1.41930930205179     -1.76119810877062      1.06517096763038
  O   1.50905448591971     -1.68994684754960     -1.13586139261445
  N   1.73819591919091      1.15539560667411      0.02983557113080
  O   1.36944041219760      2.32093970369789      0.03347783632499
  O   2.89284376971205      0.73921819849258      0.05300111073290
