14
Coordinates from ORCA-job run
  C   -0.62652947296737      0.29722706534362     -0.02160773786999
  C   0.69302972321134      0.05036374443217     -0.03029078590838
  C   -1.69119259871813     -0.76470758621865      0.00777853578910
  H   -1.32613400044819     -1.72487034691112     -0.35062817151265
  H   -2.04136653225995     -0.89238281305838      1.03574350320581
  H   -2.53721036640971     -0.44592609325956     -0.60283630674062
  C   -1.08674989699098      1.65265632843094      0.01729151730267
  N   -1.57214081047947      2.72463576827007      0.06791474253338
  N   1.73451269516373      1.07958462014228      0.01008509471846
  O   1.58712227965959      2.06943096139696     -0.69530431261522
  O   2.66211809284619      0.83616401449674      0.77687428777083
  N   1.25961339086834     -1.29402294850423     -0.05564985477526
  O   2.09259493581391     -1.48912012286489     -0.93584626464917
  O   0.85133256071072     -2.09803259169593      0.77647575275105
