14
Coordinates from ORCA-job run
  C   -0.62601860922658      0.31017952467125      0.02225137005794
  C   0.69395661699951      0.06775095259689      0.04793830004307
  C   -1.66445724543704     -0.76880080945146     -0.12377494511841
  H   -1.29734281769784     -1.73602652375472      0.21411227688954
  H   -1.94614676270048     -0.85957907559019     -1.17587350167023
  H   -2.55131051361794     -0.50747834994533      0.45074287859130
  C   -1.11331163441050      1.65346247311563      0.09210045678064
  N   -1.62844888039881      2.71172610716567      0.10172136688828
  N   1.74493545101067      1.08549390619896      0.13899376313691
  O   1.50749843507472      2.08555243235756      0.80398988983920
  O   2.76985720669406      0.82829164919943     -0.48441918117232
  N   1.23959877755322     -1.28674062300627     -0.02455326302960
  O   0.89246857202431     -1.99047673314713     -0.96758195415218
  O   1.98072140413268     -1.59435493041026      0.90335254291587
