14
Coordinates from ORCA-job run
  C   -0.63038864362432      0.28473297125309      0.01768823830969
  C   0.69224971775596      0.05676199168161      0.03828851891996
  C   -1.68291767948365     -0.78352053586494     -0.08584285174831
  H   -2.09551119552897     -0.78473181757968     -1.09843858766324
  H   -1.28965545083586     -1.77558473143960      0.12363159318188
  H   -2.49379236307660     -0.55578631356281      0.60817794938700
  C   -1.11114626668266      1.63312324533449      0.05741526149525
  N   -1.60944244120215      2.70000437575111      0.06311514539037
  N   1.72124929090307      1.09995791851166      0.08766984551938
  O   2.67499054316597      0.91346706561357     -0.66243807481887
  O   1.53641590390912      2.04599198514952      0.84278422868670
  N   1.28036374567461     -1.28048643734633      0.00282545073690
  O   2.09539401587870     -1.51107788799677      0.89148351906530
  O   0.91119082314677     -2.04085182950491     -0.88636023646202
