14
Coordinates from ORCA-job run
  C   -0.62423729370931      0.30437704924926      0.01194693269947
  C   0.69615982180335      0.06965927124403     -0.03683451566978
  C   -1.66731813933158     -0.78051458982249      0.01874400440556
  H   -1.99323450649532     -0.96283658356872      1.04632665836643
  H   -1.29178624754525     -1.71657763558509     -0.39133053695454
  H   -2.53234434910172     -0.45308159080470     -0.55988925365519
  C   -1.11680966026073      1.64540261309458      0.09673595714655
  N   -1.65049341369035      2.69292236840343      0.17122827824587
  N   1.74333498059636      1.09448095467537      0.02449920627001
  O   1.52476707930061      2.16258283944696     -0.53126160884742
  O   2.74107215047245      0.77074957011823      0.66205161070016
  N   1.25309695416005     -1.27669009831304     -0.13565258613200
  O   1.99302423575159     -1.46216646418007     -1.09736515323040
  O   0.92476838804986     -2.08930770395775      0.72280100665526
