14
Coordinates from ORCA-job run
  C   -0.62387179459998      0.31644485963180     -0.03582499224009
  C   0.69051637199745      0.04800752422304      0.00160030006444
  C   -1.69526903226713     -0.74053106163822     -0.05929316430390
  H   -1.99753014910861     -0.97315313887632      0.96483622967737
  H   -1.34925333356037     -1.66219812264119     -0.52422478675360
  H   -2.56472608120252     -0.36742011333116     -0.60028134549494
  C   -1.06596844632403      1.67637449529804      0.00551097573440
  N   -1.52598064900072      2.75916746474373      0.05081347223971
  N   1.75429527650389      1.04974125198663      0.09242958465736
  O   1.63510790015608      2.06452925886384     -0.58388739043796
  O   2.66052837392518      0.76681859980485      0.87078370269002
  N   1.22529450240703     -1.31092409963954     -0.04168203820825
  O   2.08317291247818     -1.50245711004762     -0.89861121635647
  O   0.77368414859554     -2.12439980837786      0.75783066873192
