14
Coordinates from ORCA-job run
  C   -0.62451985481563      0.30014814661038     -0.00901941356845
  C   0.69377261033610      0.04710691507883     -0.01091381484433
  C   -1.69663600259157     -0.75297223748105     -0.05020904333031
  H   -1.31806580188253     -1.71773636202433     -0.38014287049017
  H   -2.11966382986426     -0.87525457789832      0.95067871232241
  H   -2.49605611722538     -0.42527872815600     -0.71657448499145
  C   -1.08018230825872      1.65476033562822      0.07912620476355
  N   -1.55770024077095      2.72730706151532      0.16978935349506
  N   1.74335220729341      1.06640227230027      0.08282547083845
  O   1.60002815892616      2.09211463275173     -0.57028610673469
  O   2.66968521907501      0.77887376312865      0.83538963690719
  N   1.25326666868507     -1.29984965427733     -0.09767414545534
  O   2.09204528972872     -1.45677034584566     -0.98031628766856
  O   0.83967400136454     -2.13885122133072      0.69632678875663
