14
Coordinates from ORCA-job run
  C   -0.62762834773883      0.26299145597967      0.11266510263202
  C   0.69163045383216      0.04853758548255     -0.01317281847667
  C   -1.69954064544510     -0.76432469821511     -0.11389244551419
  H   -2.46625625107572     -0.66233362157935      0.65445988926813
  H   -1.30840293004474     -1.77843996605273     -0.10540879438038
  H   -2.17063207622322     -0.58714411578817     -1.08457827570040
  C   -1.08410322323335      1.57685013740719      0.45336432102884
  N   -1.55853633270536      2.61983553645874      0.72584181889467
  N   1.71860784029089      1.08456115539268      0.14428293985085
  O   2.55938037710565      1.10479918030518     -0.74970436859565
  O   1.64110845267865      1.82235526425719      1.11848393288074
  N   1.28475484621959     -1.25200725797505     -0.31718167458664
  O   0.79754892170246     -1.90212723192360     -1.23607710791208
  O   2.22106891463691     -1.57255342374918      0.40891748061075
