14
Coordinates from ORCA-job run
  C   -0.63030778561721      0.28686651741004      0.01030436677301
  C   0.69247517524199      0.06261318897799     -0.03111333176897
  C   -1.67990373766493     -0.78923503344085      0.00292195856681
  H   -2.10293580088017     -0.88645414009815      1.00646770282829
  H   -2.48466568456246     -0.49976340434975     -0.67516971870863
  H   -1.28124583136656     -1.75622473837507     -0.29505182124757
  C   -1.11504438175458      1.63089824038036      0.10625320306812
  N   -1.61773055152168      2.69125435023144      0.20404749137431
  N   1.72328742861373      1.10351813770575      0.02775717457372
  O   1.53048967932835      2.13123058193612     -0.60932401582427
  O   2.68682284074318      0.83056606902561      0.73782907497888
  N   1.27822865882744     -1.27261139775237     -0.12911889467958
  O   2.07731771646333     -1.42089139262058     -1.04923540141023
  O   0.92321227414955     -2.11076697903054      0.69343221147612
