12
Coordinates from ORCA-job run
  C   -0.24204736038349      0.01654154963003     -0.13759406977498
  C   1.06768269988330     -0.59903873359626     -0.55388199354989
  Cl  -1.22006048532547      0.36798241745607     -1.65012936400271
  H   1.58169454769881      0.03380558618862     -1.27200518497671
  H   0.86981448526978     -1.56861401901875     -1.01448640632564
  H   1.69310319861617     -0.73560173040237      0.32889370717029
  N   -0.91907594105176     -0.73999647527410      0.82931084128742
  H   -1.79177154025106     -0.30773903998995      1.10323170362322
  H   -1.06837083477306     -1.69005251641462      0.51940945319308
  N   -0.03347407322033      1.40521431732902      0.47213173691870
  O   -0.97306415993059      1.85381078276689      1.11653617240961
  O   1.03456946346771      1.96368786132543      0.25858340402762
