12
Coordinates from ORCA-job run
  C   -0.37919883324489      0.03994393585285     -0.20353438842315
  C   0.98149331692245     -0.51419746640809     -0.59287674179241
  Cl  -1.39217923214944      0.19140363586346     -1.64102711643605
  H   0.85314028964284     -1.50777151101284     -1.02436007125958
  H   1.46900320790719      0.12958459731843     -1.32731756856723
  H   1.60618313830339     -0.58531676021808      0.29988813178616
  N   -1.11764902977726     -0.66255451415597      0.80234681703223
  H   -0.53650080110042     -0.80703482373257      1.61842732555232
  H   -1.43912257031518     -1.55061415873654      0.44086389679139
  N   -0.10731737053699      1.43561352533745      0.38877480040533
  O   -0.28064206949431      2.43398145293286     -0.29042916058258
  O   0.34378995384262      1.39696208695903      1.53024407549358
