12
Coordinates from ORCA-job run
  C   -0.32530219976758     -0.08056577152576     -0.20402765540512
  C   1.03677932989999     -0.48237349746503     -0.71218035570818
  Cl  -1.46857375186823      0.14912831593740     -1.55378485276815
  H   0.95508286032200     -1.46713485783416     -1.17084214377654
  H   1.74166931132013     -0.52827395581118      0.12298846116859
  H   1.40348700739497      0.23806090990249     -1.43812080153334
  N   -0.86157314103064     -1.01039797716213      0.70256471963198
  H   -0.19968762562174     -1.21578482550074      1.44033127599832
  H   -1.72680504317771     -0.67694350825282      1.10744420713699
  N   -0.20763756344319      1.35401093165869      0.42056328714906
  O   -0.85845889726276      1.55847993421473      1.43981863230990
  O   0.51001971323477      2.16179430183850     -0.15375477420349
