12
Coordinates from ORCA-job run
  C   -0.27854710541863     -0.04698026058668     -0.27238953527777
  C   1.11608205514756     -0.58356935245124     -0.47821320470922
  Cl  -1.06749257865053      0.29697979130645     -1.83453871953885
  H   1.70253354681936      0.09706424436221     -1.08922530178308
  H   1.04166783803423     -1.55462219236124     -0.96637846674883
  H   1.61122143263990     -0.70113073339011      0.49002225593120
  N   -1.08992385937421     -0.91930091331175      0.47292504603797
  H   -0.63013379343287     -1.18981605735321      1.33320400302379
  H   -1.98598033078372     -0.50041923819095      0.68612655457718
  N   -0.16172318893851      1.36760010065660      0.39525465270174
  O   -0.99658142865277      1.63470598738939      1.25312369365938
  O   0.73887741261018      2.10048862393053      0.00908902212649
