12
Coordinates from ORCA-job run
  C   -0.32776726998331     -0.08440812309552     -0.19798675839440
  C   1.02967698784705     -0.46710845459594     -0.73281827824409
  Cl  -1.49914342448754      0.13210574088091     -1.52546079650976
  H   1.75040192669751     -0.50776863095822      0.08900308849851
  H   0.95188599032325     -1.45091447238941     -1.19417575156389
  H   1.37369763175500      0.26085536790453     -1.46236386417243
  N   -0.83419063944364     -1.02376325819982      0.71647610151053
  H   -1.69580349318649     -0.70199045435069      1.13836578883193
  H   -0.15568730015934     -1.21962634424492      1.44173417271852
  N   -0.21776271277530      1.34985014058431      0.42747338163547
  O   -0.85119775642832      1.54293663050941      1.45983530966011
  O   0.47689005984114      2.16883185795534     -0.15908239397049
