18

C	-0.491291	0.049704	-1.460673
C	0.0	0.0	0.0
Cl	-0.072484	-1.527323	-2.233699
H	1.101941	0.0	0.0
C	-1.997746	0.220748	-1.546544
H	-2.275661	1.168421	-1.078679
H	-2.51471	-0.599393	-1.042114
H	-2.315918	0.236302	-2.591501
C	0.263432	1.144753	-2.194207
H	0.02369	2.105484	-1.733882
H	-0.025339	1.162507	-3.248374
H	1.338772	0.971944	-2.110345
C	-0.508599	-1.181056	0.706313
N	-0.994134	-2.057028	1.321782
N	-0.39412	1.240948	0.684765
H	0.384601	1.539674	1.261638
H	-1.198	1.088902	1.280243
Br	3.498527	0.0	0.0
