15
Coordinates from ORCA-job run
  C   -0.89861692507803     -0.06204340384017      0.11833216762956
  C   0.45083015174267      0.60422685705195     -0.11929993103460
  Cl  -2.03536720180547      1.17205889431244      0.67827492234941
  H   0.35777674923681      1.42581157615909     -0.82602007581290
  C   -0.87249494034154     -1.18022928624593      1.04278410196581
  N   -0.89607721919805     -2.06644118144230      1.81562711168011
  N   -1.42841685128185     -0.55294697682361     -1.25875516684714
  O   -2.16266672400616     -1.52240490537026     -1.23780060303799
  O   -1.09608854812704      0.12767173747403     -2.21619747055724
  N   1.46644805010452     -0.36288013822112     -0.66496587303063
  O   1.08630158343621     -1.50215705242577     -0.90989999343006
  O   2.58257476951999      0.10833432324182     -0.82831797591151
  N   1.01514827279440      1.14343372073804      1.16282107787745
  O   1.43148620840104      0.30609736220888      1.95595539571028
  O   1.00016262460249      2.36146847318292      1.28846231244943
