15
Coordinates from ORCA-job run
  C   -0.89233702490205     -0.22317982495965      0.32023236842976
  C   0.58167649129503      0.12243287186017      0.55572199069187
  Cl  -1.85223742299818      0.66991489632943      1.48741780446943
  H   0.85750692321901     -0.15778495215670      1.57215532070874
  C   -1.14589180002563     -1.64981592872959      0.45970072288162
  N   -1.41724893043371     -2.78654077067822      0.59389216949750
  N   -1.31845039696403      0.13979249815915     -1.14281250816440
  O   -0.58227228245385     -0.36690186541497     -1.97449776879668
  O   -2.31053968082238      0.81360880969713     -1.30648128649246
  N   0.84222857672448      1.58831834766498      0.41072333354566
  O   0.20294293505670      2.18674544708303     -0.44559295611809
  O   1.70828211163613      2.03662722712492      1.15249354451653
  N   1.54484320944044     -0.61101886966409     -0.36141715212223
  O   2.19245028827277      0.05551216716298     -1.15177603647407
  O   1.58704700295525     -1.81671005347858     -0.16975954657316
