15
Coordinates from ORCA-job run
  C   -0.89990817186342     -0.08260299659692      0.08304480171884
  C   0.44173923625333      0.61073910400890     -0.11673612272513
  Cl  -2.08676383277294      1.13714979792251      0.56666944747305
  H   0.35818463089186      1.41077765273443     -0.84890089376172
  C   -0.88632253376225     -1.17786139300209      1.03496250985968
  N   -0.92288435211280     -2.04490188560471      1.82869324997940
  N   -1.36343848238233     -0.61742939229674     -1.30125172746534
  O   -2.07851636461942     -1.60132168257361     -1.28554518262275
  O   -1.00823590625637      0.04777913945667     -2.26133044081344
  N   1.50194846783648     -0.34427304113939     -0.59341808510272
  O   1.15733446389040     -1.49668539589297     -0.82943010969264
  O   2.61409166612964      0.14799754002702     -0.71710653708244
  N   0.93850434170056      1.19840528649358      1.17249241264149
  O   0.90186752049208      2.41944472891393      1.25825100290850
  O   1.33039931657519      0.39278253754939      2.00960567468523
