15
Coordinates from ORCA-job run
  C   -0.87401564682300      0.08694004356758      0.05150118326365
  C   0.64055466553435     -0.09573711977283      0.19274859087754
  Cl  -1.36783963568496      1.74903398194247     -0.12518986974324
  H   0.88362661604032     -1.11613427235176      0.48198841564941
  C   -1.55351360000283     -0.53078256819047      1.18370699406666
  N   -2.12936728919020     -1.04134640921530      2.07342852093440
  N   -1.30368160261989     -0.76550857042938     -1.19797258986444
  O   -2.14751654289825     -0.30950435457392     -1.93670313976095
  O   -0.74702380120079     -1.85281870843005     -1.24400625929448
  N   1.16124170554396      0.81964460268015      1.27267430464736
  O   1.70812719274938      1.85441731076948      0.92167418186980
  O   0.94602819322174      0.42439570090016      2.41163937488545
  N   1.40053503333394      0.19326602700751     -1.06721931386293
  O   2.58507750069084     -0.11017372171936     -1.01102061082371
  O   0.79776721130539      0.69430805781569     -2.00824978284452
