15
Coordinates from ORCA-job run
  C   -0.91797754140537     -0.05594737612826      0.18875541030904
  C   0.41035127792466      0.67845865567314     -0.02489347601878
  Cl  -2.14789322308160      1.05550664102679      0.80050201286789
  H   0.25688452162930      1.68822397488455     -0.40170405505924
  C   -0.79983448040142     -1.21738288646100      1.05235459769206
  N   -0.69229611245265     -2.12494084898964      1.79245766688748
  N   -1.43223709582499     -0.49800424380911     -1.20445252436032
  O   -2.10035014741859     -1.51498306940501     -1.24244327428704
  O   -1.17230396531060      0.27660032395830     -2.11338245858446
  N   1.28724993057064     -0.05218893288996     -0.98981424370333
  O   2.04928393708795      0.64344661054446     -1.64692389508579
  O   1.18516693771120     -1.27482789034354     -0.99734295653611
  N   1.18233780810987      0.76802127377558      1.28663218240677
  O   2.34950725345339      0.40996433355788      1.27410928257655
  O   0.54211089940822      1.21605343460580      2.22514573089528
