18

C	-0.496208	-0.018861	-1.447386
C	0.0	0.0	0.0
Cl	0.298449	-1.278132	-2.401569
H	1.095419	0.0	0.0
C	-1.945581	-0.214301	-1.527459
N	-3.102108	-0.425443	-1.534479
N	-0.19187	1.344223	-2.10005
O	-1.110825	2.160276	-2.063476
O	0.933155	1.52587	-2.526916
C	-0.458384	-1.26329	0.725206
H	0.014834	-1.278916	1.709421
H	-1.545273	-1.288787	0.85877
H	-0.141679	-2.165637	0.199938
C	-0.478497	1.251529	0.732471
H	-0.032488	2.158175	0.321064
H	-1.568742	1.355164	0.719024
H	-0.149161	1.177019	1.771427
Cl	3.394512	0.0	0.0
