18

C	-0.411005	-0.008938	-1.476773
C	0.0	0.0	0.0
Cl	0.378348	1.282896	-2.385448
H	1.096404	0.0	0.0
C	-0.129434	-1.279492	-2.14173
N	0.093798	-2.299529	-2.680745
N	-1.940136	0.195447	-1.551101
O	-2.370078	1.336145	-1.638087
O	-2.61314	-0.82387	-1.418323
C	-0.457536	-1.257887	0.732332
H	-1.546626	-1.324917	0.814764
H	-0.033128	-1.227094	1.738951
H	-0.08373	-2.163424	0.250968
C	-0.471181	1.260541	0.716695
H	0.03446	1.30334	1.68426
H	-0.207579	2.164924	0.167707
H	-1.552807	1.258695	0.89102
Cl	3.356469	0.0	0.0
