18

C	-0.496306	-0.033208	-1.446782
C	0.0	0.0	0.0
Cl	0.30272	-1.298267	-2.39039
H	1.095404	0.0	0.0
C	-1.944846	-0.234	-1.525341
N	-3.09951	-0.45453	-1.531646
N	-0.197881	1.324862	-2.11189
O	0.926478	1.507684	-2.54005
O	-1.120762	2.137023	-2.084764
C	-0.456914	-1.255861	0.739079
H	0.019496	-1.26228	1.721801
H	-1.543368	-1.279813	0.876174
H	-0.142141	-2.163214	0.221452
C	-0.478853	1.25822	0.720416
H	-1.569211	1.36046	0.708058
H	-0.147217	1.194855	1.75925
H	-0.034785	2.16112	0.298807
Cl	3.393933	0.0	0.0
