19

C	-0.337929	0.018323	-1.504657
C	0.0	0.0	0.0
Br	0.54918	-1.503093	-2.348516
H	1.102598	0.0	0.0
N	-1.843943	-0.129583	-1.776967
O	-2.234504	-0.716926	-2.776909
O	-2.582872	0.446204	-0.975617
C	0.108276	1.284447	-2.215818
H	-0.027021	1.186663	-3.295062
H	-0.477527	2.132456	-1.853112
H	1.166574	1.44033	-1.988593
N	-0.463595	-1.175261	0.717796
H	0.055712	-1.98934	0.414248
H	-1.452622	-1.330624	0.556681
C	-0.392242	1.254675	0.781451
H	-0.016713	2.1659	0.312095
H	-1.469299	1.338809	0.928086
H	0.094327	1.161189	1.753695
Cl	3.456676	0.0	0.0
