19

C	-0.400445	-0.015167	-1.481781
C	0.0	0.0	0.0
Br	-2.347902	-0.283637	-1.680886
H	1.102704	0.0	0.0
N	-0.105958	1.342716	-2.115413
O	-0.828667	2.291124	-1.821484
O	0.870038	1.402967	-2.857757
C	0.324287	-1.102446	-2.237496
H	1.397617	-0.963103	-2.090274
H	0.024156	-2.054763	-1.806786
H	0.083547	-1.072653	-3.300516
N	-0.393472	-1.295129	0.562295
H	0.336354	-1.582665	1.202316
H	-1.25796	-1.198314	1.082508
C	-0.488438	1.18651	0.818244
H	-0.160736	1.028816	1.849332
H	-0.0637	2.130236	0.477411
H	-1.579897	1.2677	0.798295
Cl	3.396108	0.0	0.0
