19

C	0.0	0.0	0.0
C	-0.246425	-0.209185	-1.539357
F	1.416171	0.0	0.0
H	-0.089408	0.777865	-1.975596
N	-0.584094	1.255925	0.347173
H	-0.467785	1.373245	1.35083
H	-1.600827	1.041417	0.21571
C	-0.451286	-1.154967	0.867247
H	-1.544779	-1.144831	0.826778
H	-0.038434	-2.102935	0.519399
H	-0.109312	-0.972928	1.892938
C	-1.526364	-0.847492	-2.034981
H	-2.380198	-0.378065	-1.52417
H	-1.568457	-0.762415	-3.126849
H	-1.536497	-1.904676	-1.763438
N	0.894101	-1.01874	-2.101604
O	0.964101	-2.209311	-1.799461
O	1.673203	-0.457252	-2.872212
F	-3.045161	0.0	0.0
