19

C	0.0	0.0	0.0
C	-0.345968	0.12149	-1.516077
F	1.395985	0.0	0.0
H	0.510462	-0.340214	-2.017956
N	-0.508604	1.131949	0.707615
H	-0.289819	0.985184	1.689685
H	-1.540326	0.941735	0.588895
C	-0.371688	-1.330246	0.642674
H	0.038589	-1.311263	1.65956
H	0.056415	-2.176463	0.105335
H	-1.459515	-1.377021	0.661985
C	-0.518775	1.556094	-1.962981
H	-1.462671	1.927302	-1.572738
H	-0.526656	1.623387	-3.05325
H	0.295066	2.156045	-1.555778
N	-1.489065	-0.717632	-2.043577
O	-2.330285	-0.173222	-2.747489
O	-1.40746	-1.933963	-1.883532
F	-2.737914	0.0	0.0
