19

C	0.0	0.0	0.0
C	-0.502114	0.018435	-1.450233
F	1.412203	0.0	0.0
H	-1.590732	0.137827	-1.340608
N	-0.496495	1.180841	0.639659
H	-0.276415	1.107056	1.629538
H	-1.524099	1.041253	0.541179
C	-0.428388	-1.286253	0.69071
H	-0.097692	-1.232866	1.733557
H	0.019849	-2.172704	0.235765
H	-1.521222	-1.292096	0.637258
C	-0.113219	-1.204156	-2.257455
H	0.945922	-1.435841	-2.139451
H	-0.31237	-1.037519	-3.318634
H	-0.716639	-2.052193	-1.931543
N	0.034229	1.237868	-2.127791
O	-0.675424	2.243022	-2.161465
O	1.162113	1.167732	-2.628709
F	-2.878431	0.0	0.0
