19

C	0.0	0.0	0.0
C	-0.215889	-0.013413	-1.586166
F	1.389671	0.0	0.0
H	0.665375	0.511668	-1.968524
N	-0.578368	1.144832	0.611356
H	-0.376145	1.971673	0.056979
H	-1.601616	0.93208	0.527688
C	-0.511869	-1.235718	0.691207
H	-1.598418	-1.222382	0.564611
H	-0.049408	-2.133644	0.284753
H	-0.253585	-1.14933	1.749192
C	-1.478251	0.585272	-2.162907
H	-1.461987	1.659192	-1.958725
H	-2.361986	0.175748	-1.658394
H	-1.489852	0.457235	-3.248641
N	-0.006483	-1.409607	-2.093584
O	-0.986781	-2.058776	-2.459121
O	1.149157	-1.847467	-2.096201
F	-3.003166	0.0	0.0
