16

C	0.0	0.0	0.0
C	-0.406302	0.008573	-1.490308
Br	1.955382	0.0	0.0
H	0.094297	-0.828452	-1.978372
H	-0.281192	-0.990282	0.366043
C	-0.58327	1.064924	0.902692
H	-0.269142	0.882745	1.932627
H	-1.676174	0.996769	0.86395
H	-0.270779	2.061767	0.599876
N	0.196059	1.21742	-2.189888
O	-0.142218	2.326395	-1.785074
O	0.938055	1.00947	-3.147863
N	-1.787376	-0.006705	-1.80846
H	-2.408543	0.458467	-1.149917
H	-2.14147	-0.946999	-1.904673
Br	-4.514987	0.0	0.0
