10
Coordinates from ORCA-job run
  C   -0.57235142297122      0.31569579400139      0.15599634368000
  C   0.49127181655270     -0.44539109531775     -0.16638525660327
  H   -0.39076623685764      1.26417615218553      0.65094751491834
  H   0.47183177834948     -1.41220039068209     -0.64978036204192
  N   -1.88173125336552     -0.02594680552455     -0.01888313425359
  H   -2.55451213735669      0.71994476354133     -0.02123167409212
  H   -2.09465052303704     -0.78920392649656     -0.63957037019359
  N   1.82067939155358      0.01279357314713      0.15197143078287
  O   2.74163694332937     -0.73835463731448     -0.17683538687530
  O   1.96859164380298      1.09848657246006      0.71377089467857
