10
Coordinates from ORCA-job run
  C   -0.54103572167575      0.29641403571518      0.26674768132306
  C   0.46141543800417     -0.30893967498251     -0.39859363073480
  H   -0.29074632189960      0.88546756270944      1.14307248600868
  H   0.37207714376130     -0.91806067552389     -1.28727361109415
  N   -1.85573530541551      0.30171198061669     -0.10051631042232
  H   -2.52859045407037      0.51475610042294      0.61444434055097
  H   -2.16088171387136     -0.37946946089803     -0.77598613935370
  N   1.81865306103878     -0.16136286261858      0.06520594346534
  O   2.04596707134656      0.51928419381934      1.06574871367401
  O   2.67887680278178     -0.75080119926057     -0.59284947341709
