10
Coordinates from ORCA-job run
  C   -0.56411405591717      0.33609763332920      0.14612807349057
  C   0.47992070378171     -0.46504094889969     -0.14028303630839
  H   -0.35718467274989      1.31747594856993      0.56036335052406
  H   0.43412614619643     -1.46591876353901     -0.54640396784418
  N   -1.88295776305150      0.00160026073785      0.03183844770873
  H   -2.11773069333503     -0.80231099406657     -0.52695860539729
  H   -2.54090974912422      0.75870139937695     -0.02699730603403
  N   1.82362253206191     -0.00468056761848      0.10801227624690
  O   2.00130548558822      1.11961923982261      0.57745940571369
  O   2.72492206654955     -0.79454320771281     -0.18215863810007
