10
Coordinates from ORCA-job run
  C   -0.75929659576481     -0.50508399830574      0.25654191093998
  C   0.57654633039721     -0.56898945618678      0.49185674081795
  H   -1.36110420154315     -1.29611638071377      0.69525967958293
  H   1.03240669309137     -1.35998005024150      1.06601828579998
  N   -1.45400860587969      0.45008417374743     -0.39881426242338
  H   -2.40009264797015      0.25513514592133     -0.67053807905346
  H   -0.92582458600405      1.12617010717641     -0.92728184560824
  N   1.50883441825069      0.37730550446547     -0.02953717827814
  O   2.69975079846801      0.19936376935968      0.22914086453196
  O   1.08178839695458      1.32211118477746     -0.71364611630958
