10
Coordinates from ORCA-job run
  C   -0.72986024297737     -0.36611303191493      0.47913543858053
  C   0.61440730643648     -0.55908858907080      0.45826967391538
  H   -1.29405231859809     -1.00311200335319      1.15470307269601
  H   1.10849015611393     -1.30228584104379      1.06375338441059
  N   -1.45891820922397      0.55373914252851     -0.18734214745993
  H   -0.99656485541608      1.08222808596957     -0.90976160443385
  H   -2.45640384348388      0.45195473009241     -0.21951320684361
  N   1.49676582665658      0.18116904807259     -0.38403136198877
  O   1.02040228382571      1.05705605249779     -1.12518241253288
  O   2.69573389666668     -0.09554759377816     -0.33003083634347
