10
Coordinates from ORCA-job run
  C   -0.74649295019885     -0.27696429648562      0.51134057686564
  C   0.57250356110461     -0.59727520849322      0.46485476264001
  H   -1.34861664273119     -0.83248739900207      1.22505611439435
  H   1.01132044831903     -1.36144500872265      1.08659294423092
  N   -1.40527960506276      0.68291258192040     -0.17191510620752
  H   -0.91710539763093      1.13663327054076     -0.92744849965984
  H   -2.40843792344923      0.67231242319398     -0.17667485628092
  N   1.49596392300198      0.02455470442116     -0.42777202740712
  O   2.66481577054288     -0.36209322687581     -0.39265261840567
  O   1.08232881610447      0.91285215950306     -1.19138129016985
