10
Coordinates from ORCA-job run
  C   -0.76050879801711     -0.44423692071356      0.34771194493029
  C   0.58540115315305     -0.58482762315858      0.46393962999660
  H   -1.36607423800039     -1.13065232056069      0.93299947419973
  H   1.04373214619734     -1.32234859393288      1.10353908428198
  N   -1.45313567862409      0.40107022552663     -0.44463674398289
  H   -0.93892520626016      1.13159863573723     -0.91036871050781
  H   -2.43550805535679      0.52294954377558     -0.28193143224220
  N   1.51986457328407      0.24926088792230     -0.21946894772903
  O   2.71700517797681      0.04210676415471     -0.01693659619070
  O   1.08814892564724      1.13607940124928     -0.97484770275598
