10
Coordinates from ORCA-job run
  C   -0.56803955891634      0.00847529236604      0.36021201637914
  C   0.48852383515553      0.06135777773843     -0.47333359843880
  H   -0.37534158632943     -0.08027509577269      1.42442802216347
  H   0.45851235664719      0.15386256629625     -1.55005970066094
  N   -1.87875287272999      0.13116934299606     -0.00179621495363
  H   -2.11132112351128      0.01366060544190     -0.97427737913996
  H   -2.56381880615032     -0.22882570434551      0.63898346629015
  N   1.82576521692477     -0.00199814831735      0.06215539438440
  O   1.98657754536377     -0.10004013901421      1.27889562196065
  O   2.73889499354609      0.04261350261109     -0.76520762798450
