10
Coordinates from ORCA-job run
  C   -0.76335647360109     -0.48187993386535      0.28437773494912
  C   0.58156049354074     -0.64303512314669      0.38570620719017
  H   -1.37274161148222     -1.23774759081094      0.77205008426435
  H   1.03538185085081     -1.46120957659739      0.92203891340994
  N   -1.45069574786464      0.46207822638945     -0.39235439298054
  H   -2.43289109362578      0.56559912934620     -0.21624055769908
  H   -0.93283191352490      1.24611729566360     -0.75572190225354
  N   1.52157842484106      0.26929023345908     -0.18053108618144
  O   2.71725578969224      0.03102679167496     -0.00582020110473
  O   1.09574028117378      1.24976054788708     -0.81350479959426
