10
Coordinates from ORCA-job run
  C   -0.60304201560226      0.28917239415627     -0.06902222979616
  C   0.52959494029473     -0.42299569227799      0.08656191027044
  H   -0.53709127021673      1.25267928259889     -0.56385796355077
  H   0.62289352169839     -1.39609652576864      0.54828390159999
  N   -1.85845716447522     -0.11993955938872      0.27670393883691
  H   -2.55517767511230      0.59404398412536      0.39540591049078
  H   -1.94480740082124     -0.90143601906701      0.90534842016929
  N   1.77897543577370      0.10475752796240     -0.40266335464331
  O   2.77048848955942     -0.60580034634718     -0.22284192589819
  O   1.79662313890151      1.20561495400662     -0.95391860747897
