10
Coordinates from ORCA-job run
  C   -0.73736426574354      0.03105574705172      0.59270717860720
  C   0.59046343870240      0.30306940594536      0.67784032679515
  H   -1.32200945294208      0.21263159040120      1.49033015030979
  H   1.05240160353255      0.68602853131776      1.57398792019539
  N   -1.42518257899227     -0.49354958684577     -0.44397238479676
  H   -0.95157667914665     -0.55983015362191     -1.33079436396033
  H   -2.42749145952894     -0.45132427190374     -0.42964679895278
  N   1.49374532118468      0.13535630458844     -0.41386898592042
  O   1.05319274449154     -0.29428573651927     -1.49300495520812
  O   2.67382132844230      0.43184816958621     -0.22257808706912
