10
Coordinates from ORCA-job run
  C   -0.55565886214595      0.32800764613795      0.18860274290780
  C   0.47359990915171     -0.38593676997478     -0.30632589948932
  H   -0.32907758706565      1.17142507544788      0.83272415612421
  H   0.40991647584799     -1.24155336113864     -0.96408437527539
  N   -1.87540784288730      0.13488739740499     -0.10140914930593
  H   -2.54486981355281      0.51178026728482      0.54598023649743
  H   -2.14355232382415     -0.73924648391732     -0.52263332319626
  N   1.82652985053715     -0.01450083489745      0.02620671263703
  O   2.02550863687347      0.95128122610038      0.76355289393698
  O   2.71301155706554     -0.71714416244781     -0.46461399483654
