10
Coordinates from ORCA-job run
  C   -0.58261299427979      0.29306126135055      0.16507352261237
  C   0.51464745874278     -0.33659787955255     -0.29706066463233
  H   -0.45084250524347      1.05987075085956      0.92154646995296
  H   0.54599316722242     -1.11279190936585     -1.04895476853152
  N   -1.85874329040988      0.10985123685169     -0.28429901244636
  H   -2.60234362593419      0.38943276593026      0.33089030788810
  H   -2.05215477426547     -0.71522442580034     -0.82793177054946
  N   1.81362618367322      0.01996418751164      0.21730988346698
  O   1.90495352013004      0.89795466556613      1.07565594218242
  O   2.76747686036436     -0.60552065335109     -0.25122990994317
