10
Coordinates from ORCA-job run
  C   -0.74493974236975     -0.38898509325642      0.43576488443534
  C   0.49405889737483     -0.80698807354297      0.06871336212707
  H   -1.38024536640438     -1.13249491012035      0.90916567011259
  H   0.84062681248174     -1.81658466846389      0.22267712679616
  N   -1.27796109368110      0.84765563187513      0.34429806381840
  H   -0.77369762197248      1.53482655193587     -0.19286360890823
  H   -2.26555141890473      0.96207422013933      0.47837701127076
  N   1.44383784358455      0.03840762886706     -0.57854807963464
  O   2.52960485797241     -0.45784433855420     -0.88158832744019
  O   1.13426683191890      1.21993305112045     -0.80599610257727
