10
Coordinates from ORCA-job run
  C   -0.75110682695417     -0.30177330469747      0.49156970347775
  C   0.57411572183024     -0.59622460261455      0.46179201744193
  H   -1.35571403931930     -0.88591345705773      1.17977439773156
  H   1.01510372604271     -1.37192222520232      1.06755100623403
  N   -1.41365415593570      0.66722088501779     -0.17612512689935
  H   -2.41583066974147      0.63067852812011     -0.20878703968912
  H   -0.91928763659783      1.14359108498689     -0.91363247739012
  N   1.50205906473781      0.06131976262097     -0.40006482851542
  O   1.08782563951941      0.96433592109466     -1.14591852013483
  O   2.67548917641830     -0.31031259226836     -0.35715913225644
