10
Coordinates from ORCA-job run
  C   -0.77028973345229     -0.53455510276767      0.12743583717031
  C   0.56608045672032     -0.69801128963492      0.30535278687559
  H   -1.39127999103043     -1.39647002898905      0.35533700528119
  H   1.00382350557841     -1.62597972007383      0.63738743197320
  N   -1.44232402356801      0.57847359701657     -0.23594546583276
  H   -0.90362923341334      1.36158925572468     -0.56966376849766
  H   -2.40353289117138      0.49548277007394     -0.51093833043696
  N   1.52023450813303      0.32847705290425      0.03684158290527
  O   1.11339322561738      1.43345378760556     -0.35894846044517
  O   2.70852417658631      0.05653967814047      0.21314138100698
