10
Coordinates from ORCA-job run
  C   -0.54472118572318      0.38829453241844     -0.06577596914688
  C   0.45892988682703     -0.48287143688009      0.15320243013728
  H   -0.28782952052916      1.39961037645925     -0.36359394947725
  H   0.36430270727174     -1.51399378659493      0.46391776355277
  N   -1.87394218347018      0.14001784058985      0.12131056588915
  H   -2.52242521663179      0.74000889018424     -0.35705576126850
  H   -2.16850621153970     -0.81934975359523      0.20081830529465
  N   1.82592954884798     -0.05271482165056     -0.00957490768587
  O   2.05916320704175      1.10640736322196     -0.35327142587816
  O   2.68809896790550     -0.90640920415293      0.21002294858279
