10
Coordinates from ORCA-job run
  C   -0.70300257226467     -0.41623586244687      0.45683043366716
  C   0.57515193356743     -0.75683481296555      0.27357080390788
  H   -1.36407680445208     -1.11162520361481      0.97271630697933
  H   1.03626366529677     -1.68997505971823      0.56189822279664
  N   -1.19240833356041      0.82118331468973     -0.02005920548019
  H   -1.99300896922733      1.12823306504365      0.51112177103682
  H   -1.43587409246363      0.78712547556858     -1.00158388961903
  N   1.45864108316436      0.18896154626483     -0.41036207316006
  O   2.19123857321552      0.87121418855821      0.29360470693584
  O   1.42707551672405      0.17895334862047     -1.63773707706439
