10
Coordinates from ORCA-job run
  C   -0.58497065438025      0.12623364777021     -0.30663506498088
  C   0.51075438137892     -0.23204956744449      0.39000721373086
  H   -0.44407260046702      0.61622775161088     -1.26452599206358
  H   0.53285057844789     -0.73129026086325      1.34865994437911
  N   -1.87722960022897     -0.13439560185750      0.04730153422436
  H   -2.59000119915279      0.43312316836288     -0.37598681743013
  H   -2.06173603492591     -0.40076103807574      1.00039510311367
  N   1.82038709130466      0.03990450630943     -0.14826748584064
  O   1.92204394312825      0.60020626190788     -1.23998260898391
  O   2.77297409489522     -0.31619886772029      0.54903417385113
