15

C	-0.319972	-0.147871	-1.578375
C	0.197519	-0.065726	-0.147455
Cl	0.988866	-0.021509	-2.738018
H	1.109375	-0.660645	-0.023394
H	-0.860448	-1.0743	-1.762298
N	-1.337543	0.955912	-1.784388
O	-1.173909	1.819307	-2.631754
O	-2.299065	0.866034	-1.022237
N	-0.822156	-0.807124	0.728699
O	-1.129135	-1.946133	0.375781
O	-1.237877	-0.250045	1.737341
N	0.518173	1.227834	0.278233
H	-0.229848	1.625375	0.832669
H	1.382637	1.052576	0.868451
H	2.490985	-0.025534	1.286641
