15

C	-0.386479	-0.194694	-1.49185
C	0.02627	-0.080396	-0.035252
Cl	0.045012	1.270577	-2.386542
H	1.123036	-0.091128	-0.009542
H	0.078721	-1.037418	-1.992028
N	-1.871003	-0.401432	-1.69006
O	-2.631311	0.190381	-0.928326
O	-2.211676	-1.118924	-2.624898
N	-0.434027	-1.337206	0.63828
O	-0.7167	-2.300598	-0.096715
O	-0.415848	-1.388588	1.862418
N	-0.286033	1.073121	0.700926
H	-1.046966	1.613145	0.322537
H	0.595627	1.591881	0.782115
H	2.401556	0.761587	0.284029
