15

C	-0.465003	0.053096	-1.451483
C	0.0	0.0	0.0
Cl	-0.128555	-1.633239	-2.171725
H	1.10056	0.0	0.0
H	-0.384473	-0.900091	0.483118
N	-1.881711	0.27507	-1.659026
H	-2.37539	-0.558783	-1.361916
H	-2.118758	1.009937	-0.995545
N	0.253259	1.080176	-2.100535
H	-0.008602	1.136518	-3.076234
H	1.255504	0.948216	-1.990725
N	-0.552166	1.187178	0.68215
H	-0.028225	1.984237	0.334805
H	-0.317693	1.107398	1.665807
Br	3.683073	0.0	0.0
