15

C	-0.443215	0.006602	-1.455766
C	0.0	0.0	0.0
Cl	-0.090031	-1.576748	-2.223679
H	1.093751	0.0	0.0
H	-0.305793	0.995778	0.385159
N	-1.87994	0.202996	-1.52928
H	-2.129539	0.261472	-2.511384
H	-2.086791	1.105953	-1.10941
N	0.283553	0.999608	-2.23993
H	0.180783	1.890009	-1.757506
H	1.276783	0.772885	-2.18633
N	-0.535809	-1.113916	0.756286
H	-0.119628	-1.121006	1.679414
H	-1.541278	-1.021364	0.839758
Br	3.704483	0.0	0.0
