15

C	-0.232773	-0.044068	-1.498892
C	0.0	0.0	0.0
Cl	-2.013311	0.012986	-1.882059
H	1.107245	0.0	0.0
H	-0.367329	0.952567	0.39351
N	0.362938	1.088755	-2.188784
H	-0.034884	1.949154	-1.82493
H	1.351916	1.083067	-1.936346
N	0.291792	-1.288764	-1.99888
H	0.301193	-1.237052	-3.011583
H	1.257703	-1.353522	-1.67668
N	-0.601963	-1.122912	0.718922
H	-0.000799	-1.330129	1.509451
H	-0.548502	-1.926089	0.100428
Br	3.603901	0.0	0.0
