15

C	-0.383756	0.007161	-1.46929
C	0.0	0.0	0.0
Cl	-2.269289	0.561059	-1.475882
H	1.094595	0.0	0.0
H	-0.327513	0.94647	0.445622
N	0.263067	1.00357	-2.272567
H	1.261196	0.805324	-2.202978
H	0.100227	1.916285	-1.864776
N	-0.218263	-1.240301	-2.031225
H	-0.551666	-1.301259	-2.980628
H	-0.544357	-1.968364	-1.410623
N	-0.510868	-1.185289	0.678881
H	-1.393163	-0.979195	1.129674
H	0.156851	-1.473798	1.382786
Br	3.621425	0.0	0.0
