15

C	-0.379102	-0.02463	-1.469879
C	0.0	0.0	0.0
Cl	-2.268005	-0.550382	-1.479495
H	1.094604	0.0	0.0
H	-0.329908	-0.939713	0.457913
N	-0.189379	1.21193	-2.04993
H	-0.509153	1.954507	-1.443347
H	-0.518488	1.261273	-3.002256
N	0.25861	-1.04002	-2.258237
H	1.259076	-0.854828	-2.184942
H	0.079654	-1.944897	-1.83951
N	-0.508941	1.196039	0.662997
H	0.160648	1.49083	1.364207
H	-1.394222	0.996718	1.114988
Br	3.633826	0.0	0.0
