15
Coordinates from ORCA-job run
  C   -0.63467994545449      0.25260794847596      0.05482797016020
  C   0.14274283553297     -0.37273100110140     -1.09559867576343
  Cl  -2.24722203388648      0.73774192620923     -0.53303522428735
  H   0.07258973307981      0.28264718319515     -1.96742737150347
  H   -0.36471113382080     -1.30946235745903     -1.33967304834321
  C   -0.76227567794353     -0.63753187355363      1.26423691328158
  H   -1.29428030802182     -1.54598300903660      0.97621424109271
  H   -1.31301878163053     -0.13715009756052      2.05729910972668
  H   0.23687000525669     -0.89847817842102      1.61301731775373
  N   0.06608829299790      1.55320822990771      0.44917144154107
  O   0.71716059030459      2.12128497323991     -0.42401087063318
  O   -0.09474902686751      1.95611384775940      1.59437374869532
  N   1.50483772504973     -0.63836666744901     -0.65568570455917
  H   2.11028633692665      0.12557925849892     -0.92316441285586
  H   1.85936138847682     -1.48948018270507     -1.06754543430563
