15
Coordinates from ORCA-job run
  C   -0.45460392599920      0.32633322753426      0.04548999962538
  C   0.81040377380010     -0.05570835127559     -0.72391301813437
  Cl  -1.83583362047745      0.30580765073549     -1.06201633130740
  H   1.64361777415661      0.01787263092017     -0.02345294632125
  H   0.96263338465367      0.69304909604543     -1.51431108616559
  C   -0.73246845455614     -0.55628882947853      1.24202784921827
  H   0.11176726172436     -0.50742315267205      1.93104201975734
  H   -0.85594509163193     -1.58028496127865      0.89552447671705
  H   -1.63896892408980     -0.22734594557275      1.75303969729903
  N   -0.24021613674674      1.75445358379211      0.55637064438648
  O   0.75216068186499      1.87761771016472      1.27187307639147
  O   -1.02205872918503      2.64409091900379      0.25591407049662
  N   0.70383528467479     -1.42638985052179     -1.19448870697872
  H   1.62449432929054     -1.80075776657839     -1.37892244752061
  H   0.17218239252122     -1.46402596081822     -2.05417729746369
