15
Coordinates from ORCA-job run
  C   -0.48845775866317      0.13388543495977      0.16083880522947
  C   0.51614163382848     -0.62337083501736     -0.69785310233317
  Cl  -1.87576605857115      0.61020522147357     -0.83350965218709
  H   1.32093361845264     -0.94735720442060     -0.03540500326821
  H   0.00401245175841     -1.51698945617352     -1.08112235884765
  C   -0.96654032990915     -0.64844913888491      1.36622533893531
  H   -0.11435067739571     -0.91636531865534      1.99113435698610
  H   -1.66977869436848     -0.05308400029825      1.95094235804106
  H   -1.47472386690460     -1.55414650056686      1.03235634461571
  N   0.23434093481410      1.38532739076696      0.66210597189233
  O   -0.18196806695893      2.49486470136363      0.37711019374319
  O   1.21730801041128      1.13199459983979      1.35286442476673
  N   1.07142515080862      0.25640985040351     -1.70870385117024
  H   0.44691219451700      0.34103133362860     -2.49928793872671
  H   1.95951145818070     -0.09495607841895     -2.03769588767683
