15
Coordinates from ORCA-job run
  C   -0.61136379590930      0.24843878171170      0.01676337364746
  C   0.10940725539323     -0.34754311365628     -1.19688530439340
  Cl  -2.25414425103377      0.73005756480820     -0.48145528728876
  H   -0.45252280848650     -1.24106375676932     -1.48328811416839
  H   0.03666027145670      0.36001211303628     -2.02212616167237
  C   -0.68847306705151     -0.67299461510941      1.20993526381044
  H   -1.17042570765069     -1.60348192688355      0.90504303937913
  H   -1.26112280133071     -0.22011191684601      2.01588354577946
  H   0.31430210707074     -0.88889372218777      1.58327981553839
  N   0.09083904712379      1.54415131521492      0.42404232306282
  O   0.65164171650485      2.17718197907408     -0.46609368645864
  O   0.03339758249024      1.87044413153429      1.60462769961779
  N   1.49795319657125     -0.69616245378879     -1.00571611171235
  H   2.06611556394378      0.12001578062437     -0.82898749404164
  H   1.63673569090795     -1.38005016076276     -0.27602290109992
