15
Coordinates from ORCA-job run
  C   -0.53439536434019      0.11296832450289      0.13987220828756
  C   0.45031089791489     -0.65081958185842     -0.74106671127109
  Cl  -1.99382809375527      0.49514314387460     -0.77683582589901
  H   -0.10170794192492     -1.49535388133105     -1.16013923959775
  H   1.23585118343047     -1.05191489628263     -0.09271165221690
  C   -0.89607708525144     -0.62130510606877      1.41582804317002
  H   -1.36056832676154     -1.57646883056571      1.16590592492969
  H   -1.60263560618868     -0.03379816669486      2.00389980367725
  H   0.00623542218456     -0.80103664853762      2.00414259774772
  N   0.14514141453612      1.41501963869283      0.56525056060818
  O   1.33302230809858      1.29006742961464      0.86050445008819
  O   -0.51223457102865      2.43871138945685      0.65817882468081
  N   0.95195565031697      0.20261120024753     -1.80200961902130
  H   1.01780652865763     -0.29426218874518     -2.67729671299474
  H   1.86212358411142      0.56943817369488     -1.56352265218864
