15
Coordinates from ORCA-job run
  C   -0.63596951748844      0.24926821995256      0.06215958177716
  C   0.13861743790695     -0.35379236958196     -1.10231293962111
  Cl  -2.25375129065174      0.73576107418282     -0.50913743606162
  H   0.06009364977476      0.31514461070121     -1.96292576118592
  H   -0.36551130282560     -1.28905017787021     -1.35879901841383
  C   -0.75272124985994     -0.66112172364561      1.25746189574453
  H   0.24939997122355     -0.92379010691716      1.59622139741508
  H   -1.30015225738774     -0.17600940860183      2.06225960442150
  H   -1.28343986781568     -1.56654844693113      0.95779475623396
  N   0.06161097756105      1.54626929268493      0.47343194329151
  O   -0.08972910548583      1.92731087367371      1.62740526580761
  O   0.70101411547871      2.13364119528910     -0.39552332829077
  N   1.50436701852663     -0.61856859997158     -0.67437452012525
  H   2.10691648035891      0.14816747203736     -0.94001248046326
  H   1.85825494068441     -1.46668190500220     -1.09264896052958
