15
Coordinates from ORCA-job run
  C   -0.47941226494186      0.14248329040749      0.09118000608236
  C   0.47753316056112     -0.74108413236830     -0.72717199750003
  Cl  -1.69884484290670      0.84921866164926     -0.97923072809940
  H   -0.14000671956326     -1.50097014391961     -1.21398429245801
  H   1.13613545753773     -1.24542816661296     -0.01653259225931
  C   -1.15423818290296     -0.59645917613987      1.22719784702491
  H   -1.75534802928514     -1.40914361196134      0.81680977270501
  H   -1.81160873006515      0.07274660478306      1.78495118890998
  H   -0.40028380567340     -1.00586615798453      1.89959561088924
  N   0.38015480260027      1.25652791404816      0.68342060469795
  O   0.21238713018395      2.41868341548235      0.34489067478662
  O   1.24351260744966      0.84871524994420      1.45851753587774
  N   1.28944878525044     -0.07949368387365     -1.71875834365966
  H   1.97473751929938      0.52908108274109     -1.29118776288343
  H   0.72383311245593      0.46098885380464     -2.35969752411398
