15
Coordinates from ORCA-job run
  C   -0.61577250893266      0.24383764292418      0.02352547402864
  C   0.10435659985858     -0.34405906220921     -1.19521716957598
  Cl  -2.25592664867469      0.73864492987261     -0.46863308498570
  H   0.01572345010934      0.36313163082224     -2.01915464421740
  H   -0.44395056291392     -1.24721720954598     -1.47783103209389
  C   -0.69857196347699     -0.68625993065980      1.20873086144371
  H   0.30244855439562     -0.92657588251850      1.57076964686867
  H   -1.20345979179188     -1.60290160044437      0.89910990032340
  H   -1.25382172339397     -0.23080612509157      2.02557610338951
  N   0.10346452690434      1.53054575778007      0.42875512694769
  O   0.18059860108555      1.78809755820972      1.62558664564587
  O   0.54729440675402      2.22358493454776     -0.48174973322696
  N   1.49991873502162     -0.66731054039748     -1.01133980269341
  H   2.05916115676640      0.15878172446307     -0.85243283397679
  H   1.65753716828867     -1.33949382775272     -0.27469545787734
