13

C	0.0	0.0	0.0
C	-0.533485	0.152601	-1.413361
F	1.372866	0.0	0.0
H	-1.649275	0.152877	-1.286127
H	-0.375041	-0.936954	0.408992
C	-0.420115	1.139317	0.831804
N	-0.568091	2.101097	1.488595
N	-0.184443	-1.065991	-2.224771
O	-0.0119	-0.91182	-3.430447
O	-0.156192	-2.137023	-1.627997
C	-0.046072	1.347797	-2.078844
N	0.310724	2.341058	-2.593971
Cl	-3.275696	0.0	0.0
