13

C	0.0	0.0	0.0
C	-0.394811	-0.77877	-1.280253
F	1.372936	0.0	0.0
H	0.565545	-0.985959	-1.771147
H	-0.367863	-0.534166	0.873596
C	-0.400255	1.411972	0.095107
N	-0.431037	2.571859	0.279346
N	-1.135094	-0.0411	-2.369954
O	-1.844268	-0.711115	-3.105002
O	-0.818982	1.130287	-2.528031
C	-1.002454	-2.07414	-1.002709
N	-1.262655	-3.205303	-0.824793
Cl	-2.906574	0.0	0.0
