13

C	0.0	0.0	0.0
C	-0.403495	-0.781381	-1.277648
F	1.372923	0.0	0.0
H	0.553236	-1.000144	-1.768503
H	-0.362325	-0.532584	0.87703
C	-0.400685	1.410713	0.090627
N	-0.43109	2.569288	0.284518
N	-1.134171	-0.034637	-2.368192
O	-0.785356	1.126502	-2.538502
O	-1.872699	-0.686831	-3.088619
C	-1.030902	-2.062795	-0.990642
N	-1.286187	-3.193204	-0.797824
Cl	-2.919241	0.0	0.0
