13

C	0.0	0.0	0.0
C	-0.259052	0.031136	-1.533889
F	1.37401	0.0	0.0
H	0.104839	-0.927957	-1.907995
H	-0.40059	-0.912599	0.433607
C	-0.429063	1.180242	0.76251
N	-0.459814	2.131482	1.452488
N	0.719787	1.041937	-2.116765
O	0.55272	2.212508	-1.797768
O	1.5864	0.608968	-2.869058
C	-1.532749	0.329703	-2.186351
N	-2.210517	0.565544	-3.123605
Cl	-2.985446	0.0	0.0
