13

C	0.0	0.0	0.0
C	-0.510745	-0.158891	-1.421969
F	1.372681	0.0	0.0
H	-1.625594	-0.152129	-1.321877
H	-0.37969	-0.826186	0.599078
C	-0.417625	1.293819	0.563548
N	-0.547752	2.37158	1.011122
N	-0.114124	-1.514549	-1.943635
O	-0.133512	-2.43952	-1.138182
O	0.145826	-1.611218	-3.139478
C	-0.018551	0.876397	-2.315351
N	0.341257	1.742851	-3.021985
Cl	-3.245197	0.0	0.0
