18

C	-0.508596	0.021127	-1.406491
C	0.0	0.0	0.0
Cl	0.246811	1.320972	-2.309258
H	1.094583	0.0	0.0
N	-0.260284	-1.269544	-2.225755
O	-1.251764	-1.906186	-2.561215
O	0.904195	-1.50997	-2.485237
N	-2.051483	0.194255	-1.484559
O	-2.52671	0.744375	-2.466996
O	-2.674238	-0.285918	-0.54628
N	-0.36877	-1.203212	0.716692
O	-0.340056	-2.284867	0.095973
O	-0.54343	-1.111757	1.94341
C	-0.336021	1.25054	0.795013
H	0.332385	1.278227	1.672167
H	-0.120061	2.139623	0.188681
H	-1.382424	1.25435	1.13882
H	2.423141	0.0	0.0
