18

C	-0.473867	0.041897	-1.422467
C	0.0	0.0	0.0
Cl	0.472653	-0.977335	-2.495197
H	1.09057	0.0	0.0
N	-1.983025	-0.272107	-1.583845
O	-2.686135	0.349992	-0.79497
O	-2.360053	-1.033663	-2.453379
N	-0.354128	1.448431	-2.019975
O	-1.202811	1.766579	-2.847282
O	0.622231	2.102823	-1.692189
N	-0.384986	-1.257206	0.60076
O	-0.878547	-2.153557	-0.113073
O	-0.102954	-1.404068	1.801144
C	-0.331359	1.144596	0.942662
H	-0.168352	2.105192	0.459979
H	-1.352963	1.086434	1.318782
H	0.376117	1.071725	1.770287
H	2.400944	0.0	0.0
