18

C	-0.542702	0.023595	-1.388087
C	0.0	0.0	0.0
Cl	-2.306076	0.119895	-1.540291
H	1.090994	0.0	0.0
N	0.069869	1.264687	-2.075548
O	-0.540981	2.322031	-1.993742
O	1.173986	1.085774	-2.579252
N	-0.022342	-1.126786	-2.261535
O	-0.541555	-1.235514	-3.366611
O	0.922544	-1.763899	-1.82426
N	-0.427461	-1.191625	0.701858
O	-0.997353	-2.102516	0.073881
O	-0.117207	-1.269721	1.90122
C	-0.28428	1.2578	0.798581
H	0.062914	1.071507	1.813931
H	0.311229	2.079601	0.396375
H	-1.341735	1.532025	0.804652
H	2.400026	0.0	0.0
