18

C	-0.594067	0.126405	-1.361875
C	0.0	0.0	0.0
Cl	-2.344887	0.454461	-1.369079
H	1.090833	0.0	0.0
N	0.06689	1.274118	-2.14656
O	-0.23362	1.334162	-3.33489
O	0.853219	2.001274	-1.554735
N	-0.287098	-1.06563	-2.298409
O	0.913919	-1.258629	-2.420033
O	-1.196573	-1.642023	-2.861461
N	-0.35489	-1.257338	0.611141
O	-0.183955	-1.33537	1.839686
O	-0.65711	-2.230472	-0.106797
C	-0.341921	1.1465	0.941455
H	-1.276757	0.956387	1.470906
H	0.473951	1.227368	1.662727
H	-0.414261	2.088575	0.403184
H	2.36549	0.0	0.0
