18

C	-0.558833	0.051374	-1.384249
C	0.0	0.0	0.0
Cl	-2.269207	0.536391	-1.48496
H	1.088661	0.0	0.0
N	0.217775	1.064506	-2.250999
O	0.891049	1.912265	-1.682748
O	0.096844	0.920579	-3.463427
N	-0.335829	-1.249323	-2.184751
O	-1.265952	-1.757705	-2.779645
O	0.835344	-1.597781	-2.186183
N	-0.406366	-1.202234	0.692225
O	-0.891305	-2.161267	0.06137
O	-0.140132	-1.241022	1.904718
C	-0.325401	1.206748	0.870328
H	-0.254734	2.125645	0.294093
H	0.423821	1.241202	1.662641
H	-1.321265	1.121975	1.311067
H	2.386353	0.0	0.0
