18

C	-0.504591	0.037582	-1.408889
C	0.0	0.0	0.0
Cl	0.28833	1.320948	-2.303047
H	1.094531	0.0	0.0
N	-0.284966	-1.252344	-2.23527
O	0.874759	-1.53579	-2.460836
O	-1.286384	-1.842068	-2.617209
N	-2.044816	0.264601	-1.481832
O	-2.683336	-0.220566	-0.556423
O	-2.504138	0.870891	-2.439954
N	-0.370699	-1.201124	0.717499
O	-0.344254	-2.280324	0.104688
O	-0.5388	-1.110679	1.942598
C	-0.350494	1.244046	0.795007
H	-1.392731	1.241679	1.12311
H	0.302372	1.268325	1.67062
H	-0.139912	2.135257	0.200974
H	2.419216	0.0	0.0
