18

C	-0.482459	-0.083365	-1.417001
C	0.0	0.0	0.0
Cl	0.54724	-1.049751	-2.46293
H	1.089508	0.0	0.0
N	-1.949083	-0.571997	-1.53458
O	-2.267605	-1.285405	-2.468652
O	-2.689795	-0.118266	-0.674691
N	-0.515252	1.306046	-2.063518
O	0.497219	1.975004	-1.936136
O	-1.520352	1.616703	-2.697878
N	-0.344128	-1.215782	0.692362
O	-0.170303	-1.223877	1.921705
O	-0.65571	-2.224119	0.025155
C	-0.352845	1.211144	0.843812
H	-1.329968	1.105027	1.313799
H	-0.329252	2.12592	0.259231
H	0.419322	1.293725	1.609469
H	2.381017	0.0	0.0
