18

C	-0.446962	0.013379	-1.426837
C	0.0	0.0	0.0
Cl	0.365479	1.306059	-2.303583
H	1.091084	0.0	0.0
N	-0.093462	-1.287319	-2.189848
O	1.073715	-1.62063	-2.107714
O	-0.979158	-1.821646	-2.83951
N	-1.972203	0.196003	-1.630159
O	-2.675026	-0.076165	-0.66388
O	-2.363146	0.575702	-2.726295
N	-0.400937	-1.195485	0.695498
O	-0.228354	-1.203958	1.925062
O	-0.759685	-2.193051	0.041669
C	-0.3172	1.24449	0.802496
H	-0.023958	2.131949	0.241375
H	-1.372497	1.302107	1.073232
H	0.293312	1.208365	1.704449
H	2.396043	0.0	0.0
