13

C	0.0	0.0	0.0
C	-0.52084	0.278614	-1.405456
Br	1.952967	0.0	0.0
H	-1.619159	0.214403	-1.354113
H	-0.297721	0.806652	0.670361
H	-0.149488	-0.487292	-2.094695
C	-0.490505	-1.340374	0.510394
H	-0.085854	-1.547404	1.503236
H	-1.582532	-1.309888	0.551845
H	-0.16987	-2.139934	-0.163958
C	-0.130912	1.591378	-1.916397
N	0.18375	2.640275	-2.338906
Br	-3.881863	0.0	0.0
