13

C	0.0	0.0	0.0
C	-0.545222	-0.138903	-1.418002
Br	1.954218	0.0	0.0
H	-1.644257	-0.102019	-1.324511
H	-0.30005	0.978361	0.378841
H	-0.221958	0.698642	-2.041894
C	-0.495184	-1.101122	0.917917
H	-0.15322	-0.931178	1.941295
H	-1.589625	-1.089939	0.89794
H	-0.128515	-2.074164	0.585385
C	-0.146295	-1.385331	-2.064999
N	0.171493	-2.382706	-2.59654
Br	-3.882213	0.0	0.0
