13

C	0.0	0.0	0.0
C	-0.545793	0.132916	-1.417485
Br	1.953004	0.0	0.0
H	-0.257011	-0.739607	-2.012122
H	-0.28604	0.879238	0.578381
H	-1.644396	0.141991	-1.322119
C	-0.51339	-1.2618	0.663253
H	-0.146006	-1.340235	1.688013
H	-0.186696	-2.145889	0.108129
H	-1.606636	-1.212619	0.669301
C	-0.103415	1.341191	-2.106807
N	0.249131	2.309385	-2.669416
Br	-3.89858	0.0	0.0
