13

C	0.0	0.0	0.0
C	-0.243473	-0.139071	-1.526644
Br	1.955235	0.0	0.0
H	0.351392	0.63359	-2.021385
H	-0.315158	0.978175	0.361935
H	0.20336	-1.093867	-1.824709
C	-0.570343	-1.120727	0.830123
H	-0.282993	-1.017003	1.878672
H	-1.662194	-1.058243	0.748293
H	-0.221912	-2.089373	0.46193
C	-1.553439	-0.083161	-2.187724
N	-2.358329	-0.073673	-3.043983
Br	-3.968377	0.0	0.0
