13

C	0.0	0.0	0.0
C	-0.54466	-0.147166	-1.417057
Br	1.954122	0.0	0.0
H	-0.221359	0.686963	-2.045692
H	-0.299185	0.981068	0.372432
H	-1.643819	-0.110577	-1.323882
C	-0.495253	-1.094616	0.925227
H	-1.589662	-1.086354	0.902582
H	-0.125361	-2.069311	0.601332
H	-0.155775	-0.91582	1.947912
C	-0.144458	-1.39762	-2.055884
N	0.175732	-2.398865	-2.57894
Br	-3.882675	0.0	0.0
