15

C	0.0	0.0	0.0
C	-0.319688	0.083782	-1.510326
Cl	1.765166	0.0	0.0
H	0.404706	0.823072	-1.901262
H	-0.435371	-0.855857	0.500185
N	-0.395203	1.232921	0.754557
O	-0.579018	1.124898	1.957451
O	-0.432219	2.285299	0.125605
N	-1.635468	0.466968	-1.902228
H	-2.326565	0.155906	-1.163125
H	-1.68689	1.4806	-1.908424
N	-0.046909	-1.282839	-1.989389
H	-0.603633	-1.381337	-2.829717
H	0.931849	-1.379671	-2.226717
H	-3.22852	0.0	0.0
