15

C	0.0	0.0	0.0
C	-0.473122	-0.072439	-1.441189
Cl	1.760459	0.0	0.0
H	-1.564636	-0.058643	-1.34921
H	-0.347824	-0.900511	0.523272
N	-0.614688	1.111322	0.739392
O	-1.769194	1.419728	0.223696
O	-0.361508	1.126148	1.97223
N	-0.097088	-1.377033	-1.992242
H	-0.550064	-1.478885	-2.893447
H	0.905546	-1.401426	-2.148176
N	-0.038467	1.103577	-2.185349
H	0.887968	0.951025	-2.566142
H	-0.680368	1.271876	-2.949324
H	-2.866228	0.0	0.0
