15

C	0.0	0.0	0.0
C	-0.438154	-0.004646	-1.525889
Cl	1.760057	0.0	0.0
H	-1.536062	-0.035602	-1.504705
H	-0.414373	-0.887814	0.51114
N	-0.392518	1.17478	0.865998
O	0.413288	2.135449	1.061929
O	-1.791308	1.445101	0.872952
N	-0.083041	-1.180215	-2.330163
H	0.92002	-1.328432	-2.247258
H	-0.535092	-1.974813	-1.870395
N	-0.142136	1.27242	-2.114166
H	0.858389	1.41796	-2.175154
H	-0.556001	1.284376	-3.037922
H	-1.759983	0.0	0.0
