15

C	0.0	0.0	0.0
C	-0.577721	0.021216	-1.445516
Cl	1.761101	0.0	0.0
H	0.103365	-0.673755	-1.974511
H	-0.335051	-0.897451	0.513588
N	-0.443846	1.143111	0.877644
O	-1.247733	0.858359	1.75969
O	0.03678	2.250028	0.663416
N	-0.534197	1.375622	-1.960642
H	-1.002372	1.355104	-2.856662
H	0.415805	1.709432	-2.064936
N	-1.907283	-0.473971	-1.600466
H	-1.927851	-1.477709	-1.457105
H	-2.65854	-0.095609	-0.943682
H	-3.945351	0.0	0.0
