15

C	0.0	0.0	0.0
C	-0.702103	-0.077497	-1.332808
Cl	1.757745	0.0	0.0
H	-1.761271	0.096494	-1.01994
H	-0.346583	-0.833068	0.603724
N	-0.390818	1.230866	0.790504
O	-0.453177	2.304102	0.19433
O	-0.55512	1.080307	1.99487
N	-0.598564	-1.449978	-1.800606
H	-0.004238	-1.459791	-2.619822
H	-1.527451	-1.777023	-2.038645
N	-0.174762	0.855598	-2.329856
H	-0.053042	1.754946	-1.876763
H	-0.917536	0.986938	-3.010622
H	-3.291442	0.0	0.0
