13

C	0.0	0.0	0.0
C	-0.41681	0.324103	-1.450797
F	1.405588	0.0	0.0
H	-0.884637	1.321715	-1.447451
H	-0.31138	-1.024065	0.214479
H	0.495469	0.374097	-2.057764
N	-0.5333	0.841156	1.025053
H	-1.550436	0.639452	0.904572
H	-0.40266	1.806193	0.732462
N	-1.305051	-0.719584	-1.962266
H	-2.120705	-0.632261	-1.323214
H	-1.61378	-0.438809	-2.88866
F	-2.886593	0.0	0.0
