13

C	0.0	0.0	0.0
C	-0.45445	0.118607	-1.43135
F	1.422227	0.0	0.0
H	-1.541721	0.012377	-1.356586
H	-0.265373	-0.999439	0.366522
H	-0.207018	1.137473	-1.766409
N	-0.54026	1.070495	0.761828
H	-1.559976	0.904323	0.572245
H	-0.396057	0.874657	1.747681
N	0.134089	-0.935164	-2.271072
H	1.016539	-0.610845	-2.633671
H	-0.470749	-1.079922	-3.065425
F	-2.864431	0.0	0.0
