13

C	0.0	0.0	0.0
C	-0.472866	-0.246527	-1.423059
F	1.38045	0.0	0.0
H	-1.544766	-0.431128	-1.309195
H	-0.291533	-0.8683	0.608967
H	0.050797	-1.134447	-1.798087
N	-0.562124	1.227309	0.478871
H	-0.366625	1.302132	1.472213
H	-1.588524	0.989742	0.376439
N	-0.163172	0.914443	-2.285518
H	-0.968273	1.060228	-2.88517
H	-0.152956	1.71258	-1.654989
F	-2.874945	0.0	0.0
