13

C	0.0	0.0	0.0
C	-0.259453	-0.129435	-1.518939
F	1.390273	0.0	0.0
H	0.096443	0.816802	-1.918838
H	-0.271739	-0.929075	0.532142
H	0.428587	-0.91918	-1.860539
N	-0.58989	1.170926	0.553681
H	-1.605667	0.98346	0.418802
H	-0.437579	1.153496	1.562077
N	-1.567075	-0.416778	-2.0669
H	-2.240721	0.216852	-1.614246
H	-1.877987	-1.272826	-1.623823
F	-3.004426	0.0	0.0
