13

C	0.0	0.0	0.0
C	-0.424492	-0.030861	-1.453295
F	1.409863	0.0	0.0
H	-1.514413	-0.120289	-1.388875
H	-0.313388	-0.932922	0.470914
H	-0.159444	0.950764	-1.891413
N	-0.557431	1.080207	0.745684
H	-1.578125	0.812903	0.67463
H	-0.454406	1.922772	0.183517
N	0.17952	-1.164752	-2.162205
H	1.176496	-1.002366	-2.231787
H	-0.191788	-1.203673	-3.103342
F	-2.852471	0.0	0.0
