13

C	0.0	0.0	0.0
C	-0.413335	-0.202884	-1.450048
F	1.41072	0.0	0.0
H	-1.506411	-0.199617	-1.417889
H	-0.312382	-0.869807	0.584986
H	-0.05234	0.664702	-2.020775
N	-0.556355	1.157908	0.617094
H	-1.576472	0.882444	0.57448
H	-0.462193	1.928152	-0.044554
N	0.098654	-1.425382	-2.084424
H	-0.385769	-2.211995	-1.66397
H	1.074799	-1.516834	-1.821001
F	-2.841023	0.0	0.0
