13

C	0.0	0.0	0.0
C	-0.425058	0.018348	-1.45807
F	1.415117	0.0	0.0
H	-0.059708	-0.894673	-1.959445
H	-0.320546	-0.941115	0.450811
H	-1.518643	0.008099	-1.387117
N	-0.533158	1.06995	0.773924
H	-0.4426	1.900442	0.193518
H	-1.550687	0.81308	0.722824
N	0.055231	1.25289	-2.094128
H	-0.381749	1.354308	-3.000672
H	1.054847	1.179988	-2.235627
F	-2.848273	0.0	0.0
