16

C	-0.420143	-0.041053	-1.45052
C	0.0	0.0	0.0
Br	-0.235535	1.795419	-2.133728
H	1.088548	0.0	0.0
H	-0.373623	0.865143	0.538333
C	0.40743	-0.958994	-2.318172
H	0.192494	-1.991355	-2.040385
H	0.194049	-0.809218	-3.375965
H	1.453802	-0.736319	-2.091211
N	-1.915737	-0.330189	-1.588396
O	-2.287902	-0.907515	-2.60633
O	-2.647015	0.06546	-0.687473
N	-0.431345	-1.179052	0.747812
O	-0.75176	-2.204202	0.133676
O	-0.378462	-1.096352	1.974719
H	2.648092	0.0	0.0
