16

C	-0.426968	-0.077551	-1.446688
C	0.0	0.0	0.0
Br	-0.239345	1.74059	-2.164214
H	1.088572	0.0	0.0
H	-0.372379	0.877896	0.518517
C	0.40006	-1.015037	-2.290394
H	0.190503	-2.03883	-1.986621
H	1.448936	-0.786892	-2.070236
H	0.179738	-0.893576	-3.349894
N	-1.923925	-0.370784	-1.577814
O	-2.29671	-0.976328	-2.578184
O	-2.654592	0.046086	-0.685531
N	-0.426126	-1.161904	0.773973
O	-0.725065	-2.205301	0.179897
O	-0.378373	-1.053306	2.001327
H	2.630698	0.0	0.0
