16

C	-0.437303	0.023792	-1.433891
C	0.0	0.0	0.0
Br	0.29451	1.545563	-2.391449
H	1.088344	0.0	0.0
H	-0.299961	-0.932652	0.474487
C	0.071973	-1.244764	-2.100809
H	1.154789	-1.277482	-1.948306
H	-0.159988	-1.242193	-3.167595
H	-0.388032	-2.113644	-1.622673
N	-1.96593	0.026187	-1.56519
O	-2.550263	-0.65172	-0.722931
O	-2.498033	0.583425	-2.513992
N	-0.541651	1.069115	0.83255
O	-1.189279	1.982919	0.309845
O	-0.288506	0.992453	2.035567
H	2.648272	0.0	0.0
