16

C	-0.487709	-0.032152	-1.424254
C	0.0	0.0	0.0
Br	-0.085679	1.739759	-2.169553
H	1.088545	0.0	0.0
H	-0.333831	0.887693	0.531337
C	0.166274	-1.079704	-2.291172
H	-0.088452	-0.938813	-3.340188
H	-0.165412	-2.065176	-1.966379
H	1.245221	-0.987433	-2.132742
N	-2.014833	-0.121633	-1.486236
O	-2.512529	-0.689269	-2.453074
O	-2.643001	0.412202	-0.579396
N	-0.463981	-1.142166	0.786729
O	-0.98798	-2.109704	0.215056
O	-0.263001	-1.084532	2.000078
H	2.639925	0.0	0.0
