16

C	-0.435764	0.016079	-1.432963
C	0.0	0.0	0.0
Br	0.261717	1.558459	-2.380206
H	1.088348	0.0	0.0
H	-0.289821	-0.936175	0.475902
C	0.094807	-1.244878	-2.097998
H	1.177049	-1.25529	-1.942491
H	-0.134661	-1.246382	-3.163542
H	-0.351761	-2.122564	-1.622312
N	-1.963912	-0.013385	-1.569204
O	-2.507651	0.531326	-2.51935
O	-2.530009	-0.714073	-0.734046
N	-0.539971	1.068586	0.832821
O	-1.221218	1.959762	0.310038
O	-0.255097	1.019391	2.030156
H	2.646685	0.0	0.0
