16
Coordinates from ORCA-job run
  C   -0.59153284696563     -0.12833363753416      0.34356028128947
  C   0.75375991330338     -0.68812743289753     -0.16107971086786
  Br  -0.97684391787882     -0.87410546705488      2.09205687923761
  H   0.72682257141644     -1.77638369544177     -0.14808987297966
  N   -1.65749435465525     -0.71729381729412     -0.60037473085057
  O   -1.43362549586451     -1.83462157517873     -1.05194794878625
  O   -2.65605183544929     -0.04005501499378     -0.79582376186229
  C   -0.69631103461286      1.37555601671072      0.36412903705069
  H   -0.51872486587957      1.77457263389088     -0.63747834332435
  H   -1.69282585849840      1.66842121230399      0.68738146619589
  H   0.04321959533542      1.78907020248245      1.04729665229227
  N   1.87931163957062     -0.27772991946269      0.76269874542223
  O   2.29156922259627     -1.14572010118002      1.52275452052630
  O   2.27453427418089      0.88033585297358      0.67630634438006
  C   1.03144956164473     -0.19542101058158     -1.50444799089471
  N   1.22474343175657      0.19183575325764     -2.59694156682885
