16
Coordinates from ORCA-job run
  C   -0.43394751911243      0.27282413519033      0.31766009787729
  C   0.79611643777078     -0.40708644924222     -0.29573160490376
  Br  -0.00832660086412      0.94885109221007      2.06760618193839
  H   0.46152192369531     -0.97382154456524     -1.17128907185975
  N   -1.56476489947397     -0.77212625903127      0.38664620962765
  O   -2.22991502326618     -0.86313880505504      1.40134085613509
  O   -1.73813651533584     -1.37412773660498     -0.66763807168409
  C   -0.95780080139358      1.39007962644006     -0.57107325718016
  H   -0.23122010924377      2.19990592447597     -0.62928920680505
  H   -1.88412374888380      1.78016229552257     -0.14567136509487
  H   -1.15749813971387      1.00140093821119     -1.57224674188680
  N   1.38048947558931     -1.44834432180256      0.64536696092020
  O   2.59256150305256     -1.46039083680099      0.80121990420255
  O   0.56032871004645     -2.21218165343953      1.13700647324422
  C   1.81180740945593      0.56275340573705     -0.67325270415028
  N   2.60090789767721      1.35624018875460     -1.03065466038063
