16
Coordinates from ORCA-job run
  C   -0.58818742868566     -0.08140969107620      0.33590038783139
  C   0.74230923519222     -0.66921377908920     -0.15373293082261
  Br  -0.93550674847905     -0.79635269822518      2.10970336485715
  H   0.66195961286046     -1.75504220437676     -0.18565834320935
  N   -1.67762279112629     -0.70485559763575     -0.57439578611602
  O   -1.43096812447546     -1.79393518400621     -1.08011620168536
  O   -2.71259074495349     -0.06762841952797     -0.69555652916641
  C   -0.72607157682437      1.41779220008050      0.30978754468065
  H   0.03039199668873      1.86770362513447      0.94736623120552
  H   -0.59738038839209      1.77782428531324     -0.71414670537019
  H   -1.71881766907960      1.69978423836398      0.65344156112017
  N   1.89145479194458     -0.39513383924459      0.79806645379929
  O   2.53786852441617     -1.38040839941962      1.13295544619345
  O   2.09397236864277      0.76589789720417      1.12985115830853
  C   1.08917709521236     -0.15241698959870     -1.47229496567095
  N   1.33801184705869      0.26839455610382     -2.54017068595527
