16
Coordinates from ORCA-job run
  C   -0.41826540408690      0.39026970017334      0.44500316431103
  C   1.00327423165665     -0.02787562035618      0.05474053531565
  Br  -0.27575706706445      1.29588846239902      2.16303867018096
  H   1.55750441454240      0.88697762718264     -0.17870186993490
  N   -1.29210680387357     -0.83667537226620      0.68751607303068
  O   -0.71757829677049     -1.86350851608094      1.02336536192967
  O   -2.49746852944951     -0.67806106262328      0.55860350082682
  C   -1.06815997926885      1.31958469553903     -0.55757281444131
  H   -0.42392022708289      2.18638899254944     -0.71615884838226
  H   -2.02731301966009      1.66085214820495     -0.17469568543958
  H   -1.23362504829305      0.79955999956727     -1.50063219089258
  N   1.03897816809242     -0.82646181859013     -1.24896931566588
  O   -0.02233436233894     -1.23227362767070     -1.70536028408630
  O   2.15466414942495     -0.97808842561685     -1.72435081597478
  C   1.76579092765946     -0.77263222694736      1.05107382273385
  N   2.45731684651287     -1.32494495546404      1.82310069648893
