16
Coordinates from ORCA-job run
  C   0.51366293072559     -0.49665417772175      0.50369974905599
  C   -0.84026150911172      0.16656522089446      0.20382647177606
  F   0.25501717645430     -1.84648148775059      0.78085382877211
  H   -1.42069352701328      0.11583476907328      1.13696031098976
  C   1.49830069837797     -0.42590831005806     -0.64344945424644
  H   1.03381866964904     -0.83623910626437     -1.53952875418132
  H   2.38668575275963     -1.00636989213489     -0.39059193689552
  H   1.79253360578137      0.60865972201715     -0.82088847805251
  C   1.07677700822946      0.09934797365441      1.72605200882207
  N   1.53017532117362      0.55377046924017      2.70857226382691
  N   -1.45578664274579     -0.55142346040728     -0.90537417421294
  H   -2.39340852290049     -0.19508633092530     -1.05052828432877
  H   -1.53155261047415     -1.53641394197020     -0.67668319771199
  N   -0.60482951264419      1.55865854305386     -0.10136964403939
  H   -0.45350179600964      1.65742052514737     -1.09846875735543
  H   -1.38893704225170      2.13631948415172      0.16791804778140
