16
Coordinates from ORCA-job run
  C   0.54674804140507     -0.64650616190808      0.20257243332839
  C   -0.77093984435265     -0.06845318174258     -0.33856421317687
  F   0.48092570253852     -2.02669111255805      0.07148868528657
  H   -0.91732778738190     -0.55830470332309     -1.31299811855040
  C   1.77022101538154     -0.16759449698801     -0.55531487104378
  H   1.94315364753216      0.89450806669025     -0.38497528148478
  H   2.64342796937568     -0.72597502550270     -0.21562244754351
  H   1.63215797470425     -0.35817789618379     -1.62289218123820
  C   0.66596225464922     -0.32733554862396      1.63591638897405
  N   0.75622896205966     -0.05513702398709      2.77397788776633
  N   -0.63458073332873      1.38589075655850     -0.41632622919385
  H   -0.08437396646152      1.66178075772089     -1.22195895851729
  H   -1.55504167278838      1.79443416153651     -0.52330181681128
  N   -1.85232185484257     -0.47970842666961      0.51754784008297
  H   -1.87999094293216      0.09873916872942      1.34992937331694
  H   -2.74224876555819     -0.42246933374862      0.04152150880471
