16
Coordinates from ORCA-job run
  C   0.51280378314264     -0.50477814038176      0.56410403147446
  C   -0.86629856178211      0.05519512933912      0.15486899682056
  F   0.30019808899354     -1.76575078667598      1.10453399814145
  H   -1.52496461606731     -0.14727179597974      1.01248222983542
  C   1.48051328407317     -0.62465800005205     -0.59154973777059
  H   1.05744260929868     -1.32238056387898     -1.31396658442390
  H   1.63241616088987      0.34996082834253     -1.05622099173742
  H   2.43572795958533     -1.01384524813283     -0.23690649945530
  C   1.07205748292688      0.33886678537221      1.63860798261560
  N   1.48917395175511      1.04128333974355      2.48221377417248
  N   -1.36613456598197     -0.69802758254480     -0.97052204674240
  H   -1.09112951206676     -0.24195194447811     -1.83205279180970
  H   -2.37281642485980     -0.77493991509414     -0.94306600695268
  N   -0.71717879427131      1.46934419098723     -0.17279153894664
  H   -1.61380286295903      1.83067055195061     -0.47615094285810
  H   -0.42900798267693      2.00928315148314      0.63641612763677
