16
Coordinates from ORCA-job run
  C   0.52646668995491     -0.56067764900101      0.26049610814581
  C   -0.71694241636229      0.06410006676901     -0.38406791505597
  F   0.28558315308819     -1.93525733075486      0.37761965209028
  H   -0.73986470505220     -0.31805979391498     -1.41672401878530
  C   1.78113796379030     -0.36754343193944     -0.56241911390395
  H   1.98818015936387      0.69494559111387     -0.67614661557774
  H   2.62205350670338     -0.86140541372718     -0.07367237926481
  H   1.63155976534086     -0.81515258726080     -1.54728392763470
  C   0.69772330751474     -0.01947527642264      1.62017811641260
  N   0.87176842522609      0.44631520596782      2.68339743243075
  N   -0.52508610679086      1.49552274501248     -0.44740489127027
  H   -0.78252451284076      1.89306695448497      0.45048115225981
  H   -1.11727778407347      1.90699620101251     -1.15683597919958
  N   -1.87617577119865     -0.30978858559095      0.41180582465582
  H   -2.72190564870546      0.00349493374594     -0.04982245037796
  H   -1.92569602595864     -1.31708162949474      0.51039900507521
