16
Coordinates from ORCA-job run
  C   0.54422032770683     -0.35582912200220      0.43908858540812
  C   -0.59356710780803      0.39884385981409     -0.27449488908098
  F   -0.01200349072920     -1.44654203221569      1.09632287197416
  H   -0.11293839621595      1.14595376987440     -0.92573555931160
  C   1.59648132684072     -0.86602658303973     -0.52367974279207
  H   2.32521108288065     -1.46874314529902      0.02006203099112
  H   1.09931296425023     -1.47330934002669     -1.27861346894253
  H   2.11435172497530     -0.03478766274267     -1.00614602204842
  C   1.15389650499790      0.52061516974768      1.45678384031448
  N   1.65228933331995      1.25582405334922      2.22462645262488
  N   -1.48850188440702      0.97398883580550      0.72331383491391
  H   -2.27185983592256      1.41043136328388      0.25208989924138
  H   -1.02344875406054      1.68836891128052      1.27342712608469
  N   -1.27066002608509     -0.54845701353983     -1.12918857785522
  H   -1.85426629597591     -0.06728466048931     -1.80107005773498
  H   -1.85851747376730     -1.13504640380015     -0.54778632378694
