16
Coordinates from ORCA-job run
  C   0.53814702033601     -0.50277299293534      0.54191977055650
  C   -0.86265755082839      0.03462484296713      0.17893525956341
  F   0.36611626136516     -1.77674451371138      1.06613349336737
  H   -1.49325829262411     -0.19353077517155      1.05121221055069
  C   1.47672473481396     -0.58307692805762     -0.64102780728630
  H   1.04865157522155     -1.27731144239050     -1.36393531121018
  H   1.59598339542776      0.40218656361327     -1.09261338146667
  H   2.44882714306809     -0.95832569666465     -0.31865617746975
  C   1.10900749818338      0.33456153354816      1.61518573057400
  N   1.53567898065775      1.03235012625809      2.45784081631997
  N   -1.37812198076336     -0.71233890046378     -0.94358549635013
  H   -2.38161102669510     -0.81249991621055     -0.88874144064370
  H   -1.13740958642244     -0.23805510430352     -1.80573788156727
  N   -0.75121347092363      1.45618615498694     -0.13152329725752
  H   -0.44918061081196      1.99001889205375      0.67679728434323
  H   -1.66368409000467      1.80372815648154     -0.40220377202364
