16
Coordinates from ORCA-job run
  C   0.60046857206296     -0.22310099863535      0.48887402161216
  C   -0.59468824642907      0.48981685814265     -0.16869216634969
  F   0.10413458744147     -1.10128329265256      1.44730299060499
  H   -0.18309765031515      1.33886257608776     -0.73470928763016
  C   1.44040828035816     -1.02377544287981     -0.48484447213802
  H   0.81765032915365     -1.81244570262287     -0.90659764297223
  H   2.28274669796085     -1.47701673893183      0.03879915352389
  H   1.82690910204235     -0.38347835022273     -1.28159407877849
  C   1.42201709570287      0.78456025178627      1.18386663841379
  N   2.09453640120574      1.60571959663264      1.68447716304068
  N   -1.40559957548068      1.02727411501882      0.89154735419030
  H   -2.11723678423801      1.65083252943379      0.53478038203833
  H   -1.84237076019788      0.26981909285837      1.40181210081409
  N   -1.30676206692651     -0.46925992901801     -1.01647645273470
  H   -0.88035664657747     -0.53078036401087     -1.93425425486034
  H   -2.25775933576329     -0.14674420098626     -1.14429144877460
