16
Coordinates from ORCA-job run
  C   0.50214505524822     -0.56264818254355      0.20335072129878
  C   -0.76145238373430      0.04678636434598     -0.43876331953692
  F   0.25000141530961     -1.92672889081124      0.37070303223818
  H   -0.82710165902380     -0.41223954618363     -1.43191289193141
  C   1.75031927602293     -0.40635540028168     -0.63606172579125
  H   1.98781877655522      0.64798628382246     -0.76405330217929
  H   2.58537949721321     -0.92476050996205     -0.16213419698414
  H   1.56905018889421     -0.85119258742390     -1.61684991003318
  C   0.67099677108941      0.02357047144426      1.54536672893382
  N   0.75327341873423      0.55318270594652      2.59040930296913
  N   -0.53930942953850      1.46493373006360     -0.60827294077383
  H   -0.55039798814106      1.92547184846009      0.29723601182699
  H   -1.31095930788195      1.84693215976237     -1.14237547351778
  N   -1.99501236534811     -0.26714385643503      0.25974796651982
  H   -1.97282855313641      0.11344733659730      1.20076639664484
  H   -2.11292271226292     -1.27124192680151      0.33284360031623
