16
Coordinates from ORCA-job run
  C   0.49742663370868     -0.57697422222643      0.28128798635246
  C   -0.70752969412317      0.08697149931952     -0.39634326690974
  F   0.19406378232092     -1.93653575967785      0.42560557116024
  H   -0.73211532795969     -0.31716673490289     -1.42054103778404
  C   1.77101467567492     -0.45838010830619     -0.52654510327617
  H   2.02483057031385      0.59121642509381     -0.66335780973713
  H   1.61628017618499     -0.92412668636100     -1.50220132629044
  H   2.58317317386022     -0.97479047198830     -0.01304988055315
  C   0.67263703882222     -0.01268403152832      1.63100238620105
  N   0.85070016886471      0.46864034004769      2.68659023931464
  N   -0.45162803241156      1.50677396135762     -0.48827423039096
  H   -1.01389708358527      1.92739877949121     -1.21640629754619
  H   -0.70499668616925      1.93602204349815      0.39613321795603
  N   -1.89372015636453     -0.21734009880591      0.38935950331589
  H   -2.71790465091361      0.12192117894779     -0.09245142318457
  H   -1.98933458822343     -1.21894611395890      0.50919147137206
