16
Coordinates from ORCA-job run
  C   0.53976590114076     -0.24543432342807      0.37632206145446
  C   -0.62518586048138      0.46106438604716     -0.34633942189641
  F   -0.03961077201813     -1.19524585482686      1.23224388360284
  H   -0.18381867661336      1.21112803909336     -1.01186997490747
  C   1.50984832432783     -0.95621487914970     -0.54124204356560
  H   2.27522527557628     -1.46379896898576      0.04800304408294
  H   1.99226171722755     -0.23588612539683     -1.20511261925955
  H   0.96030485235265     -1.67581643506702     -1.14487570738709
  C   1.23792041623198      0.73498247816568      1.22619637693403
  N   1.80455495831003      1.54127327996994      1.86427565466637
  N   -1.53176184115421      1.16060253318770      0.55214134439341
  H   -1.79931731871199      0.54866893760251      1.31539121805062
  H   -1.09449669248647      1.98491286768006      0.94866944210226
  N   -1.29456113361342     -0.53326216103378     -1.15978088138029
  H   -2.08683394500056     -0.08276290691388     -1.60285973736793
  H   -1.66629520508756     -1.25521086694452     -0.55116263952258
