16
Coordinates from ORCA-job run
  C   0.52634604729643     -0.50072229241683      0.57052111252250
  C   -0.86266833240530      0.07986604936256      0.24841743211559
  F   0.34555174816028     -1.80752221640984      1.00535630149934
  H   -1.45446466583504     -0.07556723419987      1.15550628561822
  C   1.46363360823252     -0.53239430540869     -0.62036235973405
  H   2.40324466124150     -1.00221674962411     -0.32728345504710
  H   1.68273122757583      0.47465670046773     -0.98056648653607
  H   1.00694258954403     -1.13145858237990     -1.40884032700531
  C   1.12545318176060      0.24672941368997      1.69151555492385
  N   1.63359879499096      0.79348979594465      2.59732048067522
  N   -1.46961259823143     -0.70829850313167     -0.81335071819206
  H   -2.47590182536196     -0.72292808163264     -0.71506401258844
  H   -1.25077011996363     -0.31470849684935     -1.72047943316857
  N   -0.71851385190409      1.51277046732278      0.05461063482978
  H   -1.61615380526975      1.97421507534734      0.12755719477583
  H   -0.34041665983094      1.71408895991786     -0.86385820468870
