16
Coordinates from ORCA-job run
  C   0.44009900222606     -0.47883227834719      0.52438942528471
  C   -0.92376773129129      0.13323973241179      0.12743450756435
  F   0.18822409312717     -1.80459944034432      0.89729418768530
  H   -1.56126511322056      0.03520972476507      1.02014658711359
  C   1.47662695375799     -0.48550870683064     -0.57879070590843
  H   1.78637436493424      0.53059899184781     -0.82711857980453
  H   2.35414571451498     -1.04042342722176     -0.24378288300954
  H   1.05045912377777     -0.95897000526596     -1.46168835861913
  C   0.93700577871137      0.23273585461175      1.71486176986708
  N   1.30712864844717      0.84877102698280      2.64351313494916
  N   -1.41367790119684     -0.59398865419394     -1.02681881903045
  H   -1.57362338338072     -1.56354456671936     -0.78212430930185
  H   -2.29637931746432     -0.17986651980031     -1.30157670135459
  N   -0.88966982730073      1.53055242399395     -0.22720284761710
  H   -0.28456399298021      1.68003608470903     -1.02456539948458
  H   -0.59711641266208      2.11358975940127      0.54602899166599
