16
Coordinates from ORCA-job run
  C   0.52129008901582     -0.22137630520120      0.43760819211934
  C   -0.60535717931773      0.59388354727076     -0.22716573073913
  F   -0.10449247234875     -1.18892703847404      1.23968079997635
  H   -0.12503841581231      1.37019830715702     -0.83348965708482
  C   1.41836128260993     -0.94755038397001     -0.54257799562783
  H   0.82418400228754     -1.64708873385251     -1.13085721294962
  H   1.90972815370823     -0.23542750252805     -1.20904813145800
  H   2.18203043960230     -1.50712793788123     -0.00143453483074
  C   1.32402185434427      0.64065237498154      1.31928680860805
  N   2.03126820088017      1.30561545142631      1.97930211454780
  N   -1.34600649242602      1.23887723292936      0.83284200134102
  H   -1.71093318024904      0.53527036177663      1.46485364536181
  H   -2.13637817469417      1.72053419793938      0.42148272826542
  N   -1.45163068987127     -0.18792045646043     -1.11544266810037
  H   -1.75168817536898     -1.04015460817725     -0.65563955451226
  H   -0.98035924236000     -0.42945850693630     -1.97840080491702
