16
Coordinates from ORCA-job run
  C   0.60284496374781     -0.30145640427534      0.55092451868145
  C   -0.83314469143772      0.05261301271343      0.13142707220613
  F   0.54289458351056     -0.84094985254170      1.82816620930217
  H   -1.42605446686753     -0.84596013663400      0.35961899030061
  C   1.25883374869514     -1.32644410498586     -0.35443685075645
  H   1.44708561203283     -0.90906547492528     -1.34301888723267
  H   0.61277672727473     -2.20454997919785     -0.43539611224951
  H   2.20820904952060     -1.63621042706108      0.08422705903701
  C   1.40960394523989      0.93001397887510      0.61043794405348
  N   2.04601798434994      1.91559481876848      0.64232583796674
  N   -0.81898166807676      0.41374626031498     -1.28603051130521
  H   -0.76145775814742     -0.40926222632377     -1.87530164808072
  H   -1.68519510743064      0.88790512072084     -1.51073077947066
  N   -1.32050261511848      1.11551123578667      0.97074289415946
  H   -2.33075080540122      1.15283480213986      0.96909607847260
  H   -0.95217950189174      2.00667937662550      0.65694818491557
