16
Coordinates from ORCA-job run
  C   0.50556595095289     -0.61883605315599      0.22779441651419
  C   -0.80895669328315     -0.12181523604633     -0.41558209085850
  F   0.48196098950477     -2.00336080479432      0.26275166360013
  H   -0.85152982020370     -0.61903326787951     -1.39137749283298
  C   1.74561529387331     -0.20381774801194     -0.54315133653300
  H   1.91009777317881      0.87226550050710     -0.49759148943160
  H   2.61505279325854     -0.70717517104465     -0.11837054490003
  H   1.63792033780434     -0.51440316444236     -1.58521868548720
  C   0.56637326258596     -0.11606886248000      1.61416052499674
  N   0.57104128586180      0.35393209047638      2.69039747241081
  N   -0.85344850863238      1.31336324133378     -0.65145992913664
  H   -0.16967827295826      1.61447655332420     -1.33430123400470
  H   -0.71198142691084      1.83088570882353      0.20940114463629
  N   -1.91965946953152     -0.59801103557091      0.37335763731527
  H   -1.94183605985739     -0.12248692093658      1.27032774984363
  H   -2.77653743564319     -0.35991483010241     -0.11213780613240
