16
Coordinates from ORCA-job run
  C   0.64192204872167     -0.30232001363235      0.50754842443806
  C   -0.82688944536416     -0.05210432264224      0.12183891536081
  F   0.68338975845902     -0.72661057414418      1.82501979853067
  H   -1.33029586659256     -1.01517728302058      0.25663334955036
  C   1.31455014095828     -1.35802810555496     -0.34678826799739
  H   0.73494129273693     -2.28110591204565     -0.27747357623361
  H   1.35952387162020     -1.04630271259463     -1.38743798102035
  H   2.31942340146057     -1.54335969256547      0.03605452105592
  C   1.35987296730750      0.98610342059729      0.41869576719253
  N   1.87067713941967      2.03575601534508      0.29057552541816
  N   -0.86454818531480      0.27085966009876     -1.30007567700046
  H   -0.53636378932190      1.22079068288083     -1.44543014066269
  H   -1.81838753761431      0.22557358984487     -1.63735853812831
  N   -1.41459599361582      0.87854784972853      1.06576716395579
  H   -1.07211306597621      1.81936187469894      0.90339683435945
  H   -2.42210673688410      0.88801552300574      0.97003388118105
