16
Coordinates from ORCA-job run
  C   0.47224058746709     -0.47791867372036      0.49657290639220
  C   -0.92157552263504      0.10437389336926      0.16391087899744
  F   0.27059930946596     -1.81826882676724      0.84689402273411
  H   -1.52265822953763     -0.03162040446576      1.07670387922535
  C   1.46721620592513     -0.43035079758653     -0.64320082930982
  H   2.37089014689383     -0.96866966148708     -0.35385655122357
  H   1.02146994264860     -0.89459406918302     -1.52130765607013
  H   1.74064026525954      0.59929686267054     -0.87791978070088
  C   0.99266676687252      0.22043263360183      1.68485642835881
  N   1.37928303542420      0.82556872104860      2.61392349531207
  N   -1.43370011702337     -0.61025035052364     -0.98861561077746
  H   -2.33729941365488     -0.21577523058903     -1.22097055085167
  H   -1.55696136235810     -1.58948679898463     -0.76160489499071
  N   -0.93875696324606      1.50971301780573     -0.15874585309798
  H   -0.36765787541152      1.69424722343643     -0.97369755642606
  H   -0.63439677609020      2.08330246137489      0.61705767242832
