16
Coordinates from ORCA-job run
  C   0.51660281503677     -0.22651361778525      0.44093356947266
  C   -0.59392877102833      0.60257892543809     -0.23415966743081
  F   -0.12767801937382     -1.17390732405194      1.25205644971216
  H   -0.09813488373756      1.36416343190600     -0.84670446423957
  C   1.40154853765161     -0.97918841316465     -0.53034687527971
  H   0.79551649798773     -1.67431386412102     -1.11172073563112
  H   1.90643875432079     -0.28320537808243     -1.20372375225676
  H   2.15437272395219     -1.54649078801080      0.01793528909135
  C   1.33377084024968      0.63043705999464      1.31426180176017
  N   2.05158011673696      1.29058685959380      1.96777527828744
  N   -1.32496931197101      1.27068950079579      0.81806234745911
  H   -2.10626836982822      1.76199523070471      0.40082486621378
  H   -1.70266501186879      0.57992128410665      1.45668227020396
  N   -1.45279777400222     -0.17187297269436     -1.11689092658285
  H   -0.98293806288927     -0.43340341319659     -1.97483867524474
  H   -1.77145008123651     -1.01247652143263     -0.64814677553507
