16
Coordinates from ORCA-job run
  C   0.46608364060451     -0.48971140531955      0.50394934827235
  C   -0.90826906174159      0.15399385474086      0.19740596264508
  F   0.19993039242229     -1.80015018743934      0.90920918376227
  H   -1.50626577634008      0.00965036789786      1.11100883923862
  C   1.41698359011533     -0.52978483639058     -0.67070107186105
  H   0.97908241405977     -1.13279912557968     -1.46696505334790
  H   2.35936912127442     -0.98961884947460     -0.37054816858241
  H   1.59726759635986      0.48006921108256     -1.03747714859100
  C   1.07141656866096      0.21574846071945      1.64641123069334
  N   1.51753706349657      0.83242216466161      2.54104871707220
  N   -1.63194087319234     -0.47332676663158     -0.88097556438531
  H   -1.76554542804460     -1.45954733284132     -0.69767493917863
  H   -1.13006935883262     -0.35572876654299     -1.75302658561051
  N   -0.69726079909730      1.53957344189163     -0.17473624827421
  H   -0.37963494759257      2.08372037374949      0.61915471399236
  H   -1.58868414215265      1.91548939547619     -0.47608321584521
