16
Coordinates from ORCA-job run
  C   0.57611972524073     -0.19126402272815      0.42186770903982
  C   -0.69032153056744      0.42635931633226     -0.22070083226907
  F   0.17390857692976     -1.03787811895159      1.44984716718629
  H   -0.34725618556139      1.25897767650753     -0.85497657210687
  C   1.42798664415344     -0.99098812237738     -0.54055588019251
  H   2.32071437196986     -1.36185198261245     -0.03546253141358
  H   1.73433997472481     -0.37641908080759     -1.39059703491023
  H   0.83843758911220     -1.83978303179856     -0.88722180000782
  C   1.35078156416916      0.90473441524470      1.03449913889777
  N   1.96972817889960      1.79756614135050      1.47987978182187
  N   -1.60733559305565      0.97196618506648      0.75520800825125
  H   -1.23643760850696      1.81642609949941      1.17198778439685
  H   -1.75431484489980      0.28666072085708      1.48737166649408
  N   -1.39865055336466     -0.61390344231053     -0.94618196302101
  H   -2.35442139731075     -0.29790503568970     -1.05626414372456
  H   -1.00327891193290     -0.75169771758201     -1.86770049844227
