16
Coordinates from ORCA-job run
  C   0.49861573538917     -0.33049124757629      0.42042197047746
  C   -0.65969268088787      0.47663663127002     -0.22117252472742
  F   -0.04736810089626     -1.43530329893341      1.06232687275075
  H   -0.18945156447482      1.23792412973226     -0.86578531993541
  C   1.50520495990566     -0.83247484769864     -0.59644208113937
  H   0.99814313974909     -1.47120969581393     -1.32095984305436
  H   2.27238245889911     -1.42351083108684     -0.09494811013283
  H   1.98303892434640      0.00005741900789     -1.11627384428420
  C   1.17309920260690      0.50062042746452      1.43215317072766
  N   1.72420349409343      1.20821263312517      2.19026613373343
  N   -1.49177241362146      1.01284328060149      0.83640570095516
  H   -2.32535047587960      1.39657430594050      0.40952005652548
  H   -1.01926162239073      1.74580809592472      1.35096268271154
  N   -1.52480248059591     -0.32540443737605     -1.05440169126349
  H   -1.83136974487115     -1.13608849486433     -0.52943283150836
  H   -1.06561883137196     -0.62419406971706     -1.90364034183605
