16
Coordinates from ORCA-job run
  C   0.45590170020461     -0.55306656634914      0.28088927624591
  C   -0.79921976350579      0.03008184707648     -0.39667418301765
  F   0.23573188325488     -1.92708015463780      0.43274509117930
  H   -0.83095550452425     -0.43241001820337     -1.39768972307784
  C   1.72141059148500     -0.38039898123707     -0.53456777850813
  H   1.56791550256899     -0.79544441520752     -1.53305124420543
  H   2.54000701715003     -0.91634801037443     -0.05266814380060
  H   1.99673915557541      0.67163447376228     -0.61471225959264
  C   0.61361362866852      0.03709860845861      1.62059945035184
  N   0.78875521266996      0.55996080773206      2.65687146525377
  N   -0.78793720445720      1.46123547176430     -0.57467158806477
  H   -0.69568936117853      1.92697292451480      0.32102748876601
  H   -0.06199298330191      1.76877865214541     -1.20659421061354
  N   -1.93466481322181     -0.27959336160582      0.44385967593251
  H   -2.04552304516334     -1.28054615506806      0.53996903279684
  H   -2.76609201622459      0.10812487722927      0.01566765035444
