16
Coordinates from ORCA-job run
  C   0.51280604309827     -0.66359294806339      0.23224530109079
  C   -0.76903639751656     -0.04445470258141     -0.34769407108297
  F   0.38452733081701     -2.04312876117435      0.14670262108397
  H   -0.92523272878332     -0.56020131498787     -1.30715787821905
  C   1.76732451153650     -0.26803765858811     -0.52299049588750
  H   2.60832421735393     -0.85583013820182     -0.15299927995050
  H   1.98876338297739      0.78979648316778     -0.38448247169779
  H   1.63412195303988     -0.48672992951831     -1.58590095251614
  C   0.62753705608460     -0.30167980698351      1.65579762497750
  N   0.71532746173130      0.00424775954618      2.78559107483142
  N   -0.56381671084111      1.39860850780801     -0.47215808384114
  H   0.01112496861371      1.62077164625381     -1.27727346576922
  H   -1.46280310110638      1.84485657445626     -0.60880412981801
  N   -1.88000176927060     -0.37546468825195      0.50553960807789
  H   -1.89116102603547      0.23215926435225      1.31736437249431
  H   -2.75980519169913     -0.29232028723358      0.01422022622646
