16
Coordinates from ORCA-job run
  C   0.45550572093105     -0.47864506867611      0.52825934423915
  C   -0.90125748853718      0.21047072333314      0.25994526680015
  F   0.17168797840089     -1.81899549818273      0.81383826202180
  H   -1.44650522271404      0.16923616369034      1.20843715268294
  C   1.42215490370900     -0.44543905660228     -0.63769480841673
  H   0.94991517016236     -0.86488556550109     -1.52779228740738
  H   2.29469389422194     -1.05443698902832     -0.39816883234114
  H   1.75465571885020      0.57412107987604     -0.83455619245558
  C   1.07328328971636      0.10474633965374      1.72911736090487
  N   1.57137337850765      0.55069894408223      2.69400271872486
  N   -1.72861422196241     -0.46347002830797     -0.72589996620573
  H   -1.28203065899742     -0.46061327265914     -1.63587460542226
  H   -1.88400280710635     -1.42794646465441     -0.45546780235459
  N   -0.63727384927331      1.59695441380057     -0.04578452722390
  H   -1.49949665458329      2.12253159332183      0.02769920762094
  H   -0.31508915132542      1.68867268585413     -1.00306029116740
