16
Coordinates from ORCA-job run
  C   0.48704764222170     -0.48051618305258      0.49877139553457
  C   -0.89654823452688      0.17752648750881      0.29649578604114
  F   0.24963822342321     -1.83586342339439      0.75435548585506
  H   -1.40678617880979      0.09499806877163      1.26165686016296
  C   1.41130972724434     -0.38758540282363     -0.69780886393512
  H   0.91982943981913     -0.79785375217181     -1.58204057827861
  H   2.30924116641009     -0.97624654943428     -0.50535308746062
  H   1.70693773780345      0.64643234614933     -0.87864807389033
  C   1.12884196184514      0.08567167194791      1.69514559784385
  N   1.64411355632335      0.51781674247872      2.65738718658824
  N   -1.73926332833758     -0.49179199914391     -0.67931953403761
  H   -1.85765454401708     -1.46779569391605     -0.43255385387089
  H   -1.32616802123138     -0.44913935203173     -1.60400239763132
  N   -0.68118764903629      1.57882881669788      0.02181451302614
  H   -0.39374045805296      1.70598232874715     -0.94244239169148
  H   -1.55461104107846      2.07753589366694      0.13854195574400
