16
Coordinates from ORCA-job run
  C   0.48447984622614     -0.48777780968503      0.55188419536857
  C   -0.93966256455602      0.01022747261980      0.19936445737109
  F   0.37020170107599     -1.76154547227595      1.09282687136418
  H   -1.54831251446585     -0.24193694638500      1.07343672404451
  C   1.42588877318573     -0.56691635731501     -0.63336448725238
  H   1.53972007194709      0.40388339331757     -1.12077471735820
  H   1.02604728795739     -1.29605064312418     -1.33760858761171
  H   2.40962842595886     -0.90078655553454     -0.30165629749077
  C   1.03865453535877      0.38483380225276      1.60579246715442
  N   1.45966151051874      1.10060787548675      2.43604590872387
  N   -1.42707109980603     -0.76626393524276     -0.92011071422633
  H   -2.43632712679244     -0.68640748957934     -0.94659119202813
  H   -1.08479063842260     -0.36709259675374     -1.78779663982827
  N   -1.05175027782314      1.44615481039036     -0.00925421423324
  H   -0.42209083402658      1.76299618600983     -0.73789572551187
  H   -0.84527709633604      1.96607426581848      0.83570195151428
