16
Coordinates from ORCA-job run
  C   0.50913393009544     -0.48782556485334      0.52923701627683
  C   -0.93360129910583     -0.01090628374926      0.22695128866264
  F   0.43456121895226     -1.77216764225173      1.05169501222804
  H   -1.51138829368667     -0.28835513183232      1.11421945582480
  C   1.41673171207871     -0.52939744530693     -0.68416349421682
  H   1.49705066830315      0.45141242232020     -1.15810923950344
  H   1.01043532730998     -1.25477532459172     -1.38857268141975
  H   2.41607929270123     -0.84893828088556     -0.38680758261928
  C   1.07832490876920      0.37776486306204      1.58085761240418
  N   1.51231742406278      1.08865938361446      2.40856758367484
  N   -1.43990715585057     -0.77866601213966     -0.89023628645617
  H   -1.12671047407769     -0.36247577989489     -1.76109594974452
  H   -2.45061100856614     -0.71232136901012     -0.88831396520148
  N   -1.07840133041224      1.42569368833447      0.04583769561042
  H   -0.85797927303045      1.93523794680900      0.89343068278370
  H   -0.47603564754316      1.76706053037536     -0.69449714830399
