16
Coordinates from ORCA-job run
  C   0.51304735019678     -0.65403904149613      0.26557731824868
  C   -0.71385951212362     -0.04383982499580     -0.43528414760812
  F   0.31638017456595     -2.01958050095591      0.38360933103950
  H   -0.76467067935885     -0.53653910440643     -1.41187682220170
  C   1.80795593675518     -0.43001376832342     -0.48942396731928
  H   1.69649315371512     -0.83662221042076     -1.49693741435850
  H   2.03965679102654      0.62994828761860     -0.55984221843410
  H   2.61553963946716     -0.96062450961739      0.01748643281577
  C   0.58862799382925     -0.08283069529374      1.62624947974927
  N   0.60548241502329      0.44009691118724      2.67763925680520
  N   -0.43664317920636      1.36936600398433     -0.66753723412439
  H   -1.11911492219800      1.75117297826508     -1.31110944408355
  H   -0.52165057197707      1.88353032395243      0.20407537785457
  N   -1.91061229027256     -0.41015915386199      0.29664536143152
  H   -1.98017868110755      0.11800480441237      1.15982328214845
  H   -2.73545361833526     -0.21987050004847     -0.25809459196330
