16
Coordinates from ORCA-job run
  C   0.56479428744212     -0.21878462833148      0.49033137386684
  C   -0.88560205113224      0.03758850650398      0.03845826987063
  F   0.49301646149898     -0.58594661685386      1.83854496548074
  H   -1.42724857286582     -0.89236515202630      0.27646255722274
  C   1.25355797190947     -1.33637759717421     -0.26402539145063
  H   2.20698986714275     -1.56814100689682      0.21286413689233
  H   1.44156847170838     -1.04249184456988     -1.29718063736275
  H   0.62517151413545     -2.23036982026179     -0.24042373592911
  C   1.33424716122849      1.03281579911154      0.41388750790148
  N   1.93438714440530      2.04052995691740      0.36411942895412
  N   -0.87204911088891      0.38986766841364     -1.36803326062658
  H   -0.74873041472569     -0.42967715131699     -1.94915229361608
  H   -1.77370879227292      0.79644098736707     -1.58947852780035
  N   -1.54485594442617      1.11031351470293      0.74498902698790
  H   -1.56084797630379      0.91905176325416      1.73879645345523
  H   -1.04169001685540      1.97854562116063      0.58984012615350
