16
Coordinates from ORCA-job run
  C   0.49743027123331     -0.33622492088998      0.41907942199245
  C   -0.65404642529616      0.48409181112255     -0.21830035330120
  F   -0.05840205931390     -1.43226665129951      1.06738769895790
  H   -0.17661143932859      1.24022677501149     -0.86370836583557
  C   1.49196336728243     -0.85326378177401     -0.60203131826461
  H   2.25538117659890     -1.45118913572658     -0.10297657807570
  H   0.97341076756075     -1.48870085448495     -1.32126465824456
  H   1.97628311780636     -0.02803770447521     -1.12754774537629
  C   1.18699309700410      0.49024050074304      1.42491910307359
  N   1.73795170563218      1.20031730026997      2.18080442727001
  N   -1.47695385360272      1.02899636336129      0.84175542244310
  H   -0.99441630817735      1.75463676782412      1.35706480901083
  H   -2.30648352400152      1.42392364717866      0.41730265845804
  N   -1.53051845741807     -0.30763418053771     -1.04920439674474
  H   -1.84636600317498     -1.11416533102902     -0.52348969029510
  H   -1.07761543280474     -0.61195060529416     -1.89979043506813
