16
Coordinates from ORCA-job run
  C   0.42992460307621     -0.46699164440726      0.50298190900241
  C   -0.98902770410701      0.11796218502959      0.24494861352143
  F   0.24797223964351     -1.80243258460641      0.87969613373240
  H   -1.52429799136527     -0.00657671391738      1.19344134917999
  C   1.35642899363701     -0.45123431615917     -0.69502286005804
  H   0.87443297209992     -0.95399370305434     -1.53398285244913
  H   1.62264082356273      0.56715847330019     -0.98168795057288
  H   2.27424245855211     -0.98667300034299     -0.44900351275736
  C   1.03061750823910      0.24327473254629      1.64324040453784
  N   1.47249055780579      0.86023685934123      2.53969156692520
  N   -1.70940711490144     -0.61190044252622     -0.77558904472702
  H   -1.48717536349588     -0.26829961468072     -1.70040526916802
  H   -1.51679800320235     -1.60381183199312     -0.72043808971769
  N   -0.98339742811458      1.52503483241018     -0.07674010712897
  H   -0.31770095489331      1.74765901697163     -0.80561180870348
  H   -0.78194559653654      2.09158775208849      0.73548151838332
