16
Coordinates from ORCA-job run
  C   0.47007144108002     -0.46800844025389      0.52538896576519
  C   -0.89805287019444      0.20483617656015      0.27354420671363
  F   0.20464954021493     -1.80797301077325      0.83042670259866
  H   -1.42549831237243      0.17068657105226      1.23232952060276
  C   1.41540771268662     -0.43840635512051     -0.65779182686754
  H   0.93061074201169     -0.87179721100798     -1.53453233262613
  H   1.73462147553860      0.58197115790043     -0.87215840096786
  H   2.29791448592239     -1.03675879059115     -0.42806568502533
  C   1.10226393523845      0.13404830323305      1.70936016198183
  N   1.61051716474164      0.59493747330217      2.66184452347369
  N   -1.73670732694311     -0.48927233660806     -0.68840533467110
  H   -1.87658398870186     -1.45206552094235     -0.40394230357741
  H   -1.30788807761692     -0.49215951766299     -1.60687854193696
  N   -0.65284732749551      1.58974727318492     -0.05433601182260
  H   -1.51794299514412      2.10887835691329      0.03006943292364
  H   -0.35053559896596      1.67233587081390     -1.01885307656448
