16
Coordinates from ORCA-job run
  C   0.52256485551288     -0.22730412690699      0.47367288928955
  C   -0.95827546953837      0.03197206456853      0.08625004476897
  F   0.54474364839808     -0.51104744083699      1.84321633654606
  H   -1.46720078617811     -0.92444023765394      0.26118549560946
  C   1.15370214571766     -1.39881729321502     -0.24882264190270
  H   0.52780298825769     -2.28299934488781     -0.10722012233728
  H   1.25779204901225     -1.19489213015980     -1.31463540305113
  H   2.14219442305700     -1.59963290115899      0.16653053773951
  C   1.28452925340354      1.01420496025250      0.25859316771382
  N   1.83947913519659      2.02147254568006      0.02014985688994
  N   -1.12952590482699      0.38768097986124     -1.30212209121565
  H   -1.01902286925874     -0.40664626051906     -1.91503836237911
  H   -0.49295433758178      1.12329245365922     -1.58661396238745
  N   -1.58010383543766      1.03931365657447      0.91736570179972
  H   -1.36531216973154      1.96640796392346      0.57165444316665
  H   -1.26141312600249      0.96143511081911      1.87483410974962
