16
Coordinates from ORCA-job run
  C   0.44552815844943     -0.47489605526678      0.53138185449419
  C   -0.91226198536509      0.17693549554777      0.17605052327565
  F   0.15146516735930     -1.76435674059735      0.98329709296533
  H   -1.52885494107559      0.07782469309495      1.08326741268137
  C   1.41537211156969     -0.57621842679756     -0.62403187913504
  H   2.34708963883225     -1.03369834012614     -0.28888583280129
  H   0.98317618921053     -1.20746516809352     -1.40137577740072
  H   1.61461704847472      0.41507996726354     -1.02961845198020
  C   1.04840661049185      0.26294079298223      1.65454354774526
  N   1.53614506042064      0.88911874542311      2.52030950517490
  N   -1.62815776951799     -0.48024323864207     -0.88968961564138
  H   -1.10912386951782     -0.40765704673596     -1.75648675663932
  H   -1.78414679394690     -1.45541377384724     -0.66911240622079
  N   -0.67224130323394      1.54363046482943     -0.24567166742160
  H   -0.35645673938483      2.11263477007451      0.53145492031303
  H   -1.55255658276626      1.92278386089108     -0.57443246940938
