16
Coordinates from ORCA-job run
  C   0.44905966036639     -0.46440057830442      0.52642153677843
  C   -0.92401681393891      0.13421041222118      0.14332858653512
  F   0.20922672234102     -1.78257811568667      0.93376089373259
  H   -1.54414209913317      0.05360961660169      1.04993113927740
  C   1.46391148976063     -0.49285312245267     -0.59629731228221
  H   2.35082677027618     -1.03525679398798     -0.26563342465123
  H   1.76343346448880      0.51829684285322     -0.87544971750044
  H   1.02280614726563     -0.98953120332114     -1.45891263112720
  C   0.97046260187288      0.27324648227412      1.69021130689994
  N   1.39362215790504      0.89714144442608      2.59049207697256
  N   -1.43437017915169     -0.61906243195860     -0.98527430209955
  H   -2.32406949370112     -0.21389016997856     -1.25065909807937
  H   -1.58588966382467     -1.58373298484814     -0.71669371623127
  N   -0.90145963819129      1.52381035769781     -0.24201183108456
  H   -0.31301209438167      1.65750823255351     -1.05453523793438
  H   -0.59538903195405      2.12448201191057      0.51232173079418
