16
Coordinates from ORCA-job run
  C   0.48957259228292     -0.47481370529081      0.55839343357513
  C   -0.93732655842800      0.01925899493029      0.21281802006797
  F   0.37889013176805     -1.73138112146491      1.13836219282843
  H   -1.53420887006300     -0.20475156753128      1.10253027963984
  C   1.41395351604418     -0.59217724386616     -0.63734254160823
  H   1.00011088931622     -1.33544419508143     -1.31875110996952
  H   1.53014322139784      0.36566657516397     -1.14980810174730
  H   2.39883080865517     -0.92625555470466     -0.30881521244589
  C   1.06356612616210      0.42642607066810      1.57702606250877
  N   1.50226740424129      1.16680534355219      2.37600684134093
  N   -1.44529155576569     -0.78677478319596     -0.87649192686934
  H   -1.10768474002577     -0.41817229067168     -1.75961899175968
  H   -2.45389656962452     -0.69375498980155     -0.89479133634350
  N   -1.04645004314768      1.44926025037644     -0.03515952130654
  H   -0.83197976061417      1.99130553294551      0.79362541294015
  H   -0.42149659219894      1.74380268397194     -0.77698350085122
