16
Coordinates from ORCA-job run
  C   0.41044742331045     -0.45068027581953      0.53118048547433
  C   -0.99291223537074      0.14646855551305      0.22401259786550
  F   0.19837683692794     -1.76359927090285      0.96628993545478
  H   -1.54454177717284      0.07500441989534      1.16868625782565
  C   1.35522599625955     -0.50685224078688     -0.65129248583977
  H   0.87654420445634     -1.03985715198575     -1.47328013542857
  H   1.64361403312671      0.49238735503699     -0.98071298032039
  H   2.25967249255536     -1.04549641564060     -0.36598555172644
  C   1.01102026113367      0.29960444830969      1.64606241624070
  N   1.49292621250737      0.93570096174164      2.50778227066013
  N   -1.71093346342616     -0.61582247226840     -0.77411220494062
  H   -1.53347030619291     -1.60722219461249     -0.67699632094437
  H   -1.47563190787435     -0.31184929400727     -1.70934311712926
  N   -0.95589481383995      1.53728579596738     -0.16100367583451
  H   -0.26783721744445      1.71648821805036     -0.88097520361925
  H   -0.76660573895599      2.13743956150935      0.62968771226209
