16
Coordinates from ORCA-job run
  C   0.78210756715566     -0.45464227049137     -0.32238793340822
  C   -0.47536036440786      0.38229274987258     -0.13118950711998
  F   0.56654649997275     -1.68796779482097      0.32006929285254
  H   -0.28119133272297      1.35294093895430     -0.60494378174509
  H   0.90741248521005     -0.68637882180431     -1.38601468916036
  C   2.03682098391896      0.16230486882075      0.24629615482524
  H   1.89275563670287      0.38676710014401      1.30178680291610
  H   2.26928232124258      1.09193783133301     -0.27927714739115
  H   2.87768876822750     -0.52351496856266      0.12736480192158
  N   -0.65640440803990      0.62409447576669      1.29938116357245
  H   -1.47336783526543      1.20428699473402      1.44771853097964
  H   -0.82977504753038     -0.26496129488293      1.75531820236952
  C   -1.67526854050725     -0.27229459640996     -0.81636876735361
  H   -1.51103141560136     -0.38893456996870     -1.89211634070324
  H   -1.85742993716075     -1.26056243315543     -0.38875157772257
  H   -2.57378538119448      0.33463179047096     -0.67688520483284
