16
Coordinates from ORCA-job run
  C   0.74297606573210     -0.40984474852829     -0.31900368411378
  C   -0.57863963236082      0.34597823427577     -0.17391741971778
  F   0.59629107132134     -1.65259714757849      0.31945496352518
  H   -0.44594215963088      1.31754049119109     -0.66686364469529
  H   0.92566873185550     -0.62909178842008     -1.37754399718326
  C   1.94159301018973      0.28204117663212      0.28765188835706
  H   1.79810738045369      0.42217418615286      1.36009899027464
  H   2.83891624702837     -0.32192042691660      0.14389248019707
  H   2.10057816844115      1.25690432787701     -0.18034634632043
  N   -0.97078480088443      0.60851886979014      1.20820043140839
  H   -0.32223155745215      1.24453857767887      1.65494501736865
  H   -0.95254154693537     -0.26334361081008      1.72562674654346
  C   -1.70565089055331     -0.40695616404722     -0.86948994406141
  H   -1.48231947023041     -0.57034850236890     -1.92709840717523
  H   -2.63310813309522      0.15977545546832     -0.78440740489045
  H   -1.85191248387931     -1.38236893039651     -0.40019966951682
