16
Coordinates from ORCA-job run
  C   0.81897391495278      0.26949880024046      0.38962293552817
  C   -0.56582985062735      0.43988730457178     -0.22315636964397
  F   1.41040679192669      1.54380807358320      0.43493583200677
  H   -0.41351878956262      0.83248383973274     -1.23666701235752
  H   0.71451921873670     -0.05165048002298      1.43422021074586
  C   1.75348494642025     -0.64523183852094     -0.36844906344522
  H   1.43107910301099     -1.68524142297783     -0.29812057534158
  H   1.79339710980301     -0.35737909389305     -1.42181024508496
  H   2.75979298081534     -0.56972613511821      0.04706943589588
  N   -1.39039455046453      1.41466852707785      0.48704054241880
  H   -1.60484809641877      1.06098915250124      1.41419024423702
  H   -0.85775737003554      2.26810123048200      0.60945412779604
  C   -1.31285033728942     -0.88266647304510     -0.30530766304732
  H   -1.37886132184780     -1.35312727632023      0.68208214896326
  H   -0.83174333484526     -1.58689200073830     -0.98544869980063
  H   -2.32785041457447     -0.69652220755262     -0.65865584887059
