16
Coordinates from ORCA-job run
  C   0.91178221308300      0.44912822014807     -0.51827028604328
  C   -0.58095252847656      0.56675190335210     -0.22728824731521
  F   1.06197004251105      0.07710637073146     -1.86172889339455
  H   -0.95322643743784      1.34045617437710     -0.90835728129378
  H   1.35397147663113      1.44376781129683     -0.41328445689088
  C   1.66120492588590     -0.54773917277811      0.33583561215872
  H   1.60285411954367     -0.26766089836677      1.38921852508987
  H   2.71324169405977     -0.55808012676229      0.04558532785122
  H   1.26606652018468     -1.55638226272940      0.20395228480327
  N   -0.72654589209979      1.08483667544834      1.13564102816008
  H   -0.70276085295055      0.31508548487609      1.79530287048782
  H   -1.62975866040211      1.53024705617713      1.23912024258536
  C   -1.34492760242626     -0.72486638915147     -0.50476312949372
  H   -2.41962662335422     -0.55287433255232     -0.40336086866716
  H   -1.14790564681561     -1.09141712408327     -1.51396888030533
  H   -1.06538674793626     -1.50735938998351      0.20636615226757
