17

C	0.0	0.0	0.0
C	-0.541721	-0.072168	-1.414889
Cl	1.910845	0.0	0.0
H	-1.651444	-0.048563	-1.213002
N	-0.485817	1.160398	0.640344
H	-0.252382	1.107254	1.625842
H	-1.52632	1.033882	0.558444
N	-0.370657	-1.219445	0.620924
H	-0.053444	-1.251609	1.578201
H	-0.035721	-2.009313	0.087193
N	-0.122914	-1.257995	-2.089522
H	-0.774817	-1.469234	-2.832106
H	0.795683	-1.107239	-2.487563
N	-0.195947	1.178486	-2.191841
O	-0.868	2.185394	-1.994707
O	0.725976	1.100219	-3.013417
H	-3.054501	0.0	0.0
