17

C	0.0	0.0	0.0
C	-0.49515	0.087449	-1.465363
Cl	1.798323	0.0	0.0
H	-1.591834	0.110976	-1.360522
N	-0.455632	1.177535	0.688062
H	-0.231544	1.077071	1.674028
H	-1.486555	1.115908	0.599656
N	-0.492395	-1.278686	0.463469
H	-0.228957	-1.382573	1.440684
H	-1.524753	-1.126105	0.441502
N	-0.074157	-0.967603	-2.344842
H	-0.414934	-1.824833	-1.926372
H	0.938457	-1.008196	-2.329644
N	-0.101331	1.388371	-2.086921
O	0.989445	1.435634	-2.657543
O	-0.892985	2.323128	-2.011234
H	-2.994825	0.0	0.0
