17

C	0.0	0.0	0.0
C	-0.541057	-0.173182	-1.422299
Cl	1.795477	0.0	0.0
H	-0.28161	0.712612	-2.003153
N	-0.423393	1.302969	0.481308
H	-1.437475	1.2119	0.553827
H	-0.071665	1.412227	1.42818
N	-0.479012	-1.086996	0.806451
H	0.082944	-1.17399	1.644424
H	-0.387369	-1.932406	0.228005
N	-1.991377	-0.304209	-1.270078
H	-2.440702	-0.014511	-2.136445
H	-2.089169	-1.326762	-1.203666
N	0.003199	-1.336639	-2.121334
O	-0.417336	-2.493427	-1.562948
O	0.104992	-1.21585	-3.41684
H	-3.059028	0.0	0.0
