17

C	0.0	0.0	0.0
C	-0.549843	-0.001309	-1.420968
Cl	1.838521	0.0	0.0
H	-1.655018	0.002276	-1.227488
N	-0.513022	1.128864	0.688006
H	-0.285172	1.03922	1.673392
H	-1.549755	0.99456	0.593889
N	-0.40366	-1.254699	0.557656
H	-0.042574	-2.016899	0.000445
H	-0.093423	-1.327943	1.517704
N	-0.116093	-1.144321	-2.158699
H	-0.767497	-1.322899	-2.914104
H	0.801086	-0.956793	-2.55113
N	-0.206296	1.293693	-2.125486
O	0.765274	1.284262	-2.890471
O	-0.925344	2.265845	-1.930843
H	-3.100744	0.0	0.0
