17

C	0.0	0.0	0.0
C	-0.4605	0.145065	-1.484351
Cl	1.803292	0.0	0.0
H	-1.548613	0.297095	-1.382015
N	-0.447992	1.041113	0.880546
H	-0.19426	1.948226	0.503352
H	-1.477717	0.961368	0.828281
N	-0.518956	-1.271828	0.413677
H	-1.550664	-1.118779	0.335071
H	-0.326155	-1.33702	1.409988
N	-0.179794	-0.953797	-2.360855
H	-0.689835	-1.742456	-1.980195
H	0.80667	-1.18025	-2.293068
N	0.114619	1.389312	-2.079209
O	1.015061	1.28067	-2.909197
O	-0.33244	2.467677	-1.67763
H	-2.974461	0.0	0.0
