17

C	0.0	0.0	0.0
C	-0.444802	0.054207	-1.459158
Cl	1.867768	0.0	0.0
H	-1.569864	0.156718	-1.31206
N	-0.463261	1.080752	0.739821
H	-0.246293	1.986651	0.362257
H	-0.269297	0.970782	1.72962
N	-0.437536	-1.180308	0.642139
H	-0.195589	-1.965285	0.050664
H	-1.47089	-1.054484	0.604098
N	-0.111768	-1.155507	-2.136991
H	-0.589605	-1.199037	-3.026835
H	0.884246	-1.171416	-2.314564
N	0.085292	1.266106	-2.215726
O	0.105191	2.367004	-1.664079
O	0.42568	1.090003	-3.38998
H	-2.889056	0.0	0.0
