16

C	-0.601801	-0.038674	-1.405787
C	0.0	0.0	0.0
F	0.152517	-0.903929	-2.169052
H	1.095919	0.0	0.0
N	-1.952715	-0.38615	-1.423559
H	-2.285197	-0.61169	-0.497159
H	-2.516499	0.283185	-1.923779
N	-0.38314	1.320195	-2.099131
O	0.760181	1.750031	-2.085755
O	-1.353111	1.852779	-2.641239
N	-0.491386	-1.209593	0.702587
H	-0.10369	-1.170683	1.64041
H	-0.018404	-1.990247	0.252815
C	-0.518734	1.179164	0.695547
N	-0.961856	2.10719	1.262624
Cl	3.300995	0.0	0.0
