16

C	-0.36986	0.157279	-1.47872
C	0.0	0.0	0.0
F	-1.642467	0.632143	-1.658018
H	1.093632	0.0	0.0
N	0.556591	0.990983	-2.108038
H	0.474645	0.981593	-3.114858
H	1.507992	0.779421	-1.810076
N	-0.42588	-1.275106	-2.081349
O	-1.51979	-1.800626	-2.245021
O	0.664755	-1.770095	-2.337793
N	-0.468272	-1.248433	0.571752
H	-1.37235	-1.143649	1.011016
H	0.205747	-1.559821	1.257562
C	-0.459967	1.192499	0.722535
N	-0.873526	2.088044	1.360907
Cl	3.265699	0.0	0.0
