16

C	-0.310452	0.0807	-1.507979
C	0.0	0.0	0.0
F	-1.607447	0.457485	-1.76078
H	1.094149	0.0	0.0
N	0.588227	0.937706	-2.128485
H	0.560382	0.879011	-3.136487
H	1.536325	0.798876	-1.779666
N	-0.281412	-1.375954	-2.086362
O	-1.279361	-2.074278	-1.91822
O	0.74604	-1.724375	-2.658096
N	-0.478381	-1.14607	0.739923
H	-1.377786	-1.458844	0.400936
H	0.194197	-1.896735	0.657125
C	-0.488228	1.243224	0.607135
N	-0.898152	2.21658	1.119686
Cl	3.265645	0.0	0.0
