16

C	-0.589163	-0.093458	-1.409032
C	0.0	0.0	0.0
F	0.133518	-1.042042	-2.101628
H	1.096317	0.0	0.0
N	-1.956325	-0.375442	-1.432081
H	-2.302252	-0.568134	-0.50312
H	-2.478909	0.329621	-1.931187
N	-0.297094	1.211017	-2.175064
O	0.879766	1.52835	-2.254065
O	-1.249834	1.819177	-2.666172
N	-0.509354	-1.173403	0.744204
H	-0.03357	-1.975475	0.33705
H	-0.143411	-1.097331	1.687815
C	-0.515669	1.214488	0.636019
N	-0.953943	2.17259	1.155297
Cl	3.313013	0.0	0.0
