16

C	-0.442431	0.004841	-1.455331
C	0.0	0.0	0.0
F	-0.095495	1.175911	-2.060527
H	1.094857	0.0	0.0
N	0.050267	-1.09087	-2.147301
H	0.084112	-1.90297	-1.546751
H	-0.408546	-1.244383	-3.034042
N	-2.009686	0.050487	-1.568828
O	-2.692422	-0.017702	-0.548519
O	-2.450666	0.09459	-2.715617
N	-0.383131	-1.258192	0.631377
H	0.300742	-1.476357	1.347907
H	-1.304751	-1.18876	1.045323
C	-0.458172	1.209482	0.69426
N	-0.793421	2.162621	1.293305
Cl	3.273686	0.0	0.0
