16

C	-0.353041	0.040891	-1.492951
C	0.0	0.0	0.0
F	-0.247964	-1.291567	-2.003696
H	1.103028	0.0	0.0
C	-1.766859	0.408321	-1.726519
N	-2.894494	0.676611	-1.910887
N	0.518301	0.923087	-2.1507
H	1.477203	0.768363	-1.845226
H	0.435793	0.851403	-3.155515
N	-0.600811	-1.1792	0.619524
H	-0.136459	-1.297876	1.515518
H	-0.354947	-1.990077	0.062563
N	-0.459575	1.217524	0.630491
H	0.248161	1.566381	1.262162
H	-1.312178	1.018571	1.139378
Cl	3.43943	0.0	0.0
