16

C	-0.34822	0.030587	-1.490806
C	0.0	0.0	0.0
F	-0.003197	-1.202509	-2.051584
H	1.103616	0.0	0.0
C	-1.802216	0.176654	-1.730286
N	-2.954824	0.265272	-1.93328
N	0.368246	1.101912	-2.091358
H	0.265327	1.082714	-3.098924
H	1.35333	0.997231	-1.846318
N	-0.520911	-1.184443	0.636015
H	0.188271	-1.592519	1.229435
H	-1.327604	-0.924251	1.19069
N	-0.545224	1.215969	0.615705
H	-0.045618	1.345654	1.490469
H	-0.295964	2.004591	0.026742
Cl	3.431713	0.0	0.0
