16

C	-0.568545	-0.018838	-1.416324
C	0.0	0.0	0.0
F	-0.006496	1.073584	-2.115525
H	1.097843	0.0	0.0
C	-0.191093	-1.228614	-2.16879
N	0.078837	-2.147875	-2.845751
N	-1.982816	0.083321	-1.362645
H	-2.373206	0.194301	-2.289347
H	-2.200999	0.878689	-0.772246
N	-0.455831	-1.181701	0.680378
H	-1.421349	-1.083395	0.966713
H	0.139878	-1.38245	1.471664
N	-0.502099	1.257473	0.612381
H	0.045986	2.012403	0.206811
H	-0.226125	1.217583	1.588498
Cl	3.445791	0.0	0.0
