16

C	-0.33706	0.033114	-1.493556
C	0.0	0.0	0.0
F	-0.014096	-1.211235	-2.044812
H	1.103614	0.0	0.0
C	-1.784319	0.212547	-1.750789
N	-2.929813	0.338605	-1.973438
N	0.409326	1.085758	-2.090754
H	1.388822	0.966825	-1.82928
H	0.322057	1.061186	-3.099297
N	-0.533545	-1.179724	0.636117
H	-1.296259	-0.900717	1.239898
H	0.188845	-1.631321	1.178711
N	-0.538192	1.218701	0.61501
H	-0.308435	2.001894	0.010941
H	-0.015942	1.363092	1.474066
Cl	3.431995	0.0	0.0
