16

C	-0.527022	-0.0223	-1.441319
C	0.0	0.0	0.0
F	0.034984	1.068992	-2.128629
H	1.098495	0.0	0.0
C	-0.113323	-1.237234	-2.171667
N	0.194205	-2.19006	-2.783893
N	-1.945685	0.05209	-1.419472
H	-2.175886	0.832869	-0.810402
H	-2.315907	0.190232	-2.35088
N	-0.460495	-1.142123	0.760745
H	0.226678	-1.881575	0.698999
H	-1.352375	-1.47142	0.412539
N	-0.543069	1.230128	0.601226
H	0.10442	1.982417	0.390034
H	-0.503439	1.071234	1.60109
Cl	3.446426	0.0	0.0
