16

C	-0.389652	-0.121558	-1.469712
C	0.0	0.0	0.0
F	-0.308419	1.15159	-2.035834
H	1.092517	0.0	0.0
H	-1.427973	-0.451309	-1.6011
N	0.507093	-0.986979	-2.171125
H	1.447182	-0.875432	-1.781199
H	0.219429	-1.951719	-2.084623
C	-0.468785	-1.194407	0.809328
H	0.037142	-2.089079	0.440368
H	-0.174475	-1.068363	1.854255
H	-1.552809	-1.32835	0.752858
N	-0.601023	1.223498	0.584622
O	0.12605	2.059015	1.113548
O	-1.833527	1.312911	0.51772
H	2.886594	0.0	0.0
