16

C	-0.524008	-0.077091	-1.418701
C	0.0	0.0	0.0
F	-1.962951	0.026511	-1.359479
H	1.091711	0.0	0.0
H	-0.357993	-1.094365	-1.784353
N	0.023689	0.839781	-2.334707
H	-0.478868	0.802546	-3.211264
H	0.016528	1.771825	-1.94331
C	-0.43893	-1.194289	0.822314
H	-0.088105	-2.098585	0.317985
H	-1.523865	-1.238408	0.939502
H	0.030663	-1.15652	1.80408
N	-0.391681	1.24936	0.652024
O	-0.276857	2.310277	0.012731
O	-0.710125	1.225102	1.848818
H	2.630118	0.0	0.0
