16

C	-0.411841	0.018195	-1.464694
C	0.0	0.0	0.0
F	-1.820512	0.089648	-1.524039
H	1.091595	0.0	0.0
H	-0.147977	-0.964392	-1.867985
N	0.147029	1.018283	-2.314715
H	0.385071	1.827106	-1.756337
H	1.003809	0.657576	-2.714736
C	-0.490294	-1.233281	0.726077
H	-1.580474	-1.281511	0.764467
H	-0.105393	-2.111387	0.199523
H	-0.095125	-1.254039	1.741319
N	-0.415575	1.22174	0.702515
O	-0.182285	2.311797	0.161787
O	-0.904845	1.131098	1.833699
H	2.697969	0.0	0.0
