16

C	-0.429694	-0.121768	-1.459843
C	0.0	0.0	0.0
F	-0.216181	-1.448171	-1.828449
H	1.090367	0.0	0.0
H	0.221328	0.495486	-2.079085
N	-1.802377	0.196508	-1.775333
H	-1.888159	1.203661	-1.730608
H	-2.405314	-0.193602	-1.057559
C	-0.470473	-1.101944	0.917789
H	-1.556355	-1.101052	1.066133
H	-0.164061	-2.057941	0.494026
H	0.006414	-0.983829	1.890322
N	-0.349494	1.310565	0.49358
O	-0.318753	2.260766	-0.318054
O	-0.519237	1.472151	1.714849
H	2.551748	0.0	0.0
