14

C	-0.562556	0.361215	-1.362867
C	0.0	0.0	0.0
F	0.101694	1.42101	-1.884433
H	1.097206	0.0	0.0
H	-1.628912	0.595135	-1.325989
N	-0.450484	-0.783563	-2.344131
O	0.544175	-0.851778	-3.05284
O	-1.406002	-1.56341	-2.350409
C	-0.484129	-1.287809	0.470219
N	-0.857001	-2.304057	0.933016
N	-0.34114	1.098407	0.911656
H	0.526683	1.345398	1.383284
H	-1.018329	0.804679	1.603852
H	2.631786	0.0	0.0
