14

C	-0.411817	-0.214618	-1.429732
C	0.0	0.0	0.0
F	-0.31188	-1.523173	-1.8018
H	1.098611	0.0	0.0
H	0.181734	0.414488	-2.093331
N	-1.851166	0.187964	-1.652654
O	-2.060428	1.190479	-2.333474
O	-2.712337	-0.507609	-1.115847
C	-0.496401	-1.026769	0.904255
N	-0.858847	-1.809984	1.703761
N	-0.337607	1.365312	0.388295
H	0.462652	1.739642	0.89069
H	-1.151563	1.396062	0.987452
H	2.625323	0.0	0.0
