15

C	-0.434547	-0.023661	-1.469351
C	0.0	0.0	0.0
F	0.009621	1.111093	-2.110329
H	1.1044	0.0	0.0
C	0.107968	-1.208308	-2.16305
N	0.473085	-2.166755	-2.735611
C	-1.909596	-0.064058	-1.592443
N	-3.081174	-0.110351	-1.668962
C	-0.470769	-1.24208	0.758131
H	-0.036885	-2.135569	0.304894
H	-0.100997	-1.182018	1.782514
H	-1.560546	-1.329901	0.778712
C	-0.507753	1.222603	0.612057
N	-0.94607	2.184588	1.125257
Cl	3.218591	0.0	0.0
