15

C	-0.439663	-0.002026	-1.471142
C	0.0	0.0	0.0
F	0.070597	-1.124465	-2.088586
H	1.106141	0.0	0.0
C	-1.914617	-0.066466	-1.583696
N	-3.085763	-0.138539	-1.642535
C	0.029531	1.193846	-2.195544
N	0.339645	2.148676	-2.805665
C	-0.475188	-1.257736	0.727479
H	-0.094664	-2.137241	0.207267
H	-1.565281	-1.310521	0.800091
H	-0.050186	-1.254234	1.732355
C	-0.501274	1.210408	0.638682
N	-0.936279	2.164034	1.17089
Cl	3.218463	0.0	0.0
