15

C	-0.431484	0.049087	-1.472821
C	0.0	0.0	0.0
F	0.04222	-1.076948	-2.114196
H	1.105439	0.0	0.0
C	-1.906559	0.043215	-1.600184
N	-3.078223	0.029838	-1.681338
C	0.091175	1.241375	-2.165024
N	0.458137	2.191197	-2.750443
C	-0.491179	-1.273508	0.686638
H	-0.116932	-2.141339	0.143
H	-0.074477	-1.304049	1.694428
H	-1.582339	-1.316824	0.74962
C	-0.49325	1.196844	0.671504
N	-0.922067	2.140275	1.225797
Cl	3.221394	0.0	0.0
