15

C	-0.324807	-0.043867	-1.485449
C	0.0	0.0	0.0
F	-0.170443	1.264336	-2.016737
H	1.09604	0.0	0.0
H	-0.323064	-0.950782	0.434037
N	0.519577	-0.979069	-2.121389
H	1.478604	-0.845122	-1.801695
H	0.466566	-0.900238	-3.128534
C	-1.748829	-0.369241	-1.756394
N	-2.881678	-0.620151	-1.935962
C	-0.595619	1.185745	0.736422
H	-0.218383	2.120342	0.322633
H	-0.308601	1.14384	1.789239
H	-1.689192	1.19459	0.680093
Cl	3.481098	0.0	0.0
