15

C	-0.314421	-0.058048	-1.48755
C	0.0	0.0	0.0
F	-0.167847	1.251725	-2.01147
H	1.096071	0.0	0.0
H	-0.375963	0.945779	0.394587
N	0.545973	-0.985238	-2.116249
H	1.50371	-0.828528	-1.801591
H	0.487189	-0.922927	-3.12448
C	-1.729083	-0.405088	-1.779338
N	-2.854806	-0.667665	-1.985641
C	-0.519518	-1.200853	0.777725
H	-0.157823	-1.153991	1.807135
H	-1.613011	-1.240029	0.797154
H	-0.14672	-2.12613	0.335571
Cl	3.481383	0.0	0.0
