15

C	-0.313887	-0.050118	-1.488062
C	0.0	0.0	0.0
F	-0.165467	1.262992	-2.004876
H	1.095984	0.0	0.0
H	-0.375966	0.9438	0.399489
N	0.546986	-0.9746	-2.120837
H	0.488785	-0.9068	-3.12849
H	1.504766	-0.820159	-1.804392
C	-1.728381	-0.394949	-1.783686
N	-2.852198	-0.660939	-1.995627
C	-0.520277	-1.205085	0.770332
H	-1.613814	-1.24437	0.788585
H	-0.147277	-2.127993	0.323378
H	-0.159525	-1.164046	1.800323
Cl	3.483259	0.0	0.0
