14
Coordinates from ORCA-job run
  C   -0.53459805758445     -0.11315428936538      0.37099874379759
  C   0.95038576834950      0.06445058307519      0.60789027883760
  Br  -1.35409539458117     -0.23497806601498      2.21248027627999
  H   1.14839779220112      1.02911082967883      1.07054805987413
  H   1.34584165420293     -0.75148251064295      1.20923018274059
  N   -1.16543607725709      1.16625994638538     -0.19451107604970
  O   -0.72009755885319      2.22636880291636      0.21231513358011
  O   -2.09762348658896      1.00695047956770     -0.97104387905234
  N   -0.81309543934864     -1.16491301564894     -0.48804818136132
  H   -1.78437368821515     -1.21378320765780     -0.76323904894137
  H   -0.45909765209328     -2.05337187504689     -0.16158709053734
  N   1.65781158651435      0.02364375389430     -0.70887846738904
  O   1.35230831141599      0.89079609682319     -1.51979832079614
  O   2.47467224183805     -0.87789752796401     -0.87535661098276
