14
Coordinates from ORCA-job run
  C   -0.51540800976604     -0.17872232597959      0.50545209899999
  C   0.99620581575904     -0.06882615385280      0.54350963544665
  Br  -1.13015086445424     -0.12945120707063      2.35392008843480
  H   1.32267188064306      0.79796206200491      1.11082725507439
  H   1.41233339270928     -0.98090450469534      0.97161969242493
  N   -1.08464377332891      1.13318905218986     -0.11951130429227
  O   -2.15436247705693      1.02678919638566     -0.70170438117135
  O   -0.43126723459367      2.15620890111519      0.03888157259090
  N   -0.98996786508742     -1.34783676543789     -0.10874631861653
  H   -1.99836752730293     -1.40835977867842     -0.04889140212278
  H   -0.70612885666659     -1.35726437826329     -1.08189405365468
  N   1.60280973922803      0.08342606887498     -0.82013040446165
  O   0.86767420505962     -0.01023263358498     -1.80247951301618
  O   2.80860157485768      0.28502246699235     -0.84185296563622
