14
Coordinates from ORCA-job run
  C   -0.48986989500716     -0.13013876060607      0.54514436086580
  C   0.98464868223615      0.22286229733537      0.52206197342611
  Br  -1.13745903776698      0.27020230452797      2.33868971668378
  H   1.53165038454630     -0.48370161812790      1.14658481979242
  H   1.16101653453017      1.24026288565304      0.85871884166387
  N   -1.24853917507511      0.88330298434501     -0.36730305434298
  O   -0.76707779271709      2.00345461826179     -0.47754738655553
  O   -2.27895420561412      0.47194384045805     -0.88067784162102
  N   -0.76183301836652     -1.47318062288620      0.24369726771393
  H   -1.74869578222690     -1.67689200750678      0.33628677734258
  H   -0.45926670959061     -1.67544960051402     -0.70235888677548
  N   1.58240217030406      0.13698442120252     -0.85127782735272
  O   0.89240366500365     -0.31540511919843     -1.76415282792472
  O   2.73757417974416      0.52575437705564     -0.94886593291604
