14
Coordinates from ORCA-job run
  C   -0.53088057600922     -0.08340637034449      0.38337850799035
  C   0.95774606888021      0.10099115023897      0.59166448487407
  Br  -1.33086412807224     -0.07263067310747      2.23687258952008
  H   1.35536411108922     -0.67360427644021      1.24406485715439
  H   1.16591252972329      1.09415924390442      0.98423859972719
  N   -1.16067327297653      1.15695392533923     -0.26361772753185
  O   -2.10178897699889      0.94971792911910     -1.01769489306744
  O   -0.70548741052399      2.24000617904733      0.06417017980500
  N   -0.82414323066917     -1.19118967060123     -0.39759065938155
  H   -1.79853940382869     -1.25014803527124     -0.65983755909645
  H   -0.47653787044882     -2.05718279638045     -0.00956440798059
  N   1.65011420582594     -0.03586606731289     -0.72651068488529
  O   1.33953042418339      0.77406359264022     -1.59275423462297
  O   2.46124752982550     -0.95086413083130     -0.83781905250494
