14
Coordinates from ORCA-job run
  C   -0.47395687934335     -0.26082656212370      0.20604321511728
  C   0.88043004281235     -0.22288263275344     -0.46931525306462
  Br  -0.24635365534449     -0.65463628048650      2.13195184453628
  H   0.76337132605943      0.16747509821658     -1.48023975715154
  H   1.30648241449924     -1.22473917962383     -0.50081539397268
  N   -1.21397151582484      1.07785791529038      0.06954421635114
  O   -0.80851275792190      1.84226430806104     -0.79418660830018
  O   -2.21511709107690      1.21042821552412      0.75791024505906
  N   -1.30745103320666     -1.18028237576783     -0.47227916542727
  H   -0.91314827859282     -2.11257973777084     -0.46719201081904
  H   -2.22976469450788     -1.20606348700230     -0.05119655934344
  N   1.89552192333721      0.63874153093234      0.20769904153221
  O   3.06411596593113      0.30397299028766      0.04020794091293
  O   1.50035423317948      1.62227019721633      0.82186824456987
