14
Coordinates from ORCA-job run
  C   -0.49976232954445     -0.29289662807630      0.31931652533528
  C   0.83237029738063     -0.25540030640449     -0.42313689141527
  Br  -0.20066215842622     -0.71153846638767      2.17240755703492
  H   1.28320732438263     -1.24585170484738     -0.41974183990774
  H   0.65722258996499      0.09294224407149     -1.44306590941041
  N   -1.19090129959748      1.07525191702714      0.16267021611955
  O   -1.54881913295204      1.70573681489890      1.13749264426201
  O   -1.36123987718338      1.37068708036182     -1.01719214593275
  N   -1.44287931622854     -1.22391228406537     -0.22544221958953
  H   -1.17429563798954     -2.17845608599304     -0.02806738184659
  H   -1.55033079233887     -1.07713212073695     -1.22282661844947
  N   1.82187085190837      0.67802909379605      0.18584117657203
  O   2.96017796911542      0.25492237953681      0.35878214406373
  O   1.41504151150847      1.80761806681899      0.44396274316423
