14
Coordinates from ORCA-job run
  C   -0.55939168657932      0.05750823741158      0.32252998660264
  C   0.74186881130959      0.43289384925878     -0.40860267367367
  Br  -0.47003485195029      0.70028493438626      2.13563615366447
  H   0.88480051008599      1.51238430925035     -0.43379186937028
  H   0.71442803254000      0.01251067131982     -1.41546158686763
  N   -1.63539541155808      0.82580518992956     -0.47520555300946
  O   -1.80138161146204      0.36582928317715     -1.60316380937141
  O   -2.19799398796291      1.79170917903734      0.00927647772113
  N   -0.98530515699012     -1.29976193096223      0.32147080635669
  H   -0.33297188112119     -1.86864332200913      0.84568363484769
  H   -1.03219848138222     -1.64077848992256     -0.63249891848895
  N   1.92801380155710     -0.14768323484386      0.27670443841894
  O   2.79484852222236      0.62920610508616      0.66292781343389
  O   1.95071339129114     -1.37226478111922      0.39349509973597
