14
Coordinates from ORCA-job run
  C   -0.50886751449164     -0.26488806398242      0.21450669283707
  C   0.91037035412283     -0.29245254751229     -0.34284869394621
  Br  -0.57490258222367     -0.36697357526270      2.19339227714905
  H   0.84020588454875     -0.13356990619147     -1.41740584362033
  H   1.33930487013510     -1.27302004979494     -0.12824272517518
  N   -1.19038888324034      1.06257057642647     -0.11203988521076
  O   -2.40612162579591      1.03531021583562     -0.24543496507440
  O   -0.46395507017356      2.04436379475709     -0.18341840547567
  N   -1.24550505465693     -1.27616353847611     -0.43555759137804
  H   -2.23552355746703     -1.17405685904480     -0.24476586152232
  H   -0.93214164252096     -2.19613112139620     -0.15363063879252
  N   1.89548816834854      0.71070508724592      0.16787677748230
  O   2.34992865667543      1.49420280839359     -0.65948642235701
  O   2.22010799673937      0.63010317900223      1.34705528508401
