14
Coordinates from ORCA-job run
  C   -0.63933983190484     -0.22687973723389      0.42068823007952
  C   0.84692161071006      0.05652494493063      0.69039285863914
  Br  -1.47359450451904     -0.43587048298839      2.15848768123923
  H   0.97014472272175      0.94132677622023      1.31082907222963
  H   1.31009578891541     -0.82392842775296      1.13382842090935
  N   -1.16561863919360      1.06324212407251     -0.24472447009916
  O   -1.22835416572761      2.06451776296180      0.45190548579198
  O   -1.38381545621691      0.98500429403393     -1.44778884086592
  N   -1.00169771450374     -1.32104060771611     -0.39642792404135
  H   -0.75084170677328     -2.19713362539372      0.04177419474658
  H   -0.57958087647545     -1.25386255982833     -1.31438572498698
  N   1.53760152069343      0.31889164592700     -0.60646889100656
  O   1.79568208053355      1.48865559251424     -0.88011696637230
  O   1.76239717174027     -0.66044769974696     -1.31799312626317
