14
Coordinates from ORCA-job run
  C   -0.48992354790979     -0.15891646346517      0.26618849023891
  C   0.86122469251812     -0.40728789135655     -0.36994311488821
  Br  -0.27974978837161      0.00533510574156      2.22742728774867
  H   0.76647469093439     -0.32480391685289     -1.45261680758862
  H   1.22082279819987     -1.39904417815066     -0.09901527402837
  N   -1.13758817691862      1.12907862034176     -0.26170049937591
  O   -2.12269768242870      1.52279858519690      0.34515296473711
  O   -0.68676227034095      1.58010614996385     -1.30482551599045
  N   -1.38658967425747     -1.17767494552259     -0.13047075667322
  H   -2.30635119451632     -1.02198158756517      0.26735729027499
  H   -1.05477531907731     -2.09371330655210      0.14380479588000
  N   1.93352334447079      0.54854481244868      0.03992765307821
  O   1.60579101670201      1.68921434360431      0.34330920576981
  O   3.07760111099558      0.10834467216808     -0.01559571918292
