14
Coordinates from ORCA-job run
  C   -0.52376868146238     -0.16489593892392      0.36902180646599
  C   0.82320127781729     -0.40854179699412     -0.30474271641777
  Br  -0.28920975792426     -0.06727432076434      2.27545611834656
  H   0.69088274604262     -0.34935763513687     -1.38697517898234
  H   1.21104064369549     -1.38156888037679     -0.00974948953803
  N   -1.12367751983166      1.14143889811014     -0.18549082026159
  O   -1.46019090726822      2.03723615549822      0.56304596002323
  O   -1.25128707271105      1.10564530909387     -1.40642774218880
  N   -1.51233543342436     -1.15738384577863      0.06840928825745
  H   -1.30750013950274     -2.03332862688844      0.52997337239621
  H   -1.59149339631457     -1.28679403658255     -0.93402311831981
  N   1.85632227211717      0.60242701712999      0.05828372611963
  O   1.51638299347343      1.77963508781714     -0.02312069021783
  O   2.96163297529324      0.18276261379630      0.38533948431705
