14
Coordinates from ORCA-job run
  C   -0.57834131053935     -0.14125498951628      0.44688195574497
  C   0.92342705187571     -0.11246898240562      0.65307004139456
  Br  -1.39198138394078     -0.02143286868109      2.21340389757801
  H   1.23230461930151      0.74421386623950      1.24497508194111
  H   1.23751385271481     -1.03862489492325      1.13475276398148
  N   -0.99964517584213      1.18725302195971     -0.25601586532041
  O   -0.31184240013919      2.17613262896477     -0.03778773876801
  O   -1.99923454308025      1.12679004934700     -0.95716868168423
  N   -1.04605601187488     -1.29494958654825     -0.20045805070161
  H   -2.05654834353586     -1.29929869066472     -0.25520147116604
  H   -0.65534771995183     -1.33989506913751     -1.13477893923370
  N   1.68676526453768     -0.01632560114539     -0.63514500288621
  O   1.06359207943712     -0.09237976118749     -1.69349897108026
  O   2.89639402103745      0.12124087769859     -0.52202901979961
