14
Coordinates from ORCA-job run
  C   -0.47683858871401     -0.09999454839884      0.56293968283804
  C   1.03315143656766      0.00472705598333      0.47470465845460
  Br  -0.95788720752681      0.22862211218079      2.42220989215550
  H   1.48277012706436     -0.83924150887384      0.99819916341132
  H   1.39649934434264      0.94153294477112      0.88704372334385
  N   -1.09456426291340      1.10890665428840     -0.20828267195837
  O   -2.20162939031002      0.92374794175200     -0.69266089075393
  O   -0.43620708556329      2.14016273645915     -0.24847462712238
  N   -0.98964951994374     -1.34389239912572      0.16518276528832
  H   -0.77625908677921     -1.50030871585687     -0.81337289542171
  H   -1.99072563684543     -1.38921003396261      0.30590552180699
  N   1.53835604937330     -0.04446329600289     -0.93698335494434
  O   2.73641301267994      0.15642705105094     -1.07602358753731
  O   0.73657080856804     -0.28701599426492     -1.83838737956062
