14
Coordinates from ORCA-job run
  C   -0.50297565607549     -0.20537430263237      0.19888334938681
  C   0.90736718192787     -0.32810272677276     -0.33775151092741
  Br  -0.46943906272763     -0.26779999665770      2.17677938272498
  H   1.28411549657988     -1.33456027228582     -0.16076026537876
  H   0.90235179593175     -0.11134037762979     -1.40594887850803
  N   -1.16218962022246      1.11269187990796     -0.23234420196152
  O   -2.21559358409064      1.39158846539774      0.32133368163456
  O   -0.64283237505654      1.70554198103799     -1.16697047362528
  N   -1.31490774358581     -1.20072155943988     -0.39232683758010
  H   -2.27210164561430     -1.12320945880172     -0.06623660006596
  H   -0.96859149505931     -2.13055172530236     -0.19226909618883
  N   1.89819077945363      0.60101975175498      0.28318977047845
  O   1.49930201221759      1.68986254138373      0.67807440836846
  O   3.05830391632145      0.20095580004000      0.29434727164265
