14
Coordinates from ORCA-job run
  C   -0.45776828008785      0.15120600377738      0.32461883407775
  C   0.82391266717639      0.40958605958632     -0.45985269328435
  Br  -0.51791645427682      1.17087581920162      1.98284099281995
  H   1.08132257250229      1.46380847981247     -0.45952935071692
  H   0.70736301837595      0.03905785618724     -1.47945895435851
  N   -1.60333506712080      0.78850493933241     -0.53635872284349
  O   -1.33595127529206      1.81167359205416     -1.15406435287365
  O   -2.68003532123189      0.20810653182633     -0.50778541565272
  N   -0.65285599988882     -1.20221197786721      0.59461955411919
  H   -0.46810808042888     -1.79706324689920     -0.20323568405820
  H   -1.55885570312238     -1.39136625041053      1.00065066515931
  N   1.94606974484613     -0.35699295007832      0.14825428646978
  O   2.59595545725471      0.20115558976823      1.02606875345254
  O   2.12120272129407     -1.49734044629087     -0.27776791231066
