14
Coordinates from ORCA-job run
  C   -0.51462845732797      0.21920004414644      0.32777089864829
  C   0.75743293560755      0.20226789890815     -0.53778734856035
  Br  -0.17386231789126      1.23916984729826      1.92568489283177
  H   1.05046921124368      1.20958283986757     -0.83080617973588
  H   0.58171295656194     -0.42912689915649     -1.41057664872490
  N   -1.53596544401385      0.94534455525467     -0.57436162646533
  O   -1.86010056299641      0.27271300174061     -1.55118686188428
  O   -1.91560954698160      2.07105394777726     -0.30482486422501
  N   -1.12974284978520     -1.01590940109098      0.67559859365017
  H   -1.31305990092021     -1.55159777930277     -0.16597017075674
  H   -0.51784624998263     -1.54825284513661      1.28088364861263
  N   1.90483377319687     -0.38606566520330      0.20514561405225
  O   2.90693181026743      0.30797301373273      0.33955560689080
  O   1.76043464302168     -1.53535255883553      0.61987444566654
