14
Coordinates from ORCA-job run
  C   -0.45508426973229      0.14483773353487      0.33121077146570
  C   0.79986370845760      0.42344448929310     -0.48876481602317
  Br  -0.51214265804978      1.20654963698340      1.96277244711431
  H   0.67430670117725      0.02242223222275     -1.49568522542093
  H   1.02145849628864      1.48528849653329     -0.52091515433127
  N   -1.63982374227005      0.72197338280549     -0.52067607202036
  O   -2.69465611156204      0.10554004251477     -0.45662832046137
  O   -1.42001766099765      1.73843153073716     -1.16745153662898
  N   -0.60051642558837     -1.20626890463753      0.64152925846405
  H   -0.41589056636749     -1.81614426559801     -0.14498989118387
  H   -1.49158054739578     -1.41179815986887      1.07214096311266
  N   1.95999090585385     -0.29006582129121      0.11339061849612
  O   2.15988995984290     -1.43666679897326     -0.28398961471173
  O   2.61320221034321      0.31345640574407      0.95805657212882
