14
Coordinates from ORCA-job run
  C   -0.51549873034760      0.01908268239510      0.16294246831787
  C   0.86583646918484      0.46187054546398     -0.28986652274136
  Br  -0.50914805308506      0.03120492017558      2.17943168348518
  H   1.10177068872069      1.45197412096652      0.08295422954289
  H   0.90959139342738      0.43286068551095     -1.38104695519163
  N   -1.52814706130679      1.11786130575884     -0.18220739926170
  O   -1.08879405061261      2.22012329695188     -0.48538619565983
  O   -2.70293811584418      0.78802457775644     -0.12587798541760
  N   -0.96409531704564     -1.14654985683534     -0.44207648569719
  H   -0.28781971914418     -1.89498684524566     -0.36679460445241
  H   -1.88741154978573     -1.41690928998078     -0.13033712543440
  N   1.92986551926050     -0.45908252993473      0.21241898004681
  O   2.89467765353462      0.05734098552558      0.76265785449829
  O   1.78211087304371     -1.66281459850838      0.00318805796508
