14
Coordinates from ORCA-job run
  C   -0.51909924319301      0.07141947689859      0.13578938120691
  C   0.85925094032604      0.32064718736624     -0.45314147434072
  Br  -0.55403163345927      0.94469068547017      1.95225956695104
  H   1.06338443544043      1.38172134525575     -0.53891057161969
  H   0.92468115375281     -0.17176791872833     -1.42611810333826
  N   -1.55214228184853      0.88346234805258     -0.65500639642174
  O   -2.71947507205611      0.57867211770341     -0.46408075228930
  O   -1.13429274349586      1.75514904075880     -1.40711257434156
  N   -0.92630831058460     -1.25459665914682      0.08476380014404
  H   -1.84749280966328     -1.39416690911202      0.47817212371520
  H   -0.23227728343915     -1.87742847352238      0.47668802601214
  N   1.93643436041380     -0.26305295729133      0.40282370481884
  O   2.87658821312411      0.46964235001717      0.68515077603897
  O   1.82378027468261     -1.44439163372183      0.72872249346414
