14
Coordinates from ORCA-job run
  C   -0.56314775817008      0.10667487519790      0.30349932540039
  C   0.77015030834109      0.36699528829577     -0.41897753822326
  Br  -0.48309395367926      0.87896798460882      2.06622682182366
  H   0.74524123083962     -0.12468625096609     -1.39316025287111
  H   0.96413338803612      1.43408354056310     -0.51966031285377
  N   -1.58442647932978      0.86072049351125     -0.57555136392169
  O   -1.74529522300046      0.32627395232137     -1.67105174309423
  O   -2.11353246109694      1.88327357335099     -0.17749025382149
  N   -1.05234953970195     -1.22657110937640      0.39146368690141
  H   -0.43415022823062     -1.78481356661680      0.96618178542218
  H   -1.09960158860260     -1.63187770224420     -0.53707942853824
  N   1.91291755856464     -0.21387808805841      0.33659554750747
  O   1.87365819558510     -1.42538464219529      0.54759409904854
  O   2.80849655044512      0.54922165160800      0.68240962722017
