14
Coordinates from ORCA-job run
  C   -0.50593827169742     -0.11566248485154      0.40795913132696
  C   0.99838938866991      0.00849184541376      0.52907150926382
  Br  -1.17648545245992     -0.30491240523976      2.30293893234015
  H   1.41538587435201     -0.84656792578260      1.05701031696729
  H   1.26360281670214      0.94333903260291      1.01851524748115
  N   -1.13969708692253      1.20666677240059     -0.04361527401621
  O   -0.62911919769291      2.23281590657088      0.37366025296948
  O   -2.13675139788143      1.11133990229264     -0.74652174666635
  N   -0.88649352236367     -1.11641429593794     -0.47319794740274
  H   -1.87822254816431     -1.12414513649161     -0.66824296418090
  H   -0.53754271346354     -2.02924291738133     -0.21561591499115
  N   1.59464308473826      0.01230017246207     -0.84207976185181
  O   1.25059305662063      0.92536413982798     -1.58432240475062
  O   2.36763596956272     -0.90137260588609     -1.11655937648907
