14

C	-0.107012	-0.009614	-1.539879
C	0.0	0.0	0.0
Cl	-0.061954	-1.834189	-2.104215
H	1.095268	0.0	0.0
H	-0.365864	0.978922	0.321778
C	-1.374757	0.453562	-2.110887
N	-2.399295	0.862687	-2.514605
N	0.990977	0.723977	-1.993418
H	1.842421	0.498167	-1.418362
H	1.130717	0.66809	-2.991521
N	-0.735539	-1.054226	0.680847
H	-0.161368	-1.890456	0.665941
H	-0.821859	-0.783114	1.652261
F	2.76158	0.0	0.0
