14

C	-0.138291	-0.142478	-1.534771
C	0.0	0.0	0.0
Cl	-0.10716	-1.921183	-1.94943
H	1.093609	0.0	0.0
H	-0.343414	1.015059	0.234351
C	-1.400604	0.375038	-2.073769
N	-2.384438	0.876976	-2.475392
N	0.993374	0.480857	-2.180234
H	1.807136	0.344156	-1.537137
H	0.816117	1.475501	-2.264702
N	-0.734366	-0.973451	0.794738
H	-0.111392	-1.751076	0.981832
H	-0.952746	-0.556552	1.691165
F	2.742423	0.0	0.0
