14

C	-0.144373	0.097576	-1.533246
C	0.0	0.0	0.0
Cl	-0.07847	-1.591402	-2.224566
H	1.101355	0.0	0.0
H	-0.34753	0.963839	0.391246
C	-1.423773	0.661854	-1.980146
N	-2.437726	1.173902	-2.284242
N	0.971063	0.839119	-2.07703
H	0.780244	1.830113	-1.96891
H	1.793525	0.599403	-1.477678
N	-0.741487	-1.082539	0.637207
H	-0.811421	-0.863807	1.624099
H	-0.169628	-1.916704	0.574039
F	2.740795	0.0	0.0
