14

C	-0.086267	-0.184741	-1.513238
C	0.0	0.0	0.0
Cl	-1.691433	-0.902906	-2.089016
H	1.104589	0.0	0.0
H	-0.478971	0.924415	0.324302
C	-0.044297	1.129619	-2.180267
N	0.040271	2.171962	-2.717941
N	0.9848	-1.060264	-1.883395
H	1.827147	-0.762844	-1.331387
H	1.160188	-1.034778	-2.879572
N	-0.537012	-1.163121	0.729318
H	0.074209	-1.273934	1.533995
H	-0.342458	-1.976042	0.149489
F	2.734631	0.0	0.0
