14

C	-0.527541	-0.012148	-1.408089
C	0.0	0.0	0.0
Cl	-2.507075	0.276001	-1.268985
H	1.092894	0.0	0.0
H	-0.369286	0.897293	0.506549
C	-0.152487	1.156192	-2.201389
N	0.136402	2.089795	-2.853946
N	-0.269988	-1.204136	-2.053593
H	-0.757119	-1.327494	-2.927144
H	-0.395325	-1.960034	-1.387284
N	-0.383558	-1.256765	0.648685
H	-1.188668	-1.141784	1.250195
H	0.4136	-1.546363	1.202159
F	2.613035	0.0	0.0
