14

C	-0.548092	0.079901	-1.415641
C	0.0	0.0	0.0
Cl	-0.044842	1.601086	-2.224005
H	1.092484	0.0	0.0
H	-0.336595	-0.978211	0.389849
C	0.012888	-1.023848	-2.222557
N	0.359398	-1.959269	-2.844125
N	-2.006011	0.050151	-1.435657
H	-2.297967	-0.812695	-0.985267
H	-2.333954	0.026592	-2.39668
N	-0.45067	1.132759	0.795771
H	-1.220805	0.899306	1.405837
H	0.341736	1.420448	1.355939
F	2.646087	0.0	0.0
