14

C	-0.600444	0.029858	-1.402804
C	0.0	0.0	0.0
Cl	0.344343	1.264191	-2.410227
H	1.095007	0.0	0.0
H	-0.396588	-0.901954	0.48068
C	-0.419645	-1.249601	-2.09662
N	-0.288772	-2.280704	-2.642407
N	-1.986463	0.355963	-1.348071
H	-2.338449	0.606937	-2.263297
H	-2.041684	1.152715	-0.716217
N	-0.459035	1.215376	0.707867
H	-0.803003	0.959094	1.623669
H	0.379996	1.76675	0.856227
F	2.649852	0.0	0.0
