14

C	-0.107107	0.05839	-1.532834
C	0.0	0.0	0.0
Cl	-0.050233	-1.762781	-2.140884
H	1.102142	0.0	0.0
H	-0.483116	-0.88823	0.400384
C	-1.383593	0.5284	-2.081235
N	-2.411763	0.896199	-2.5148
N	0.988382	0.809296	-1.971641
H	1.841427	0.554777	-1.412198
H	1.127791	0.792462	-2.97095
N	-0.583415	1.220413	0.57865
H	-0.608563	1.088711	1.582673
H	0.090846	1.9599	0.412292
F	2.752033	0.0	0.0
