14

C	-0.151531	0.103551	-1.529813
C	0.0	0.0	0.0
Cl	-0.029187	-1.579667	-2.208041
H	1.093331	0.0	0.0
H	-0.475693	-0.895031	0.411747
C	-1.467918	0.613267	-1.939165
N	-2.543257	1.004713	-2.205098
N	0.917575	0.896379	-2.095095
H	0.713793	1.856766	-1.832142
H	1.757924	0.62565	-1.543478
N	-0.425342	1.271074	0.580514
H	-1.335413	1.203828	1.01526
H	0.25412	1.544661	1.277401
F	2.699869	0.0	0.0
