16

C	0.0	0.0	0.0
C	-0.501391	-0.301528	-1.405585
F	1.39747	0.0	0.0
H	-1.578312	-0.101414	-1.405311
H	-0.014053	0.412448	-2.078941
C	-0.358608	1.392043	0.357417
N	-0.537727	2.51171	0.660972
C	-0.501098	-0.958298	1.057346
H	-0.106245	-1.956521	0.860251
H	-0.160451	-0.635415	2.043515
H	-1.594674	-0.966415	1.023973
C	-0.222407	-1.733087	-1.850003
H	-0.431339	-1.838502	-2.917584
H	0.823287	-2.008486	-1.681195
H	-0.864548	-2.43845	-1.321139
Cl	-3.808448	0.0	0.0
