16

C	0.0	0.0	0.0
C	-0.481766	0.301353	-1.408433
F	1.397662	0.0	0.0
H	-0.073509	-0.494697	-2.042905
H	-1.57236	0.211845	-1.392647
C	-0.374025	1.082179	0.936746
N	-0.540302	1.963977	1.693538
C	-0.481876	-1.341345	0.506774
H	-1.573219	-1.321426	0.559862
H	-0.155323	-2.11678	-0.191364
H	-0.052965	-1.543788	1.490972
C	-0.041787	1.670205	-1.91418
H	1.033137	1.814049	-1.781528
H	-0.566868	2.464387	-1.379413
H	-0.272201	1.775739	-2.977377
Cl	-3.749026	0.0	0.0
