13

C	0.0	0.0	0.0
C	-0.320075	-0.186407	-1.502735
Cl	1.767684	0.0	0.0
H	-1.402744	-0.088247	-1.607413
H	0.184132	0.600832	-2.062826
N	-0.394877	1.413839	0.421038
O	-0.421667	2.274842	-0.456797
O	-0.464051	1.620826	1.62683
C	-0.722208	-0.946542	0.845314
N	-0.710694	-1.871916	1.595632
C	0.111483	-1.493485	-1.981567
N	0.423589	-2.535409	-2.424448
H	-2.166092	0.0	0.0
