13

C	0.0	0.0	0.0
C	-0.318442	-0.115187	-1.510202
Cl	1.767897	0.0	0.0
H	0.184456	0.698557	-2.031868
H	-1.401457	-0.014383	-1.610416
N	-0.396078	1.39003	0.490116
O	-0.468771	1.536284	1.703949
O	-0.422773	2.293384	-0.343285
C	-0.723724	-0.987014	0.796557
N	-0.711325	-1.948467	1.49976
C	0.116772	-1.396759	-2.050807
N	0.432123	-2.41405	-2.546495
H	-2.163093	0.0	0.0
