13

C	0.0	0.0	0.0
C	-0.325096	-0.023952	-1.513571
Cl	1.767895	0.0	0.0
H	0.227558	0.795315	-1.975856
H	-1.397857	0.148422	-1.614755
N	-0.614791	1.218992	0.600464
O	-0.608701	2.224542	-0.149795
O	-0.6069	1.269933	1.841398
C	-0.451505	-1.186998	0.731709
N	-0.752408	-2.151725	1.335459
C	0.031882	-1.293007	-2.134041
N	0.300019	-2.302814	-2.676518
H	-2.141387	0.0	0.0
