16

C	-0.477463	0.01315	-1.45374
C	0.0	0.0	0.0
Br	-0.026275	-1.752033	-2.222594
H	1.093336	0.0	0.0
H	-0.367171	-0.889539	0.525312
C	-1.979206	0.190328	-1.57798
H	-2.251171	1.158649	-1.148976
H	-2.268974	0.168694	-2.629074
H	-2.509612	-0.599705	-1.040579
N	0.203632	1.016342	-2.250649
H	0.020154	1.894921	-1.768482
H	1.20579	0.852924	-2.154495
N	-0.422718	1.264896	0.627743
H	-1.19352	1.110604	1.263603
H	0.3553	1.623924	1.166044
Br	3.646777	0.0	0.0
