16

C	-0.310849	-0.025082	-1.485581
C	0.0	0.0	0.0
Br	-2.308893	-0.217941	-1.72155
H	1.098178	0.0	0.0
H	-0.33595	-0.950572	0.433184
C	0.083556	1.270882	-2.168559
H	-0.43711	2.119005	-1.72732
H	1.160813	1.395384	-2.013421
H	-0.126751	1.219917	-3.240275
N	0.30093	-1.20887	-2.030385
H	1.262432	-1.236613	-1.689359
H	0.326644	-1.149809	-3.042158
N	-0.495985	1.19113	0.670984
H	0.133258	1.417004	1.432124
H	-1.415993	1.014254	1.056705
Br	3.606122	0.0	0.0
