16

C	-0.437473	-0.060565	-1.473725
C	0.0	0.0	0.0
Br	-0.190102	1.737605	-2.246681
H	1.093827	0.0	0.0
H	-0.378193	0.920442	0.448405
C	0.44316	-1.011179	-2.269861
H	0.163955	-1.017016	-3.326659
H	0.305908	-2.024173	-1.872706
H	1.496131	-0.745784	-2.158491
N	-1.870879	-0.340331	-1.57577
H	-2.171139	-0.154917	-2.527033
H	-1.987238	-1.336696	-1.425095
N	-0.453582	-1.130393	0.801526
H	0.053982	-1.973759	0.566803
H	-1.451112	-1.276239	0.702559
Br	3.750447	0.0	0.0
