16

C	0.0	0.0	0.0
C	-0.640303	0.18055	-1.353387
F	1.364873	0.0	0.0
H	-0.418603	1.150568	-1.787673
H	-1.756609	0.078701	-1.091149
N	-0.345759	1.284216	0.784506
O	-0.566164	1.185094	1.986077
O	-0.263224	2.347849	0.171194
C	-0.490288	-1.196022	0.768153
H	-0.039911	-1.199265	1.760648
H	-1.580206	-1.102576	0.806136
H	-0.183115	-2.086136	0.221534
N	-0.227355	-0.806577	-2.366035
O	-0.609202	-0.564533	-3.51626
O	0.442736	-1.794846	-2.052831
F	-2.865983	0.0	0.0
