16

C	0.0	0.0	0.0
C	-0.653116	0.265525	-1.331093
F	1.377427	0.0	0.0
H	-1.76941	0.221523	-1.058753
H	-0.374147	1.235374	-1.733995
N	-0.331274	1.23103	0.867564
O	-0.462524	1.065533	2.074534
O	-0.317852	2.328072	0.309331
C	-0.498619	-1.239809	0.690312
H	-0.072325	-1.295891	1.690881
H	-0.179401	-2.100978	0.105793
H	-1.589533	-1.143057	0.710319
N	-0.324958	-0.722784	-2.375549
O	-0.90282	-0.572672	-3.455158
O	0.501801	-1.610216	-2.154406
F	-2.891721	0.0	0.0
