16

C	0.0	0.0	0.0
C	-0.593983	-0.071332	-1.389389
F	1.359021	0.0	0.0
H	-0.323929	0.806359	-1.965513
H	-1.702237	-0.154522	-1.168202
N	-0.361827	1.400758	0.539281
O	-0.46934	1.52527	1.75344
O	-0.400863	2.328637	-0.265759
C	-0.494188	-1.039133	0.964441
H	-0.049885	-0.859366	1.942481
H	-1.585329	-0.936601	0.965558
H	-0.194346	-2.018131	0.592961
N	-0.069535	-1.22778	-2.148123
O	0.551365	-0.989505	-3.189136
O	-0.304663	-2.3663	-1.739142
F	-2.83752	0.0	0.0
