16

C	0.0	0.0	0.0
C	-0.666752	0.040332	-1.34115
F	1.359795	0.0	0.0
H	-1.768391	0.226243	-1.053976
H	-0.618064	-0.938955	-1.817027
N	-0.351584	1.270964	0.800388
O	-1.017243	2.153136	0.280634
O	0.11421	1.307626	1.939279
C	-0.508329	-1.183513	0.786554
H	-1.60307	-1.106479	0.767294
H	-0.101335	-1.136023	1.796541
H	-0.160011	-2.09858	0.298896
N	-0.107098	0.993983	-2.313158
O	-0.43267	0.822158	-3.491062
O	0.628615	1.902276	-1.925906
F	-2.902189	0.0	0.0
