15

C	-0.548858	0.016946	-1.435893
C	0.0	0.0	0.0
Cl	0.296544	1.231526	-2.393711
H	1.092684	0.0	0.0
N	-0.332345	-1.329875	-2.136325
O	0.614476	-1.997029	-1.743938
O	-1.101053	-1.593865	-3.05676
C	-1.983131	0.293404	-1.436506
N	-3.13162	0.531881	-1.366894
C	-0.516821	-1.177553	0.702451
N	-0.987277	-2.073942	1.300264
N	-0.393783	1.252985	0.633238
H	0.402252	1.60802	1.147817
H	-1.180251	1.136314	1.257831
Cl	3.21089	0.0	0.0
