15

C	-0.536784	0.004592	-1.441032
C	0.0	0.0	0.0
Cl	0.302069	1.227099	-2.395327
H	1.092494	0.0	0.0
N	-0.299022	-1.341974	-2.137907
O	-1.016697	-1.583	-3.102991
O	0.60807	-2.031814	-1.697921
C	-1.975283	0.260604	-1.457435
N	-3.127801	0.484532	-1.402093
C	-0.51949	-1.173252	0.708141
N	-0.999636	-2.057592	1.316132
N	-0.400834	1.255693	0.622199
H	0.385518	1.61062	1.150623
H	-1.199329	1.142044	1.231334
Cl	3.214336	0.0	0.0
