15

C	-0.532771	0.02238	-1.444187
C	0.0	0.0	0.0
Cl	0.310608	1.243923	-2.391816
H	1.09271	0.0	0.0
N	-0.286902	-1.331754	-2.122349
O	-1.191603	-1.770456	-2.826273
O	0.805304	-1.835956	-1.918497
C	-1.969614	0.285126	-1.456607
N	-3.116981	0.531995	-1.392606
C	-0.498042	-1.213815	0.661144
N	-0.939749	-2.141988	1.232079
N	-0.415427	1.228461	0.651878
H	-1.289672	1.118281	1.15159
H	0.315395	1.516549	1.291692
Cl	3.230691	0.0	0.0
