15

C	-0.419312	0.045142	-1.497051
C	0.0	0.0	0.0
Cl	-2.187615	0.241486	-1.66409
H	1.09512	0.0	0.0
N	0.245622	1.262618	-2.159509
O	1.128315	1.036028	-2.973136
O	-0.157642	2.359195	-1.79432
C	-0.017621	-1.153443	-2.218763
N	0.278695	-2.143786	-2.779065
C	-0.504838	-1.261479	0.547489
N	-0.9361	-2.25882	0.993764
N	-0.417398	1.109491	0.816108
H	0.250549	1.862601	0.717794
H	-1.343859	1.438374	0.576653
Cl	3.177841	0.0	0.0
