15

C	-0.443329	0.04536	-1.473788
C	0.0	0.0	0.0
Cl	0.361857	-1.20765	-2.394917
H	1.094296	0.0	0.0
N	-1.976909	-0.183867	-1.51451
O	-2.642299	0.778265	-1.143222
O	-2.398442	-1.285766	-1.825873
C	-0.197621	1.356143	-2.063792
N	0.022503	2.382741	-2.590672
C	-0.471195	-1.253214	0.605947
N	-0.885407	-2.204142	1.159849
N	-0.413244	1.194069	0.699804
H	0.27609	1.410555	1.408133
H	-1.333156	1.114699	1.111017
Cl	3.201437	0.0	0.0
