15

C	-0.557303	-0.006298	-1.433847
C	0.0	0.0	0.0
Cl	0.284232	1.188887	-2.419981
H	1.092706	0.0	0.0
N	-0.344001	-1.370622	-2.100048
O	-1.181371	-1.714068	-2.929105
O	0.668817	-1.972264	-1.774488
C	-1.991171	0.27248	-1.429408
N	-3.137005	0.523271	-1.361211
C	-0.507072	-1.179959	0.70953
N	-0.972113	-2.068296	1.322048
N	-0.398343	1.252775	0.623758
H	0.380815	1.600091	1.163695
H	-1.206511	1.145027	1.218885
Cl	3.212962	0.0	0.0
