15

C	-0.546742	0.007408	-1.438533
C	0.0	0.0	0.0
Cl	0.300807	1.212131	-2.407106
H	1.092663	0.0	0.0
N	-0.326754	-1.349003	-2.118492
O	0.672589	-1.963315	-1.779133
O	-1.147841	-1.674179	-2.970687
C	-1.980788	0.285413	-1.441985
N	-3.127042	0.537399	-1.377854
C	-0.509251	-1.186234	0.697104
N	-0.972285	-2.08114	1.302786
N	-0.401957	1.247328	0.632578
H	0.370687	1.581424	1.195158
H	-1.224849	1.136212	1.210243
Cl	3.214213	0.0	0.0
