15

C	-0.442226	0.064097	-1.458509
C	0.0	0.0	0.0
Cl	-0.097372	-1.442524	-2.320665
H	1.095868	0.0	0.0
N	-1.96833	0.284885	-1.561629
O	-2.640731	-0.03749	-0.590818
O	-2.388748	0.726864	-2.621807
C	0.183393	1.190608	-2.142997
N	0.659027	2.105134	-2.706245
C	-0.452245	-1.221357	0.669923
N	-0.780641	-2.173216	1.275644
N	-0.41975	1.236423	0.637229
H	-1.254283	1.1106	1.192386
H	0.338319	1.578763	1.213467
Cl	3.184932	0.0	0.0
