18

C	-0.436022	0.031858	-1.481268
C	0.0	0.0	0.0
Br	0.001129	-1.675634	-2.376358
H	1.096199	0.0	0.0
C	-1.891917	0.180289	-1.571587
N	-3.05821	0.333146	-1.620381
C	0.294494	1.138129	-2.239808
H	0.023255	1.130145	-3.297215
H	1.371594	0.976516	-2.123629
H	0.023509	2.094616	-1.789095
C	-0.519389	-1.192385	0.790195
H	-0.18618	-1.084957	1.825516
H	-1.615779	-1.228582	0.77797
H	-0.130651	-2.136939	0.4103
N	-0.428436	1.285271	0.563861
H	-1.293291	1.170828	1.083001
H	0.289233	1.610747	1.203019
Br	3.602467	0.0	0.0
