18

C	-0.468583	-0.003835	-1.484443
C	0.0	0.0	0.0
Br	0.262088	1.587509	-2.398479
H	1.095444	0.0	0.0
C	0.05232	-1.166725	-2.199696
N	0.366005	-2.138047	-2.783503
C	-1.98661	0.028221	-1.661823
H	-2.245428	0.063211	-2.720989
H	-2.405667	0.913455	-1.180082
H	-2.429551	-0.868963	-1.221758
C	-0.484835	-1.258898	0.711929
H	0.016772	-1.293702	1.67985
H	-0.231131	-2.167735	0.161041
H	-1.566241	-1.235862	0.89006
N	-0.407072	1.169389	0.7587
H	0.172476	1.957992	0.500331
H	-1.379567	1.409562	0.607121
Br	3.581519	0.0	0.0
