18

C	-0.307831	-0.019109	-1.514247
C	0.0	0.0	0.0
Br	-2.279857	-0.179612	-1.839744
H	1.099231	0.0	0.0
C	0.048599	1.273216	-2.09892
N	0.33205	2.313342	-2.565968
C	0.40491	-1.145362	-2.251668
H	1.469682	-1.081276	-2.000318
H	0.013631	-2.110293	-1.929605
H	0.267688	-1.052146	-3.330415
C	-0.469567	-1.249828	0.724826
H	-1.561573	-1.313785	0.75246
H	-0.068536	-2.161139	0.277738
H	-0.098352	-1.183192	1.748285
N	-0.463367	1.184457	0.698042
H	0.09623	1.98305	0.427048
H	-1.433191	1.374695	0.472281
Br	3.570536	0.0	0.0
