18

C	-0.528471	0.04234	-1.444254
C	0.0	0.0	0.0
Br	0.208703	1.638675	-2.353791
H	1.098369	0.0	0.0
C	-0.063778	-1.112482	-2.20974
N	0.232715	-2.072157	-2.821274
C	-2.049769	0.13069	-1.529089
H	-2.49038	-0.789145	-1.134803
H	-2.381728	0.9743	-0.926748
H	-2.370206	0.254157	-2.564614
C	-0.470544	-1.263037	0.711099
H	-1.542017	-1.22665	0.926984
H	0.072991	-1.345302	1.655483
H	-0.242689	-2.159782	0.132578
N	-0.514484	1.173921	0.725567
H	0.068603	1.962776	0.465309
H	-0.310574	1.01132	1.705295
Br	3.590884	0.0	0.0
