18

C	-0.50701	0.000246	-1.454969
C	0.0	0.0	0.0
Br	0.220656	1.589374	-2.385684
H	1.100779	0.0	0.0
C	-0.003382	-1.162494	-2.182812
N	0.327184	-2.148513	-2.731347
C	-2.02767	0.055709	-1.572098
H	-2.388808	0.903102	-0.991414
H	-2.457622	-0.866918	-1.172952
H	-2.327716	0.155842	-2.616309
C	-0.469377	-1.248765	0.736281
H	0.051444	-1.296005	1.696631
H	-1.547016	-1.223881	0.924259
H	-0.212148	-2.157321	0.188658
N	-0.532529	1.189477	0.682389
H	-0.38065	1.047993	1.67618
H	0.062814	1.972361	0.428238
Br	3.596774	0.0	0.0
