18

C	-0.344537	-0.017883	-1.496529
C	0.0	0.0	0.0
Br	-2.283986	-0.357734	-1.803483
H	1.10525	0.0	0.0
C	-0.103374	1.306518	-2.069773
N	0.102774	2.371344	-2.523634
C	0.464012	-1.06326	-2.257327
H	0.28472	-0.982031	-3.330575
H	0.182665	-2.065307	-1.93189
H	1.523891	-0.898552	-2.035396
C	-0.46765	-1.234607	0.748993
H	-1.552942	-1.221993	0.87612
H	-0.172604	-2.155893	0.245424
H	0.008884	-1.240952	1.733669
N	-0.558875	1.197083	0.631609
H	-0.476316	1.08006	1.636033
H	0.039369	1.984706	0.397912
Br	3.585713	0.0	0.0
