18

C	-0.307147	-0.019926	-1.515829
C	0.0	0.0	0.0
Br	-2.279238	-0.186633	-1.8398
H	1.099221	0.0	0.0
C	0.043518	1.274385	-2.099652
N	0.321865	2.317044	-2.567301
C	0.406924	-1.143732	-2.253501
H	0.271399	-1.050936	-3.332464
H	0.019021	-2.110855	-1.933541
H	1.471007	-1.075957	-2.000604
C	-0.468931	-1.248631	0.728511
H	-1.560954	-1.309274	0.761089
H	-0.093063	-1.183551	1.75021
H	-0.073358	-2.161531	0.279803
N	-0.464303	1.184126	0.697383
H	0.102913	1.982154	0.433923
H	-1.432844	1.380128	0.461959
Br	3.55753	0.0	0.0
