18

C	-0.47578	-0.008719	-1.482653
C	0.0	0.0	0.0
Br	0.275131	1.564159	-2.410862
H	1.095471	0.0	0.0
C	0.024151	-1.184916	-2.19026
N	0.356697	-2.177152	-2.727067
C	-1.99368	0.048962	-1.652507
H	-2.392688	0.948933	-1.18206
H	-2.450322	-0.83292	-1.196318
H	-2.258379	0.072379	-2.710421
C	-0.478867	-1.256136	0.721127
H	0.02647	-1.282849	1.686894
H	-0.223117	-2.166892	0.175687
H	-1.559352	-1.236665	0.902485
N	-0.409022	1.170163	0.755551
H	0.135289	1.97229	0.465816
H	-1.394587	1.375473	0.644901
Br	3.586828	0.0	0.0
