17
Coordinates from ORCA-job run
  C   -0.50852859299427     -0.62289914018950     -0.34093664163264
  C   0.40085277906959      0.60554809242945     -0.12300220239549
  Br  0.55271875793048     -2.27728849185099     -0.35403077242449
  H   -0.22427093979923      1.48425249227360     -0.31141338094526
  C   -1.19473950796220     -0.54736797649630     -1.62983994150464
  N   -1.82866067496037     -0.49828073116977     -2.61884782656725
  C   -1.55392903904920     -0.72980274090992      0.77004025583518
  H   -1.07618606405454     -0.92900089694083      1.72853833491140
  H   -2.12185375091427      0.20359390833724      0.82917965434206
  H   -2.24257092675865     -1.54524114140988      0.54829293978107
  N   1.43882770421876      0.66042857005076     -1.21505739143578
  O   2.57866185999357      0.29665612308266     -0.94132686629004
  O   1.04825025073382      1.05851143337893     -2.31065952367378
  C   1.05778967955178      0.68455102075974      1.23804135294214
  H   1.76415381042722      1.51528927733918      1.25309468446609
  H   0.30586132065998      0.86826199742570      2.00623195768599
  H   1.60462333390751     -0.22821179611006      1.46969536690544
