17
Coordinates from ORCA-job run
  C   -0.54733158978312     -0.60235825732496     -0.52966280325794
  C   0.69973580084423      0.30296204888448     -0.41559325291481
  Br  -0.04667668733085     -2.23358066490685     -1.50962231286256
  H   1.05947034355302      0.51155546205205     -1.42425824336059
  C   -1.50044403377810      0.11710014458150     -1.37279844153892
  N   -2.26604827341703      0.73465852604251     -2.01727405634916
  C   -1.21664322701493     -1.00470491126050      0.78166248928000
  H   -1.53969294267973     -0.11336021766133      1.32406621688598
  H   -2.09372647462441     -1.61450160512320      0.56294032980313
  H   -0.52678683185816     -1.57192053920570      1.40256611970932
  N   1.83283726902938     -0.43591428762043      0.23588589262706
  O   2.82517041636720     -0.65249993043116     -0.45364670187272
  O   1.69413585650470     -0.74730511514127      1.41724075652147
  C   0.44643938889583      1.58498837102189      0.35992387220444
  H   0.22315742770468      1.37161671472819      1.40443515864130
  H   1.33851509659748      2.21348191806072      0.31877577437551
  H   -0.38111153901019      2.13978234330407     -0.08564079789151
