17
Coordinates from ORCA-job run
  C   -0.56879870304764     -0.61554888920544     -0.49269230937419
  C   0.68920581089881      0.28047653329930     -0.44688265221620
  Br  -0.11306812170621     -2.28110565496261     -1.43572394129528
  H   1.02191197592108      0.44836607143209     -1.47229280014898
  C   -1.54251625424820      0.08755581690582     -1.32627880367432
  N   -2.32401607525264      0.69475428828834     -1.96118349268435
  C   -1.19943492269802     -0.97023231604249      0.85126187897845
  H   -1.50016598882342     -0.05952792444555      1.37376332569331
  H   -0.49453424769604     -1.52208667477725      1.46902123683865
  H   -2.08672059165634     -1.58038969222574      0.67992462931061
  N   1.83338961240911     -0.44465047075473      0.20012218749175
  O   2.80478577047855     -0.69580653178610     -0.50715208983286
  O   1.72705806342029     -0.70600301113935      1.39710192368756
  C   0.47102924875064      1.59328864380716      0.28679967738255
  H   1.37316297101596      2.20367360933939      0.20787507832372
  H   -0.35427431779188      2.14662162301139     -0.16468253166277
  H   0.26298577002596      1.42161457925576      1.34201868318235
