17
Coordinates from ORCA-job run
  C   -0.55197596516078     -0.60745111917165     -0.29851439222769
  C   0.51909112541831      0.49636535676388     -0.16344342075213
  Br  0.17744121453736     -2.35099393680764      0.24111503829865
  H   0.10326233007708      1.38475765005633     -0.64945765334263
  C   -0.99590411262593     -0.74269320282495     -1.68506283162858
  N   -1.44211283384254     -0.83997283338794     -2.76850202702649
  C   -1.76447781941220     -0.29927140121698      0.58097960612991
  H   -2.54579038291618     -1.03764556088077      0.40015466532799
  H   -1.49195986734895     -0.33238551599861      1.63517243921169
  H   -2.15402112151181      0.69271185359820      0.33291427408145
  N   1.71177658359252      0.14388329454250     -1.01559371559270
  O   2.70667992837932     -0.30273601012760     -0.45238640018810
  O   1.58220879885407      0.32281550526163     -2.22495140389990
  C   0.95133520543229      0.80121072479839      1.25444632681977
  H   0.13176106025081      1.26564389283699      1.80383286919947
  H   1.27822238713347     -0.09876112118647      1.77307656201279
  H   1.78546346914314      1.50352242374469      1.23722006357652
