17
Coordinates from ORCA-job run
  C   -0.45414732746383     -0.68674345780564     -0.28176410745535
  C   0.50031429091535      0.52634855489442     -0.21374920839079
  Br  0.42932119132592     -2.26402959069917      0.49141123869668
  H   0.08432075596811      1.29258675302298     -0.87804674296661
  C   -0.82442242658856     -1.02318177447978     -1.65613543744241
  N   -1.24135254488842     -1.31025837681277     -2.71728578110143
  C   -1.74022762760464     -0.42496615727621      0.50375287419079
  H   -1.52814335857428     -0.29337971640048      1.56383127250047
  H   -2.23424696296224      0.46959719954740      0.11265350323085
  H   -2.41470954352686     -1.27373707443242      0.38863608277909
  N   1.82187262190644      0.16258868667327     -0.85508718520356
  O   1.76716752925884     -0.19279260691583     -2.02867551351758
  O   2.83765451996061      0.22961271483096     -0.17113987657250
  C   0.70763411681267      1.08466052191090      1.17795182439951
  H   0.99413397751883      0.30336037448653      1.88196462485314
  H   1.50243532913888      1.82920496646005      1.16030680453419
  H   -0.20560454119683      1.57112898299578      1.52137562746551
