17
Coordinates from ORCA-job run
  C   -0.76087501530795      0.15277234575585      0.15171517598894
  C   0.59933407117116     -0.43930170865133      0.58176950624101
  Br  -1.12722785608921      1.69004146838734      1.45526980184974
  H   0.49150458039264     -0.77162078929424      1.62188733926493
  N   -1.75201377729347     -0.84506135204866      0.24954867740682
  H   -1.81873120215978     -1.24327980533999      1.17800093110968
  H   -2.66219465415902     -0.51174859507767     -0.04086742067916
  C   -0.75176940134986      0.76133891062641     -1.23606935886539
  H   -0.05068620333743      1.59106852739103     -1.30624778188823
  H   -1.74528869705940      1.14121422168649     -1.48337715040821
  H   -0.48284904454155     -0.01366468021453     -1.95939264942996
  C   1.79827990798645      0.50876703396680      0.48770935265877
  H   1.62558769033290      1.40674189223946      1.07923967750618
  H   1.99434662112723      0.79114993415269     -0.54745486617707
  H   2.68803079801096      0.00493385713453      0.86974429509399
  C   0.86017290355417     -1.63117333171527     -0.23540397847188
  N   1.09537927872217     -2.59217792899892     -0.86807155120017
