17
Coordinates from ORCA-job run
  C   -0.75360209781316      0.15387896228400      0.19394982895075
  C   0.62802557750862     -0.43218605140894      0.55850034928601
  Br  -1.04985261711320      1.71022540429171      1.49140928239729
  H   0.57688982338714     -0.74727348527568      1.60822185066224
  N   -1.73696036736533     -0.84298918688448      0.36065747417421
  H   -2.66176194736657     -0.51494095251545      0.11366088365880
  H   -1.75391545969695     -1.22498535184436      1.29815504717829
  C   -0.82012102950716      0.74069169971094     -1.20165906782756
  H   -1.82618505351795      1.11567600540894     -1.40104948540914
  H   -0.12529433945432      1.56993778855338     -1.32227688394301
  H   -0.58870006198023     -0.04517739204173     -1.92622657158492
  C   1.82045387506025      0.51251603890378      0.38313596546807
  H   2.72928758267126      0.01465256403141      0.72587894533366
  H   1.67952479896079      1.42125628024318      0.96654629638394
  H   1.96014313783947      0.77514349348241     -0.66616668894655
  C   0.84498378742205     -1.63418835932022     -0.25682828160309
  N   1.07708439096532     -2.57023745761888     -0.92690894417899
