15

C	-0.444194	-0.032447	-1.462942
C	0.0	0.0	0.0
Br	-0.145182	1.815525	-2.123297
H	1.088129	0.0	0.0
H	-0.365144	0.877407	0.528947
C	0.396827	-0.972998	-2.322499
H	0.179033	-1.998642	-2.028011
H	1.449701	-0.758081	-2.116411
H	0.168981	-0.834979	-3.381957
C	-1.881994	-0.273411	-1.612711
N	-3.037342	-0.446901	-1.751571
N	-0.443866	-1.162731	0.761898
O	-0.67587	-2.224567	0.164805
O	-0.476454	-1.033857	1.988931
H	2.649466	0.0	0.0
