15

C	-0.46344	-0.066884	-1.438183
C	0.0	0.0	0.0
Br	0.252599	1.427782	-2.517267
H	1.088567	0.0	0.0
H	-0.285844	-0.915837	0.522164
C	0.125376	-1.351708	-2.023958
H	-0.091317	-1.424818	-3.091269
H	1.205946	-1.323839	-1.853205
H	-0.301805	-2.217318	-1.509473
C	-1.917252	-0.043621	-1.585864
N	-3.084155	-0.14725	-1.693626
N	-0.523364	1.105437	0.793891
O	-1.077981	2.055815	0.227988
O	-0.309013	1.042687	2.008545
H	2.623703	0.0	0.0
