15

C	-0.465361	-0.05983	-1.438392
C	0.0	0.0	0.0
Br	0.286533	1.411747	-2.525148
H	1.088567	0.0	0.0
H	-0.291863	-0.916609	0.517742
C	0.091776	-1.36099	-2.018588
H	-0.124667	-1.433142	-3.085667
H	1.172065	-1.361126	-1.845257
H	-0.358464	-2.213651	-1.501707
C	-1.917498	0.001495	-1.585572
N	-3.086558	-0.056655	-1.699203
N	-0.522215	1.102477	0.797853
O	-0.370738	1.004446	2.019326
O	-1.010038	2.085417	0.231422
H	2.614356	0.0	0.0
