15

C	-0.504931	0.034051	-1.433306
C	0.0	0.0	0.0
Br	-0.022182	-1.735791	-2.19407
H	1.088727	0.0	0.0
H	-0.33988	-0.893473	0.520581
C	-2.017481	0.183762	-1.56434
H	-2.303779	1.163847	-1.179732
H	-2.510978	-0.598583	-0.984553
H	-2.324119	0.102195	-2.609286
C	0.164718	1.027544	-2.277725
N	0.593342	1.811264	-3.042753
N	-0.418506	1.145957	0.75966
O	-0.472096	1.021525	1.995048
O	-0.565674	2.230319	0.162042
H	2.508339	0.0	0.0
