15

C	-0.540749	0.004978	-1.417753
C	0.0	0.0	0.0
Br	0.490015	-1.182453	-2.635115
H	1.088215	0.0	0.0
H	-0.293779	0.910281	0.523971
C	-2.014623	-0.378466	-1.548856
H	-2.342035	-0.280161	-2.58572
H	-2.143127	-1.408061	-1.223344
H	-2.613021	0.284585	-0.916631
C	-0.352707	1.355564	-1.952629
N	-0.290195	2.450039	-2.378241
N	-0.42951	-1.111755	0.804147
O	-0.508728	-0.920924	2.03066
O	-0.538697	-2.230281	0.269351
H	2.482757	0.0	0.0
