15

C	-0.50828	0.072363	-1.431011
C	0.0	0.0	0.0
Br	-0.030275	-1.677747	-2.23942
H	1.088736	0.0	0.0
H	-0.338755	-0.908188	0.495942
C	-2.020775	0.228507	-1.553018
H	-2.30282	1.199348	-1.142523
H	-2.51431	-0.567304	-0.991673
H	-2.331265	0.174387	-2.598676
C	0.160676	1.084921	-2.252048
N	0.585921	1.906102	-2.97774
N	-0.417334	1.123973	0.79332
O	-0.558159	2.226609	0.227831
O	-0.468078	0.964143	2.023912
H	2.509492	0.0	0.0
