15

C	-0.408727	0.024446	-1.443135
C	0.0	0.0	0.0
Br	-2.407263	0.147811	-1.63825
H	1.09373	0.0	0.0
H	-0.327203	0.904824	0.510541
C	0.219928	1.264713	-2.069558
H	-0.164406	2.161888	-1.578628
H	0.00674	1.316993	-3.137901
H	1.301333	1.190403	-1.892458
C	-0.011546	-1.15108	-2.217408
N	0.308945	-2.003269	-2.961803
N	-0.478978	-1.128999	0.776811
O	-0.627425	-2.216902	0.208848
O	-0.623834	-0.948156	1.992137
H	2.579984	0.0	0.0
