15

C	-0.47095	-0.00791	-1.446348
C	0.0	0.0	0.0
Br	-2.401638	-0.267458	-1.598542
H	1.095777	0.0	0.0
C	-0.125241	1.262274	-2.076182
N	0.158238	2.285148	-2.584273
N	0.300158	-1.120604	-2.262218
O	1.51091	-0.944463	-2.268518
O	-0.335159	-1.889061	-2.955705
N	-0.329897	-1.268841	0.695373
O	-0.873014	-1.213222	1.800495
O	-0.265503	-2.288704	-0.008218
C	-0.520724	1.13999	0.709091
N	-0.929037	2.097337	1.259088
Cl	2.841377	0.0	0.0
