15

C	-0.468971	-0.001936	-1.448185
C	0.0	0.0	0.0
Br	0.125529	1.614852	-2.323183
H	1.092808	0.0	0.0
C	0.05927	-1.156963	-2.158666
N	0.529261	-2.079514	-2.717729
N	-2.021277	-0.02703	-1.555243
O	-2.595983	0.961353	-1.133305
O	-2.515461	-1.098945	-1.88337
N	-0.437352	-1.312593	0.620394
O	-1.620442	-1.407612	0.947822
O	0.436683	-2.155212	0.781144
C	-0.50748	1.104816	0.77993
N	-0.841508	1.999253	1.469639
Cl	2.674076	0.0	0.0
