13

C	-0.52291	-0.008641	-1.441483
C	0.0	0.0	0.0
F	-0.120593	-1.179714	-2.036314
H	1.091426	0.0	0.0
H	-1.614946	0.019728	-1.446922
C	-0.016525	1.145043	-2.200018
N	0.30325	2.084194	-2.82877
C	-0.537832	-1.143455	0.722442
N	-0.965762	-2.072336	1.300222
N	-0.517503	1.256145	0.65855
O	-1.737351	1.429138	0.59419
O	0.290638	2.00263	1.191875
Br	3.3446	0.0	0.0
