13

C	-0.506633	-0.010711	-1.449984
C	0.0	0.0	0.0
F	-0.11293	-1.180858	-2.051879
H	1.091327	0.0	0.0
H	-1.596319	0.029494	-1.45793
C	0.00633	1.145878	-2.200875
N	0.332921	2.091103	-2.816888
C	-0.55722	-1.126671	0.733086
N	-0.991059	-2.048585	1.319097
N	-0.514885	1.278729	0.614426
O	-1.725603	1.483202	0.484023
O	0.283051	2.018707	1.174156
Br	3.304277	0.0	0.0
