13

C	-0.439385	0.020198	-1.451792
C	0.0	0.0	0.0
F	-1.815793	0.1798	-1.538738
H	1.094665	0.0	0.0
H	0.03458	0.872282	-1.940862
C	-0.07627	-1.229731	-2.129309
N	0.153824	-2.24453	-2.6719
C	-0.556803	-1.11508	0.744773
N	-0.985828	-2.047655	1.315289
N	-0.38935	1.305979	0.639995
O	-0.279831	2.306463	-0.060936
O	-0.724187	1.285075	1.818309
Br	3.265595	0.0	0.0
