13

C	-0.432217	0.035724	-1.45398
C	0.0	0.0	0.0
F	-1.805994	0.203642	-1.547437
H	1.094684	0.0	0.0
H	0.050062	0.889697	-1.931477
C	-0.068312	-1.209293	-2.140937
N	0.168493	-2.220301	-2.688462
C	-0.558577	-1.124236	0.729775
N	-0.988435	-2.063502	1.288525
N	-0.396881	1.299052	0.647109
O	-0.250215	2.307498	-0.035552
O	-0.780485	1.266202	1.811553
Br	3.265985	0.0	0.0
