13

C	-0.43775	0.031069	-1.4521
C	0.0	0.0	0.0
F	-1.813602	0.195303	-1.539395
H	1.094664	0.0	0.0
H	0.039247	0.884548	-1.935586
C	-0.077932	-1.216266	-2.135794
N	0.149581	-2.229884	-2.681485
C	-0.560176	-1.118913	0.736501
N	-0.993002	-2.053417	1.301026
N	-0.387116	1.302738	0.647681
O	-0.270717	2.307318	-0.046179
O	-0.727147	1.274927	1.824261
Br	3.265467	0.0	0.0
