13

C	-0.527194	-0.04162	-1.439646
C	0.0	0.0	0.0
F	-0.089603	-1.209805	-2.020542
H	1.091313	0.0	0.0
H	-1.618172	-0.045368	-1.448466
C	-0.060977	1.115749	-2.217566
N	0.230271	2.052065	-2.862117
C	-0.52095	-1.133759	0.750885
N	-0.946041	-2.052694	1.346341
N	-0.496841	1.263948	0.654455
O	-1.591438	1.68584	0.272056
O	0.203312	1.757353	1.525454
Br	3.340205	0.0	0.0
