13

C	-0.431374	0.040384	-1.453246
C	0.0	0.0	0.0
F	-1.80556	0.197912	-1.545057
H	1.093275	0.0	0.0
H	0.045966	0.897949	-1.929015
C	-0.059556	-1.195656	-2.154175
N	0.168623	-2.144174	-2.806185
C	-0.563422	-1.124362	0.724948
N	-1.02453	-2.055862	1.271244
N	-0.387181	1.296688	0.658997
O	-0.294326	2.307407	-0.03115
O	-0.701979	1.258809	1.842855
Br	3.264174	0.0	0.0
