13

C	-0.538385	-0.022536	-1.437103
C	0.0	0.0	0.0
F	-0.319802	-1.285596	-1.946045
H	1.091241	0.0	0.0
H	-1.615975	0.158228	-1.440494
C	0.103542	0.961878	-2.31782
N	0.537149	1.717548	-3.103597
C	-0.504563	-1.14387	0.744377
N	-0.944736	-2.069265	1.31821
N	-0.431316	1.252852	0.697047
O	-0.229287	1.317991	1.902378
O	-0.925168	2.138621	-0.00396
Br	3.27524	0.0	0.0
