13

C	-0.528563	-0.006165	-1.439372
C	0.0	0.0	0.0
F	-0.124514	-1.171427	-2.046659
H	1.091248	0.0	0.0
H	-1.620771	0.016311	-1.436518
C	-0.036612	1.155132	-2.195743
N	0.271886	2.097506	-2.823164
C	-0.532884	-1.148663	0.718729
N	-0.968095	-2.078307	1.289398
N	-0.520359	1.254288	0.659611
O	-1.737678	1.435449	0.576022
O	0.284636	1.995155	1.204762
Br	3.342115	0.0	0.0
