15

C	-0.390049	-0.002249	-1.470175
C	0.0	0.0	0.0
Br	-2.331943	0.240502	-1.724286
H	1.096413	0.0	0.0
H	0.069296	0.853346	-1.963783
C	-0.00229	-1.239471	-2.131067
N	0.29165	-2.234337	-2.682878
C	-0.534326	-1.145996	0.821312
H	-0.197052	-2.081401	0.370528
H	-0.121748	-1.088108	1.82731
H	-1.624036	-1.137858	0.882296
N	-0.395473	1.327049	0.571483
O	-0.130718	2.32118	-0.09938
O	-0.928251	1.348241	1.679084
Br	3.37386	0.0	0.0
