15

C	-0.553175	0.048384	-1.433983
C	0.0	0.0	0.0
Br	-0.431317	-1.697366	-2.32621
H	1.093652	0.0	0.0
H	-1.623055	0.26492	-1.40457
C	0.082299	1.013415	-2.323575
N	0.526393	1.755602	-3.119286
C	-0.483898	-1.179436	0.81926
H	-0.166131	-1.039414	1.850378
H	-1.574875	-1.282917	0.789211
H	-0.020516	-2.090903	0.443958
N	-0.424127	1.286779	0.662191
O	-0.661251	2.256336	-0.058781
O	-0.494861	1.304525	1.885584
Br	3.369694	0.0	0.0
