15

C	-0.401473	0.010399	-1.466223
C	0.0	0.0	0.0
Br	-2.345737	0.251155	-1.710316
H	1.09582	0.0	0.0
H	0.056239	0.867496	-1.958957
C	-0.02578	-1.22606	-2.134615
N	0.237876	-2.238132	-2.669639
C	-0.526902	-1.151431	0.819999
H	-0.103792	-1.10329	1.821793
H	-1.616041	-1.138745	0.892116
H	-0.200252	-2.086016	0.359653
N	-0.377437	1.326221	0.586145
O	-0.792201	1.350393	1.743753
O	-0.203862	2.319461	-0.117714
Br	3.368393	0.0	0.0
