15

C	-0.45865	-0.017606	-1.449645
C	0.0	0.0	0.0
Br	0.177711	1.507977	-2.48416
H	1.092199	0.0	0.0
H	0.045308	-0.873928	-1.905832
C	-1.898508	-0.17452	-1.628227
N	-3.046972	-0.379308	-1.771596
C	-0.469846	-1.238041	0.752662
H	-0.104623	-2.131003	0.240711
H	-0.031155	-1.221547	1.750224
H	-1.560203	-1.282542	0.82732
N	-0.497907	1.196333	0.739833
O	-0.021302	1.3812	1.855406
O	-1.378165	1.886221	0.22235
Br	3.426916	0.0	0.0
