15

C	-0.391991	-0.000187	-1.469197
C	0.0	0.0	0.0
Br	-2.332733	0.249451	-1.729727
H	1.094822	0.0	0.0
H	0.075366	0.849689	-1.965601
C	-0.017505	-1.243695	-2.125743
N	0.244265	-2.252769	-2.667806
C	-0.532209	-1.145726	0.823889
H	-1.622528	-1.14063	0.876568
H	-0.190118	-2.082621	0.379621
H	-0.127821	-1.083283	1.832631
N	-0.381496	1.330823	0.572134
O	-0.18702	2.318956	-0.133071
O	-0.824954	1.363977	1.718694
Br	3.369257	0.0	0.0
