17

C	0.0	0.0	0.0
C	-0.508885	0.01546	-1.470751
Cl	1.789693	0.0	0.0
H	-1.603561	-0.105184	-1.385153
N	-0.485352	1.145781	0.712769
H	-0.258648	2.003349	0.220713
H	-1.503757	1.048275	0.7643
C	-0.446428	-1.259004	0.726426
H	-0.132578	-1.156553	1.766068
H	-1.533447	-1.332616	0.676006
H	0.00709	-2.149902	0.297042
N	0.012979	-1.125068	-2.295938
O	-0.512258	-2.218321	-2.101358
O	0.93016	-0.902696	-3.084909
C	-0.185112	1.271599	-2.13495
N	0.011552	2.308857	-2.64979
Cl	-3.589148	0.0	0.0
