17

C	0.0	0.0	0.0
C	-0.525298	-0.028778	-1.453765
Cl	1.829749	0.0	0.0
H	-1.618646	-0.157244	-1.33587
N	-0.504019	1.19637	0.549588
H	-0.000222	2.030669	0.292437
H	-0.755026	1.151087	1.522312
C	-0.471761	-1.197517	0.80171
H	-0.070915	-2.126021	0.402066
H	-0.122769	-1.078963	1.830814
H	-1.565465	-1.207881	0.771992
N	0.016063	-1.182281	-2.24794
O	0.87777	-0.956265	-3.095329
O	-0.441756	-2.288035	-1.973346
C	-0.228021	1.216922	-2.149597
N	-0.038371	2.239523	-2.694716
Cl	-3.711839	0.0	0.0
