17

C	0.0	0.0	0.0
C	-0.525937	-0.088223	-1.448196
Cl	1.78374	0.0	0.0
H	-1.624925	-0.148054	-1.355651
N	-0.485028	1.27272	0.476868
H	-1.508912	1.200623	0.479299
H	-0.182794	1.391265	1.438391
C	-0.435641	-1.198849	0.837359
H	-0.11364	-1.020949	1.866903
H	-1.523897	-1.267034	0.802745
H	0.010086	-2.1312	0.491732
N	-0.074125	-1.348561	-2.133039
O	-0.705203	-2.366987	-1.862573
O	0.889877	-1.284678	-2.893202
C	-0.130778	1.061178	-2.251327
N	0.154536	1.975349	-2.93066
Cl	-3.591433	0.0	0.0
