17

C	0.0	0.0	0.0
C	-0.18796	0.117181	-1.579703
Cl	1.805584	0.0	0.0
H	0.495873	0.904668	-1.900502
N	-0.528388	1.089718	0.734007
H	-1.542479	0.941246	0.802638
H	-0.378921	1.967335	0.24975
C	-0.505727	-1.310729	0.556129
H	-1.592952	-1.333085	0.436568
H	-0.259386	-1.344819	1.618684
H	-0.048231	-2.161144	0.051299
N	-1.511733	0.629637	-2.111519
O	-2.20656	-0.121591	-2.777005
O	-1.702806	1.823044	-1.902264
C	0.166749	-1.114388	-2.274594
N	0.497782	-2.097069	-2.826426
Cl	-3.691411	0.0	0.0
