17

C	0.0	0.0	0.0
C	-0.332911	0.118954	-1.530153
Cl	1.797346	0.0	0.0
H	0.509287	-0.314365	-2.069643
N	-0.518702	1.137702	0.693116
H	-0.314364	1.034975	1.68208
H	-1.542344	1.087862	0.58335
C	-0.443163	-1.364217	0.509088
H	-0.08716	-1.490117	1.535255
H	-1.53584	-1.384247	0.493349
H	-0.037596	-2.174999	-0.101986
N	-0.315657	1.572873	-1.944927
O	-1.377584	2.176943	-1.976903
O	0.79243	2.032935	-2.209374
C	-1.514765	-0.545675	-2.08085
N	-2.170028	-1.196599	-2.80973
Cl	-3.571823	0.0	0.0
