17

C	0.0	0.0	0.0
C	-0.226099	0.032845	-1.547787
Cl	1.853565	0.0	0.0
H	0.255568	-0.853855	-1.966713
N	-0.522027	1.053386	0.775011
H	-0.415976	1.941109	0.301217
H	-1.525168	0.866765	0.889393
C	-0.444225	-1.342644	0.540437
H	-0.127028	-1.412228	1.582822
H	-1.533551	-1.397415	0.484113
H	0.009043	-2.160397	-0.023645
N	0.529621	1.183026	-2.187112
O	1.298849	0.90378	-3.099254
O	0.296209	2.310513	-1.763949
C	-1.561952	0.136536	-2.141582
N	-2.350315	0.2387	-3.008947
Cl	-3.573474	0.0	0.0
