17
Coordinates from ORCA-job run
  C   -0.88086667122825     -0.06705866959692     -0.20299691618908
  C   0.60257565619091      0.18598322919609     -0.47635982331422
  Br  -1.75137978921337     -0.44376807008761     -1.90889879905373
  H   0.69714543580386      0.89837541218519     -1.29315410816839
  N   -1.14248931522018     -1.11536221987506      0.68852007930868
  H   -0.72012329760494     -0.90351069302272      1.58598946407326
  H   -2.13795597389914     -1.25769694980674      0.80344522623320
  N   -1.51876325542406      1.29431006299260      0.23366673025699
  O   -2.46325823732134      1.22059217210076      1.00666897956673
  O   -1.03720315873885      2.31343821272696     -0.24465429621817
  C   1.39197065385617     -1.08498984663363     -0.73709887855222
  H   1.36346964078942     -1.74068441709930      0.13280311537719
  H   2.42539259912241     -0.82427420223344     -0.97047925527303
  H   0.96229229417441     -1.61919823332731     -1.58407968288758
  N   1.23451345149403      0.88622426648240      0.69762386745086
  O   0.75705635685998      0.68701034402737      1.81584814109785
  O   2.21962361035893      1.56960960197136      0.45315615629167
