17
Coordinates from ORCA-job run
  C   -0.86532474770268     -0.00034086426921     -0.11049039762354
  C   0.60669983959354      0.20889071882691     -0.43996474053082
  Br  -1.75633136832040     -0.44170239108014     -1.89100333300662
  H   0.69121812431537      0.87693109195420     -1.29616732137514
  N   -1.10851075785110     -0.92299107781473      0.89398950926071
  H   -0.87428514113714     -1.86855881168266      0.62763862652965
  H   -2.05283811110344     -0.85665444517694      1.25224250631200
  N   -1.53531458185118      1.32579759350001      0.24946133935954
  O   -2.48251193502912      1.26873007919649      1.02043625252867
  O   -1.09562026231528      2.32143217267108     -0.30408133087833
  C   1.35713014890641     -1.09254473038382     -0.66922722895467
  H   1.40868057606479     -1.67143731539019      0.25529456296948
  H   2.37390523175077     -0.86978149920770     -0.98787948502050
  H   0.86812056045862     -1.68119996662730     -1.44555914142177
  N   1.30451022979098      0.95193173612279      0.68310851021326
  O   2.48563728400055      1.20646570889867      0.47155969366853
  O   0.67383491042931      1.24403200046253      1.69264197796956
