17
Coordinates from ORCA-job run
  C   -0.80655108723164      0.29554642425177      0.05189048087664
  C   0.56082107385954     -0.40228489102759     -0.02978083015188
  Br  -0.63116243898204      2.27660088465022      0.28892504996323
  H   0.38823011133413     -1.43397154572852      0.27922067356395
  N   -1.66430153610633     -0.09782617745781     -0.98281811345104
  H   -2.61556161457791      0.19095463564104     -0.78819184538302
  H   -1.35421989199473      0.26777646647975     -1.87382071740372
  N   -1.49468480535839     -0.13906771904727      1.35734259290423
  O   -2.70603243458884      0.01949808315757      1.40330500462447
  O   -0.78750663666805     -0.59143443739895      2.24880992577404
  C   1.72465549323494      0.20352427828649      0.73355790784469
  H   2.57148784260706     -0.48347779106796      0.67766635372821
  H   2.00998249070141      1.16189410345913      0.30115853177529
  H   1.45390386405684      0.34441363417623      1.77747382775037
  N   0.98773372161518     -0.51438036304250     -1.46595365810415
  O   1.55507705781695     -1.55538882041667     -1.77987102615160
  O   0.80812879028189      0.45662323508507     -2.19991415815973
