17
Coordinates from ORCA-job run
  C   -0.81746335164351      0.22254125638456      0.08199730132302
  C   0.60015912902008     -0.25601982210003     -0.27936727474160
  Br  -0.67189603110088      1.90934540063847      1.13617349760809
  H   0.46813521220078     -1.13900101065335     -0.90883507275002
  N   -1.68299941424000      0.28900546357741     -1.01506961471216
  H   -2.56847248573077      0.71897212112062     -0.77970892420909
  H   -1.25497983320925      0.71221961651990     -1.82772406974910
  N   -1.49608910013630     -0.80961789282401      1.00932118814165
  O   -2.50564659941168     -0.43910857009915      1.58710483984202
  O   -1.04461554000275     -1.94831408890100      0.98347869792880
  C   1.53777391013122     -0.53037400764692      0.87694301313536
  H   1.68675359986015      0.35739880418765      1.48686633420383
  H   2.50708225729587     -0.83728111360356      0.48246978123290
  H   1.14404551743838     -1.33997440274180      1.48641632481597
  N   1.21508336374321      0.77893030836375     -1.20153675549074
  O   2.17060104492155      1.42756734661419     -0.79579883512703
  O   0.71252832086389      0.88271059116327     -2.32273043145191
