17
Coordinates from ORCA-job run
  C   -0.84790104564899      0.03368088305385     -0.20219739704051
  C   0.65983030761452      0.14246426892948     -0.38741574863295
  Br  -1.57529005521045     -0.50510433790529     -2.02983681289044
  H   0.87009431795833      0.73365220203888     -1.27776385831887
  N   -1.24606103504493     -0.79159094137904      0.83669542471493
  H   -2.21665159369959     -0.64988898006083      1.08637357214670
  H   -1.04011194407970     -1.76605513018315      0.66980334451919
  N   -1.47362743639949      1.41601327923141     -0.01679699017300
  O   -2.49678701085266      1.46849465353780      0.65049637777090
  O   -0.92250369634123      2.34084787762234     -0.59292672402351
  C   1.35343409537793     -1.20880186417587     -0.43563786204902
  H   1.27607680898448     -1.71210599610955      0.53038607850147
  H   2.40870472017681     -1.06313315494812     -0.65980022228425
  H   0.91364635731171     -1.83404627498161     -1.21284898985602
  N   1.28028584140137      0.93881287901101      0.74450444598244
  O   0.56763761969946      1.34027264631340      1.65725557972276
  O   2.48922374875243      1.11848799000528      0.64070978191019
