17
Coordinates from ORCA-job run
  C   -0.95244063658981      0.26613492692397     -0.24091853381164
  C   0.53941412644696      0.00028151461337     -0.54712915446583
  Br  -1.58047698356370      1.65373172569995     -1.43344085989305
  H   0.57804488375048     -0.26679093540605     -1.60517645906674
  N   -1.80810311134989     -0.86840987953760     -0.38588010900031
  H   -1.82858503103300     -1.19615934195906     -1.34218954864818
  H   -1.54339823537393     -1.60587308874471      0.25471919797636
  N   -1.12463191667684      0.71038859298355      1.22242388428861
  O   -1.36603474153541      1.87228691806062      1.49145787688933
  O   -0.98859944226514     -0.21659682211788      2.01808623708443
  C   1.22126954138524     -1.06046655656415      0.30152051303848
  H   0.69250541819471     -2.01114409641656      0.22872400959175
  H   2.23336637938406     -1.21016997892295     -0.08153930397672
  H   1.27509813416922     -0.76074484731509      1.34553995384291
  N   1.34523928744449      1.25951695338926     -0.44146508051047
  O   1.39675826607013      1.77897766252118      0.67142831101366
  O   1.91257406154243      1.65403725279216     -1.45616093435257
