17
Coordinates from ORCA-job run
  C   -0.87964753234520     -0.02181059071372     -0.21838695052098
  C   0.61718085760028      0.18184588368168     -0.45835258807536
  Br  -1.73651321818549     -0.28728560034699     -1.95168215173705
  H   0.75339146088854      0.92506234968252     -1.24111995445770
  N   -1.19779543518377     -1.09681881236044      0.62169709120081
  H   -2.19995391770117     -1.20351307603653      0.71519415030737
  H   -0.78290958924127     -0.94136522033638      1.53408033589843
  N   -1.46912062197402      1.34392924742105      0.26929818648607
  O   -0.94006164875115      2.36225134280348     -0.15772510007276
  O   -2.42753723258570      1.27524038978054      1.02533222908963
  C   1.35884450342565     -1.10755555688243     -0.76448001662747
  H   0.92476158101862     -1.58320812293673     -1.64350305295234
  H   2.40644588806018     -0.87935256066301     -0.96667016249600
  H   1.28619689936880     -1.80117253768866      0.07280405277226
  N   1.25745310300017      0.80346137370434      0.75465706742895
  O   2.27389812411035      1.45475473410261      0.55513258730234
  O   0.75336677849518      0.57653675678867      1.85572427645383
