17
Coordinates from ORCA-job run
  C   -0.89670293653837      0.16900954969491     -0.36646117871913
  C   0.62177299516291      0.02361788568292     -0.57208591114440
  Br  -1.63626196450846      1.43541915613126     -1.62319612739540
  H   0.75944550125308     -0.15367965927028     -1.63884501772575
  N   -1.51071964613847     -1.09443940752791     -0.56216592153522
  H   -1.33895531857890     -1.68189379954741      0.24673422122987
  H   -2.51033616610759     -0.99225431233771     -0.68876392640299
  N   -1.15157592972864      0.71996262089075      1.08082419461738
  O   -1.25502942268713      1.92065908476727      1.26329159851356
  O   -1.18486271336221     -0.15893654329866      1.93996036674006
  C   1.26858429609652     -1.07201006464805      0.25712617344818
  H   0.87346177951225     -2.04266667833927     -0.04289525727285
  H   1.11083251136639     -0.91656904610447      1.32250997111311
  H   2.34272703800512     -1.07432139374689      0.06179105995451
  N   1.32253738367487      1.32243217421503     -0.29547494108278
  O   1.66806784942072      1.99020755372676     -1.26685069703484
  O   1.51601474315790      1.60546287971174      0.88550139269668
