17
Coordinates from ORCA-job run
  C   -0.92398268291025      0.22893670122807     -0.36232568274129
  C   0.59458660594201     -0.03486932614660     -0.48501864612538
  Br  -1.43195429443771      1.50358940697672     -1.72552627675586
  H   0.74868528794692     -0.38720001455684     -1.50697061650507
  N   -1.74841425620219     -0.92906175199299     -0.50334317138952
  H   -1.55051879708028     -1.60458642769395      0.22391592394372
  H   -1.65759053268929     -1.33723832346644     -1.42402345314719
  N   -1.25626563217377      0.78707987476539      1.03244409368973
  O   -1.53699624388963      1.96233041090456      1.17656970835689
  O   -1.19664346819133     -0.06870595843408      1.91278105503353
  C   1.19080413090202     -1.00927504296366      0.51756768024139
  H   1.13118736271789     -0.62229917873273      1.53220194999402
  H   0.68013642151518     -1.97143926560644      0.47119684417167
  H   2.23908321784533     -1.17351285360313      0.25753191249115
  N   1.37408773612463      1.24272026559287     -0.40080681940465
  O   1.29997038824457      1.85531766933933      0.66223667401433
  O   2.04582475633590      1.55921381438991     -1.37843117586746
