17
Coordinates from ORCA-job run
  C   -0.85774823258700      0.19578450795901     -0.10659032477586
  C   0.62395201248057     -0.21365180212923     -0.06667708492331
  Br  -1.15121256671942      2.08228684914837     -0.37879588009051
  H   0.63481012040089     -1.26661458411064      0.22744570406254
  N   -1.54702680926191     -0.52676667518291     -1.09161446826816
  H   -2.53096126234796     -0.29670748452035     -1.12960630987536
  H   -1.40841860853743     -1.52530453547980     -0.99729919182990
  N   -1.34613848580675     -0.16097535214564      1.35693854830337
  O   -1.58110805059668     -1.35798985209972      1.50361767714324
  O   -1.40780556643435      0.70294321936427      2.21754704347140
  C   1.52247932543969      0.61827016256177      0.82038626218653
  H   2.52978428100591      0.19749770023379      0.80953185128305
  H   1.56790246374367      1.64551877202039      0.46503182083651
  H   1.15796598471632      0.61196954033563      1.84823944703796
  N   1.13865405389458     -0.22755636364786     -1.47828047175378
  O   1.51713551144552      0.83753373032928     -1.95370312365212
  O   1.13573582916434     -1.31723783263635     -2.04717149915560
