17
Coordinates from ORCA-job run
  C   -0.80929446155407      0.13992044601913      0.22274269784803
  C   0.59109997321552     -0.03625486780370     -0.39150764727540
  Br  -0.60519205096436      0.75811028909581      2.10857470910628
  H   0.42877069463952     -0.31151232651565     -1.43611129591758
  N   -1.67079169570558      0.91631714281372     -0.55936059773508
  H   -2.54120183165719      1.11934516116724     -0.08449496386145
  H   -1.22862224078252      1.74964822986432     -0.92353083642095
  N   -1.52544323875352     -1.22627824659309      0.29261049267910
  O   -1.10957173831654     -2.10199373271256     -0.45673045977274
  O   -2.52681285513332     -1.27864330272749      0.98895279900074
  C   1.51973420484951     -1.00780574082166      0.30492760426964
  H   1.70480592293137     -0.71101314850761      1.33440761104275
  H   1.09658382285272     -2.00875783767157      0.27549093687502
  H   2.47516647983017     -1.02336611459185     -0.22080117472571
  N   1.24106961274151      1.33256871100940     -0.45748609997995
  O   2.21727310149321      1.54949306081085      0.24852526197641
  O   0.74342630031358      2.13922227716470     -1.24620903710913
