17
Coordinates from ORCA-job run
  C   -0.81107073601471      0.45194034438279      0.05078784703928
  C   0.46440833645259     -0.39863242025707     -0.20261882462664
  Br  -0.48508638111811      2.30317332774243     -0.37124336250177
  H   0.14882623385209     -1.44031580694981     -0.09841964832147
  N   -2.02629517221739      0.04728769242244     -0.57247172711185
  H   -2.19215003058379     -0.93561622364612     -0.38492106631073
  H   -1.97043574123965      0.18689007800549     -1.57312191759942
  N   -1.05123967386621      0.27545607878393      1.56227414123708
  O   -1.40046328979434     -0.86701387550941      1.85251833907785
  O   -0.85308209218853      1.19538304928699      2.33656100369536
  C   1.64074209990510     -0.08709152264444      0.69489890199297
  H   1.91229161688345      0.96595075466254      0.64598186475764
  H   1.39837775643076     -0.35140936082682      1.72542331965214
  H   2.50353088284541     -0.67951701940537      0.38894538673502
  N   0.82734058724760     -0.25640700699545     -1.65367460978900
  O   0.04710670749707     -0.76926372872852     -2.45720922056325
  O   1.84719889590866      0.36018563967641     -1.94271042736322
