17
Coordinates from ORCA-job run
  C   -0.90038159860242      0.16852755505467     -0.21835214891774
  C   0.59362510701005     -0.01869259330518     -0.52271619806330
  Br  -1.58820924707174      1.60292461426550     -1.40057241446913
  H   0.65686869279654     -0.30056770959413     -1.57642952708299
  N   -1.56009007734041     -1.06650663009931     -0.38678690598684
  H   -1.44333568875530     -1.41272376966047     -1.33101716432017
  H   -2.54929883677218     -0.99824835216543     -0.17875049976557
  N   -1.13808940421026      0.60257652905301      1.25100516226575
  O   -1.55256516251430      1.72384540047598      1.48742142252459
  O   -0.87987224169023     -0.27232862891502      2.06908671596063
  C   1.32361574897332     -1.02488256225471      0.35221451744391
  H   0.78839667203024     -1.97293083362570      0.35412401346132
  H   2.32598809490419     -1.17417836472803     -0.05612227178859
  H   1.40237792130857     -0.66667256019562      1.37620375816750
  N   1.31713389631341      1.28901410820811     -0.43727453374325
  O   1.25351835532856      1.87574031692404      0.63997959802325
  O   1.95031776829195      1.64610348056229     -1.42601352370938
