17
Coordinates from ORCA-job run
  C   -0.85360001135691      0.03060074517265     -0.08970044401599
  C   0.63474326544434      0.14509429281239     -0.42557921841561
  Br  -1.78954128817708     -0.83469919600819     -1.65752911094240
  H   0.74358846233139      0.91417716031202     -1.19075848889042
  N   -1.07340663394656     -0.56857393331698      1.14118635458374
  H   -0.69567986532433     -1.50315607663368      1.20609839042608
  H   -2.03685960644024     -0.52228966875457      1.44319944655812
  N   -1.50950645516398      1.42611551305129     -0.07650313037232
  O   -2.36186663037420      1.61123646418700      0.78179363709987
  O   -1.16269679207583      2.20650910564996     -0.94653000036776
  C   1.32748642515569     -1.14300105824304     -0.81833214235135
  H   1.16252920682589     -1.94006429376690     -0.09321845087072
  H   2.40218135527673     -0.96820929584284     -0.87203194943908
  H   0.97784668086377     -1.46720745667613     -1.79643758614440
  N   1.26875012763554      0.72640037636697      0.82252638938257
  O   1.97171715210444     -0.00830202843024      1.50757536154985
  O   0.99531460722136      1.89736935012028      1.06624094220982
