17
Coordinates from ORCA-job run
  C   -0.96207520163573      0.02031095985498     -0.15909348971339
  C   0.54142727765051      0.17713673277138     -0.49313415452724
  Br  -1.88429787380953     -0.43791409999326     -1.80340546954696
  H   0.64569376452692      0.90595045936694     -1.29641955311837
  N   -1.36292370168497     -0.88029792108883      0.85074844671891
  H   -0.82387885633935     -0.74883719079259      1.69811183103795
  H   -1.31890027014635     -1.83856872727602      0.53520021520843
  N   -1.40856195442384      1.44552323984809      0.25401101625088
  O   -1.66313808435319      1.60316860462103      1.44139066745615
  O   -1.37702967713311      2.30619470064057     -0.61408784075156
  C   1.24100081933895     -1.13230621632162     -0.79006066810149
  H   0.81136379079567     -1.59416734178622     -1.67873795327534
  H   2.30075041817690     -0.94772745267597     -0.97708284117255
  H   1.15470320266806     -1.81373227601177      0.05586143645449
  N   1.20477841137761      0.82009559188789      0.69615817061133
  O   1.63286906434370      1.96231626211878      0.55251676678346
  O   1.26821887064775      0.15185467483663      1.72902341968531
