17
Coordinates from ORCA-job run
  C   -0.87142068245071     -0.05529048299322     -0.24377833189439
  C   0.62481270016896      0.19085141962379     -0.44403895996196
  Br  -1.66669802107041     -0.38699949228784     -1.99526922016224
  H   0.76122563452083      0.91987625667870     -1.23997392485236
  N   -1.18145978941234     -1.12032120416405      0.61141953662685
  H   -0.79725385628304     -0.93297876991819      1.53115504148886
  H   -2.18215088654031     -1.25597443608217      0.67907270407919
  N   -1.51814238202137      1.30192733509887      0.19347184267904
  O   -2.49784103851978      1.21929929355802      0.92039761825190
  O   -1.00714759890846      2.32699652737163     -0.23948700463089
  C   1.41584989889546     -1.08045344087701     -0.69738097110534
  H   2.46119353018101     -0.82303239460823     -0.87468647784383
  H   1.34060714410627     -1.75689606798252      0.15360886299888
  H   1.02351997536026     -1.58989329996614     -1.57711823116357
  N   1.20808202689292      0.86037305534405      0.77226498364219
  O   2.20798051036120      1.54094809590748      0.58691046055792
  O   0.67984283471949      0.64056760529685      1.86343207128973
