17
Coordinates from ORCA-job run
  C   -0.84351214096114      0.04692453587201     -0.15524198068703
  C   0.66827444482865      0.15436491240880     -0.36768937570051
  Br  -1.66274290724597     -0.73534038595564     -1.82669283640668
  H   0.84552317723159      0.95492450417723     -1.08641462206268
  N   -1.16588357934188     -0.60254078600909      1.02750592133922
  H   -2.14958210615914     -0.55237775272146      1.25478894483002
  H   -0.81094844453069     -1.54723351250932      1.07388362507877
  N   -1.48221543092195      1.45012625549697     -0.12992244288316
  O   -2.39806428069651      1.60937227579859      0.66589524864442
  O   -1.05853901448523      2.26322767712435     -0.93342628263098
  C   1.37547025057580     -1.12498565468219     -0.76269530099876
  H   1.09902140715294     -1.40187578408330     -1.77807803869150
  H   1.14670324127426     -1.95017798860693     -0.08814453319402
  H   2.45291251420865     -0.96301046602104     -0.72637949186547
  N   1.20787188068626      0.67042091946533      0.95124454693751
  O   0.92746031010856      1.83277814841233      1.22637945728636
  O   1.84725067827581     -0.10359689816664      1.65498716100448
