17
Coordinates from ORCA-job run
  C   -0.90010538184999      0.16958246157901     -0.35753235429084
  C   0.61543388222638      0.01822952578389     -0.57940673156793
  Br  -1.65055631522632      1.43027930925242     -1.61323354582633
  H   0.73980663620153     -0.16668260749666     -1.64653951103820
  N   -1.51955781670210     -1.09354820813768     -0.53861078238579
  H   -1.33967655089865     -1.67647044754868      0.27181516401550
  H   -2.52035368006879     -0.98950318675692     -0.65390068685942
  N   -1.13765444454333      0.72980452974139      1.08913611581369
  O   -1.16404494013376     -0.14381939364046      1.95386465835774
  O   -1.23612845589599      1.93174884165519      1.26579195566181
  C   1.26858630768904     -1.07377026023432      0.24954935790892
  H   1.12093457349833     -0.91252075162836      1.31552043891149
  H   0.86913842375245     -2.04531388896695     -0.04179231915739
  H   2.34091499790808     -1.07874402809992      0.04467077465576
  N   1.32301739271309      1.31675784647093     -0.31964676311288
  O   1.52927876298410      1.60745960908808      0.85731945049686
  O   1.66096660834595      1.97651064893902     -1.29900522158299
