17
Coordinates from ORCA-job run
  C   -0.83848091632712      0.07819065018175     -0.16675492876448
  C   0.67892679647352      0.11717495114907     -0.36207507359336
  Br  -1.66832874132539     -0.71210469263165     -1.83005423775721
  H   0.89805451317697      0.89126708872742     -1.09794644481005
  N   -1.20290820466525     -0.52587558752308      1.02718554926009
  H   -2.18664188263356     -0.43046301273383      1.23915734325445
  H   -0.88518972217734     -1.48148576414235      1.10655436701254
  N   -1.41834221912367      1.50693161271624     -0.18578038532106
  O   -2.33875651837940      1.72373208417888      0.59106447826632
  O   -0.95033581848018      2.28144164054761     -1.00283900691662
  C   1.33614109439006     -1.19982628753920     -0.71782967403847
  H   2.41889747222676     -1.08434476120886     -0.66492274447429
  H   1.05992121363558     -2.00078411710482     -0.03186665571245
  H   1.06548222422912     -1.48562214497246     -1.73230945990586
  N   1.22393524604632      0.64171309289976      0.95103105776357
  O   1.81332474709905     -0.14410137752887      1.68478844953800
  O   0.99630071583454      1.82315662498438      1.19159736619887
