17
Coordinates from ORCA-job run
  C   -0.83651929186919      0.12852280099984      0.09050361734931
  C   0.61864731134081     -0.22755397177525     -0.26249788852131
  Br  -0.88310180659606      1.99161105534521      0.80137767119081
  H   0.58544337140836     -1.22605348761520     -0.70424725293403
  N   -1.74282264950754     -0.12805365827032     -0.94350531728602
  H   -1.40735585719868      0.17940536414343     -1.84657523432541
  H   -2.66957165653036      0.22271575222322     -0.73767045213654
  N   -1.33381669650426     -0.78217597836598      1.23478006423663
  O   -0.73001693123862     -1.83578852200379      1.39767477284435
  O   -2.36474053309224     -0.43989094917911      1.79182886922457
  C   1.62825408326675     -0.14798956456530      0.86256721855884
  H   2.61350439477202     -0.40737421566035      0.47339152833088
  H   1.36950649156062     -0.86073720739656      1.64165979280912
  H   1.68177904394612      0.85543652746050      1.27784358873651
  N   1.05104865238677      0.67603606357392     -1.40121748413675
  O   0.49911373045262      0.49152482507239     -2.48831474391063
  O   1.92164834340288      1.50936516601334     -1.18659875003034
