17
Coordinates from ORCA-job run
  C   -0.90306917301265      0.16465815348062     -0.35232334790198
  C   0.61326758620894      0.03073204172607     -0.58113880823705
  Br  -1.67048060994236      1.43036197743370     -1.59289316773964
  H   0.73560721538303     -0.14011072761225     -1.65084819927267
  N   -1.51066790362849     -1.10261021053342     -0.54417235426539
  H   -2.51284655165313     -1.00726048969318     -0.65479559439214
  H   -1.32179064102379     -1.69217596382027      0.25935935373455
  N   -1.14072630375297      0.70782425087711      1.10032816639483
  O   -1.24989277593852      1.90700060495194      1.28942456946487
  O   -1.15436324227030     -0.17430852869724      1.95667023493176
  C   1.27958509908028     -1.06522568121839      0.23197468410040
  H   2.35126051271114     -1.05707814210905      0.02383592207776
  H   1.13364442215606     -0.91918639042941      1.30036290305821
  H   0.88850692759279     -2.03657671177997     -0.07110788843465
  N   1.30903516787653      1.33275916239703     -0.30777536829928
  O   1.63519502231376      2.00896270896217     -1.27986581273535
  O   1.51773524789970      1.61023394606455      0.87196470751578
