17
Coordinates from ORCA-job run
  C   -0.80951926648714      0.27354290505923      0.23444115492221
  C   0.58189948624800     -0.10426874704221     -0.30068167001424
  Br  -0.77641224078018      1.40850333314925      1.79339492909057
  H   0.40879807641639     -0.84730229284494     -1.08373124494657
  N   -1.57894657481004      0.88419682588773     -0.76634466977001
  H   -2.50868610182409      1.12850384432717     -0.45298755027833
  H   -1.61053548808188      0.33126820141855     -1.61384446041399
  N   -1.39470855405270     -1.13120814722333      0.67365609300730
  O   -1.34502376038534     -1.48641033373043      1.84071368789870
  O   -1.82216105275944     -1.78669982798636     -0.27355733678756
  C   1.57750280772467     -0.60079131992503      0.72326763289655
  H   2.50031759649431     -0.89189131018158      0.21779717199289
  H   1.18383166991348     -1.47130181199093      1.24927335927894
  H   1.80533103257172      0.17922277288815      1.44663226488769
  N   1.13036870569613      1.08184274192930     -1.04252454560319
  O   1.69665599591224      1.94850008246151     -0.38530964241245
  O   0.96228766820386      1.08629308380392     -2.26019517374850
