17
Coordinates from ORCA-job run
  C   -0.88449142921687      0.28782721022890      0.01946637673685
  C   0.56098217431978     -0.23085873523251     -0.21789601081652
  Br  -0.88107651705204      2.19315585250268      0.30436060959567
  H   0.45257107809608     -1.27257612292293     -0.53203633460064
  N   -1.88237438737808     -0.02930147440648     -0.94616103700138
  H   -1.87668165798905     -1.02812020643447     -1.12269383375937
  H   -1.69831327788707      0.45945960345102     -1.81290689645400
  N   -1.31112566765409     -0.45062989293212      1.30236852412583
  O   -1.46410261976336     -1.65704060007775      1.12197337048257
  O   -1.41991313006039      0.14720052331291      2.35867774367799
  C   1.49727466649855     -0.10665444395410      0.96296971491348
  H   2.49947091309114     -0.42253630221114      0.67191664794448
  H   1.15950518331760     -0.75753488038221      1.77095696185180
  H   1.55127598716384      0.91900676420687      1.32373961868709
  N   1.10608743860396      0.47424195635209     -1.42780712148024
  O   0.57679568145803      0.18773575994383     -2.50259217883324
  O   2.01311556445196      1.28462498855543     -1.27233615507036
