17
Coordinates from ORCA-job run
  C   -0.79785578086754      0.41959135213792      0.22742030007309
  C   0.49112825036118     -0.22779632019539     -0.35033339624822
  Br  -0.36739174068521      2.00843805761878      1.22793862784917
  H   0.14750866975642     -1.01392081260065     -1.02816636005228
  N   -1.86331892998688      0.71769258111601     -0.66963642075961
  H   -1.60054765843375      1.47493452660559     -1.28722912807242
  H   -2.07743064301456     -0.10303979484525     -1.22581494428771
  N   -1.34770283122087     -0.67586216311265      1.16100139616861
  O   -1.76355727320728     -1.65420219286628      0.54353903488190
  O   -1.30320442618581     -0.54354543518089      2.37156219455537
  C   1.46051728845114     -0.77033040708405      0.67552190468134
  H   2.36075692696703     -1.12998038733692      0.17632662478157
  H   1.74891264974289     -0.00665637854794      1.39570724546804
  H   1.00731224608688     -1.61203042636484      1.20161351028299
  N   1.14809530026175      0.78380978070479     -1.24627400599659
  O   2.21329300174903      1.27544240234627     -0.88928420982337
  O   0.54448495022558      1.05645561760550     -2.28489237350187
