17
Coordinates from ORCA-job run
  C   -0.90363145785653      0.17354130424119     -0.34686823035831
  C   0.61075284434321      0.03232997282155     -0.58310083983658
  Br  -1.66756331346883      1.45727085995699     -1.57095628083269
  H   0.72825869296398     -0.12961861946231     -1.65471514571655
  N   -1.52044185047684     -1.08749508812694     -0.54944619260028
  H   -2.52234875157675     -0.98448145958564     -0.65551393915440
  H   -1.33271245032500     -1.68681948990272      0.24707127585645
  N   -1.13174771229939      0.70316380700158      1.11256849336515
  O   -1.23294868187423      1.90093816095530      1.31455059392096
  O   -1.14747577032495     -0.18807981551068      1.95943777673168
  C   1.27409142918826     -1.07431569599985      0.21795292016148
  H   1.13685485344095     -0.93404015530043      1.28825441307305
  H   2.34422927324489     -1.07308304465334      0.00178723613000
  H   0.87367028313597     -2.04089583469806     -0.08816339817631
  N   1.31596419415967      1.32773107177661     -0.30156770650777
  O   1.53085561334884      1.59470134111328      0.87946010924637
  O   1.64319280437675      2.00915268537347     -1.26975108530223
