17
Coordinates from ORCA-job run
  C   -0.88980795081586      0.13726742175376     -0.22662902101694
  C   0.62123587952116     -0.00650866722905     -0.49176271224181
  Br  -1.68591295681790      1.70569898375832     -1.15422183696526
  H   0.69286596512510     -0.44356320850500     -1.49013023203496
  N   -1.50133809366843     -1.08780291444548     -0.55130008150657
  H   -2.43790781314189     -1.14577791612737     -0.17089693285967
  H   -1.51571960798706     -1.23255108677982     -1.55259521191150
  N   -1.16239161615071      0.42243565743171      1.25226814863802
  O   -0.48592624462243      1.30134575800383      1.76395340221598
  O   -2.04469068943921     -0.23421250837278      1.79271153000810
  C   1.29601976543559     -0.89281557765113      0.53889024701985
  H   2.31317617694893     -1.11912223289212      0.21461372893106
  H   0.73897941882964     -1.82485052563773      0.63308317161780
  H   1.35215396903729     -0.39019157485754      1.50265912271728
  N   1.37368158365911      1.29140403257992     -0.63775879451226
  O   1.41137932877273      1.75805015569117     -1.77472370404839
  O   1.92420288531392      1.76219420327930      0.35183917594926
