17
Coordinates from ORCA-job run
  C   -0.95618896178243      0.26138758951426     -0.23335312247612
  C   0.53557833995080      0.00725494512604     -0.55023770341695
  Br  -1.60042168661899      1.65182079538259     -1.41359293681829
  H   0.56941981594058     -0.25402777137844     -1.60989298778692
  N   -1.80492521400473     -0.87821418173908     -0.38039584060283
  H   -1.53056900776779     -1.61818281923546      0.25324628729681
  H   -1.82908837388082     -1.19949032364218     -1.33883698064276
  N   -1.12267138787375      0.69486581313116      1.23372864190651
  O   -1.37231762055395      1.85300628930008      1.51142164782630
  O   -0.97373157118419     -0.23571834998678      2.02276496475563
  C   1.23034025473139     -1.05299711358037      0.28852659914821
  H   1.28947530134135     -0.75809032598934      1.33364674285799
  H   0.70744812338817     -2.00687342151437      0.21503521746927
  H   2.24076277256544     -1.19394951320365     -0.10220269459263
  N   1.33368076383735      1.27136918376149     -0.44301554190428
  O   1.89488738653440      1.67281463190396     -1.45838528299550
  O   1.38632106537717      1.78702457215009      0.67154298997555
