17
Coordinates from ORCA-job run
  C   -0.87045073583996     -0.02066427793632     -0.25246384827792
  C   0.63731344269206      0.15475333405123     -0.44051451295084
  Br  -1.66119293772950     -0.34847217315962     -2.00674115013210
  H   0.81483947297898      0.86277013138704     -1.24723160850291
  N   -1.23674449594673     -1.05505126690813      0.61792189203549
  H   -2.24308374898347     -1.14625458979671      0.67527481610133
  H   -0.85562597352393     -0.86740619806855      1.53889708525949
  N   -1.45991422063170      1.37184455487130      0.15345089243617
  O   -2.44900223136321      1.34656914791805      0.87184084866804
  O   -0.89986965105394      2.36484027129770     -0.29326295380533
  C   1.37312409689803     -1.15507432265875     -0.66211980031533
  H   2.43070180931838     -0.94816237454430     -0.83281565273602
  H   1.25909473307677     -1.81114635984604      0.20045231571072
  H   0.96704152029493     -1.66323776113575     -1.53634348187121
  N   1.23727552076335      0.81938530032490      0.77055749460370
  O   0.68702157776943      0.64451810552270      1.85897455269694
  O   2.26947182128052      1.44978847868123      0.58512311107978
