17
Coordinates from ORCA-job run
  C   -0.84825799657884      0.37944893962344      0.03257468620462
  C   0.49444425173016     -0.37456019907613     -0.17697824371964
  Br  -0.70710858430528      2.19841627378051     -0.58609120024056
  H   0.28000516013958     -1.42391221404248      0.04304469549568
  N   -2.03540954129226     -0.19604645554744     -0.50390624201446
  H   -2.10370840506164     -1.16537710825707     -0.21333154314476
  H   -2.01975023526741     -0.15493061164743     -1.51479179163598
  N   -1.03275528259269      0.34040604441207      1.56166782112258
  O   -0.90046492560217      1.34974279429899      2.23157240632537
  O   -1.26714302669121     -0.79246999591142      1.97770343447590
  C   1.65863517776445      0.13383083054459      0.64316321497299
  H   1.82772779215956      1.19679364684740      0.48006185288178
  H   1.46883773089946     -0.04444451477914      1.70276729626060
  H   2.56562696334265     -0.40500637025985      0.36753894510568
  N   0.80581416326367     -0.35198949317602     -1.64669759856515
  O   1.75603011499190      0.32076603670510     -2.03182004379720
  O   0.05647664310005     -1.01366760351513     -2.36647768972744
