17
Coordinates from ORCA-job run
  C   -0.80365420876777      0.22169818566718      0.21493519385372
  C   0.55489080464340     -0.26986191513380     -0.30970718903558
  Br  -0.64134126184493      1.13816538419602      1.98929225699549
  H   0.33186117768044     -1.08718167230351     -0.99667297128163
  N   -1.51785421453948      0.93914035682151     -0.75247516808804
  H   -2.48318226282478      1.05806230453504     -0.46930085051539
  H   -1.08517452545847      1.83517813956854     -0.93572499276663
  N   -1.66680957091061     -1.00664994432086      0.54965928084993
  O   -1.09260901131068     -2.07342769333777      0.72828459763623
  O   -2.87112693497075     -0.81057886525338      0.62614017461524
  C   1.60848787542418     -0.68605630647271      0.70114804672331
  H   1.19673788508462     -1.42093316557594      1.38902248224933
  H   1.96269901897773      0.17748386512080      1.26313986294715
  H   2.44631953675432     -1.13501205308935      0.16395203468333
  N   1.17651843828486      0.78449096206253     -1.18144035554850
  O   1.09580931742113      1.95744669801682     -0.81886423568622
  O   1.78842793635679      0.37803571949889     -2.16338816763175
