17
Coordinates from ORCA-job run
  C   -0.96169870949309      0.28053337253018     -0.18209239117165
  C   0.51171311800432      0.02177423720396     -0.57252870202080
  Br  -1.63811469040781      1.72115043201329     -1.28148437258921
  H   0.49637290253358     -0.19968520570219     -1.64166273102522
  N   -1.83045242092307     -0.84326136876966     -0.33392491722879
  H   -1.89893435076042     -1.12912193842703     -1.30142776317513
  H   -1.53889867312215     -1.60883493508025      0.26043860639850
  N   -1.05965136137017      0.66111680863129      1.30570556956465
  O   -0.88906953141703     -0.29977893602016      2.05295701067254
  O   -1.28229414021972      1.81081699091150      1.63628187446960
  C   1.22814702816708     -1.07704692341227      0.19541012705322
  H   1.33473327832464     -0.82283899698522      1.24743260770626
  H   0.69101712377704     -2.02182137458122      0.10816848561565
  H   2.21951532899517     -1.21376069080296     -0.24277291067678
  N   1.32998876073320      1.27171837895911     -0.45311920404667
  O   1.43600304276540      1.74489906872910      0.67641374200397
  O   1.85362329441301      1.70414108080256     -1.47579503155015
