17
Coordinates from ORCA-job run
  C   -0.90833846230448      0.20381354195349     -0.31733883383396
  C   0.59335509648894      0.02325459014134     -0.60156258120320
  Br  -1.67299909826860      1.52485855959891     -1.50045740566178
  H   0.67391475643495     -0.12796469004048     -1.67818785976479
  N   -1.56676105760160     -1.03635017911350     -0.51579413860272
  H   -1.36906807024661     -1.65228349207844      0.26550577173679
  H   -2.56846003384078     -0.90434672511798     -0.58575909909912
  N   -1.07657314429024      0.72084826817521      1.15586665561763
  O   -1.09334690622435     -0.18085696085578      1.99145594623359
  O   -1.13686056938145      1.91816406228586      1.37547566588904
  C   1.24841646143117     -1.11303910685454      0.16435399613782
  H   1.14245279537595     -0.98788003094335      1.24004000607861
  H   2.31230233398280     -1.13566722212214     -0.07963747978851
  H   0.81557997736528     -2.06372194157504     -0.14758062624596
  N   1.34363633894822      1.29392812353658     -0.32507944448046
  O   1.65993421217441      1.98003912490956     -1.29350165748452
  O   1.60281536995638      1.53720407810027      0.85220108447153
