17
Coordinates from ORCA-job run
  C   -0.89502733816389      0.14941533072384     -0.19556847360361
  C   0.60681279406115      0.00794692679128     -0.50939007729518
  Br  -1.70879747512158      1.75389502564921     -1.04388480408288
  H   0.64742215120512     -0.39338800845430     -1.52438174005410
  N   -1.52319083846987     -1.06020197423670     -0.54398394687352
  H   -2.44983035784966     -1.12582507598380     -0.14128764052691
  H   -1.56373057444919     -1.17305724736439     -1.54863079646182
  N   -1.12412710922150      0.38475988130207      1.29960768824159
  O   -2.00047477237364     -0.27998844257800      1.83985225123983
  O   -0.42304562009440      1.23642220764180      1.82412149313858
  C   1.30597962371695     -0.91856793711555      0.46831815508921
  H   2.31120901850336     -1.13891999262885      0.10497832023476
  H   1.39499040097064     -0.45161503779727      1.44738904651452
  H   0.74558428182155     -1.85013077117646      0.54562934250042
  N   1.36219000430985      1.30669090274546     -0.63056147031178
  O   1.94605407331548      1.73777043015269      0.35805305064558
  O   1.36798173783960      1.81479378232896     -1.75026039839469
