17
Coordinates from ORCA-job run
  C   -0.94142353555811      0.07741463266650     -0.24290158503081
  C   0.59205347773339      0.15130187132973     -0.44093471367694
  Br  -1.73687775470374     -0.30988391140264     -1.97030546314403
  H   0.80836049564360      0.88167169055099     -1.22009490375628
  N   -1.48116761610363     -0.81049154450555      0.71248070883049
  H   -1.01857617042762     -0.71323605772425      1.60839856862305
  H   -1.45103723943448     -1.76712042917005      0.38991414075171
  N   -1.34351354065490      1.52014073611846      0.15267637176703
  O   -1.18724919863630      2.38752203632106     -0.69487613312660
  O   -1.69460320633251      1.67794999520830      1.31510836282994
  C   1.24086328857262     -1.19252572073846     -0.69665778166101
  H   2.32248758597692     -1.06769932054932     -0.77830142113799
  H   1.03585434775269     -1.88067351337648      0.12294539695734
  H   0.87295272989521     -1.61496189597798     -1.63145008061519
  N   1.18204374875849      0.74172847137254      0.81288959951290
  O   1.11814820190814      0.05751380796843      1.83511034926742
  O   1.68168438561023      1.86034915190872      0.72699858360897
