17
Coordinates from ORCA-job run
  C   -0.89193005953782      0.11497524809221     -0.23067387562196
  C   0.62285699883804      0.00354951348578     -0.49028665367729
  Br  -1.72056448783737      1.65664913439359     -1.17513252209894
  H   0.70769228961776     -0.44131381104326     -1.48411513740289
  N   -1.47400557646041     -1.12658238312120     -0.54634406705374
  H   -2.40844552406622     -1.20535882866646     -0.16465041406866
  H   -1.48434008234004     -1.27994724355390     -1.54632898002907
  N   -1.17517516300364      0.40728463352881      1.24458567345436
  O   -2.03964595046327     -0.26815039727076      1.79069427776189
  O   -0.52352016414688      1.30920434594671      1.74838586886097
  C   1.31387748030348     -0.85837069937821      0.55045328702880
  H   1.35134321980085     -0.34874522701292      1.51144101443497
  H   0.78040702902076     -1.80383981662478      0.64669930158621
  H   2.33877415014355     -1.05968268350073      0.23413636075533
  N   1.34572398608178      1.31659122021169     -0.64493564264620
  O   1.88230639413334      1.80779401032569      0.34253407971404
  O   1.37664545991609      1.77494298418774     -1.78546257099779
