15

C	-0.140773	-0.113642	-1.501152
C	0.0	0.0	0.0
Cl	-1.833167	-0.628717	-2.057554
H	1.105342	0.0	0.0
H	-0.060527	0.891894	-1.922025
N	0.831295	-1.067326	-1.95753
H	1.012744	-0.938959	-2.944577
H	1.693721	-0.856286	-1.422789
N	-0.479129	-1.202156	0.701228
H	0.298087	-1.532121	1.266349
H	-0.654218	-1.930105	0.015665
N	-0.573476	1.230093	0.508477
H	0.005624	1.540434	1.279625
H	-1.482439	0.994907	0.8937
F	2.73333	0.0	0.0
