15

C	-0.67717	-0.099766	-1.350981
C	0.0	0.0	0.0
Cl	0.305676	0.817591	-2.619952
H	1.090173	0.0	0.0
H	-0.650463	-1.129172	-1.699229
N	-2.016804	0.388309	-1.274964
H	-1.93464	1.340904	-0.92352
H	-2.439339	0.414377	-2.195644
N	-0.420397	-1.154422	0.782775
H	-1.350572	-1.021632	1.164067
H	0.2472	-1.26915	1.535435
N	-0.335201	1.322843	0.591333
H	0.545155	1.690165	0.936804
H	-0.956187	1.200684	1.382366
F	2.665843	0.0	0.0
