15

C	-0.708333	-0.041619	-1.346691
C	0.0	0.0	0.0
Cl	-0.257731	-1.554093	-2.258988
H	1.09339	0.0	0.0
H	-1.788236	-0.185517	-1.180594
N	-0.403168	1.11273	-2.136799
H	-0.139502	1.839392	-1.481266
H	-1.20615	1.410534	-2.669712
N	-0.41004	-1.139605	0.806815
H	-1.266927	-0.944009	1.31436
H	0.330982	-1.321016	1.472139
N	-0.281126	1.330012	0.601366
H	0.552935	1.560788	1.12833
H	-1.063604	1.28444	1.244886
F	2.652924	0.0	0.0
