15

C	-0.135554	-0.112921	-1.500995
C	0.0	0.0	0.0
Cl	-1.828892	-0.624819	-2.064104
H	1.105301	0.0	0.0
H	-0.0534	0.891875	-1.922255
N	0.838108	-1.066767	-1.954111
H	1.695703	-0.857242	-1.411171
H	1.027544	-0.932347	-2.93781
N	-0.481015	-1.204869	0.695777
H	-0.614005	-1.939473	0.007712
H	0.285726	-1.514623	1.286312
N	-0.578098	1.226718	0.509157
H	-1.489931	0.987872	0.884541
H	-0.005945	1.534622	1.286654
F	2.728899	0.0	0.0
