15

C	-0.180282	0.136429	-1.527949
C	0.0	0.0	0.0
Cl	-0.283551	-1.541776	-2.374363
H	1.097588	0.0	0.0
H	-1.133949	0.576463	-1.83524
N	0.92234	0.902619	-1.965747
H	1.024485	0.918151	-2.970688
H	1.784602	0.589346	-1.474717
N	-0.591336	-1.168731	0.600055
H	-0.074412	-1.341656	1.452371
H	-1.543107	-0.952194	0.877658
N	-0.408471	1.258428	0.65
H	0.316843	1.93828	0.446848
H	-1.264597	1.609274	0.221968
F	2.751031	0.0	0.0
