19

C	-0.471512	0.007948	-1.435054
C	0.0	0.0	0.0
Br	-2.361466	0.406484	-1.639161
H	1.094871	0.0	0.0
N	0.250184	1.009635	-2.34201
O	0.115828	0.824656	-3.545751
O	0.861166	1.917426	-1.799899
N	-0.168211	-1.353791	-2.068093
O	-1.074211	-2.167514	-2.183271
O	1.016194	-1.521259	-2.323234
C	-0.430062	-1.291243	0.699609
H	0.071952	-2.163917	0.278445
H	-1.512982	-1.445528	0.660439
H	-0.123652	-1.221696	1.745698
C	-0.463067	1.213847	0.804105
H	-0.307288	2.147852	0.266871
H	0.143871	1.251746	1.712477
H	-1.516623	1.129148	1.087607
Br	3.519025	0.0	0.0
