19

C	-0.427819	-0.009466	-1.45651
C	0.0	0.0	0.0
Br	0.370347	1.412767	-2.473549
H	1.094223	0.0	0.0
N	-0.071649	-1.288364	-2.22352
O	-0.662077	-1.450104	-3.286372
O	0.792934	-2.007225	-1.746175
N	-1.953125	0.062416	-1.541345
O	-2.524545	-0.9969	-1.295593
O	-2.489499	1.143792	-1.737782
C	-0.4844	-1.209495	0.803545
H	-1.560001	-1.173483	0.996498
H	0.04193	-1.184007	1.760801
H	-0.240033	-2.155209	0.325309
C	-0.456565	1.285939	0.691236
H	-1.547477	1.352049	0.762863
H	-0.047412	1.280827	1.703829
H	-0.081335	2.177545	0.189877
Br	3.512388	0.0	0.0
