19

C	-0.335006	0.004696	-1.464891
C	0.0	0.0	0.0
Br	0.611586	-1.363779	-2.457183
H	1.096174	0.0	0.0
N	-1.819449	-0.136449	-1.84866
O	-2.093128	-0.304701	-3.029868
O	-2.62339	-0.030882	-0.928735
N	0.056685	1.374149	-2.04727
O	-0.860228	2.15714	-2.276233
O	1.251503	1.601917	-2.130393
C	-0.477783	-1.255757	0.71703
H	0.00647	-1.295857	1.698374
H	-0.198317	-2.166409	0.18204
H	-1.559652	-1.253713	0.870033
C	-0.455014	1.269318	0.715537
H	-0.144784	1.196031	1.762484
H	-1.538821	1.401435	0.688904
H	0.021674	2.165418	0.308877
Br	2.756612	0.0	0.0
