19

C	-0.448468	-0.003175	-1.443933
C	0.0	0.0	0.0
Br	-2.340045	-0.373414	-1.681845
H	1.094839	0.0	0.0
N	-0.109805	1.351144	-2.07595
O	-0.995065	2.188135	-2.18299
O	1.076612	1.488154	-2.338674
N	0.277718	-1.017775	-2.335088
O	0.904521	-1.906895	-1.780617
O	0.136438	-0.854807	-3.541201
C	-0.475148	-1.220734	0.785748
H	-1.538417	-1.148527	1.032523
H	0.099527	-1.255755	1.714556
H	-0.291052	-2.150757	0.251357
C	-0.441003	1.287229	0.69811
H	-1.522741	1.442102	0.638527
H	-0.155912	1.211944	1.749732
H	0.068624	2.162029	0.290876
Br	3.523389	0.0	0.0
