20

C	-0.376713	-0.067809	-1.48174
C	0.0	0.0	0.0
Br	-2.305989	-0.390126	-1.751742
H	1.097154	0.0	0.0
N	-0.067492	1.29856	-2.099037
O	1.098303	1.44842	-2.452674
O	-0.940104	2.16074	-2.136428
C	0.404728	-1.120169	-2.244054
H	0.246369	-1.012016	-3.318982
H	0.067261	-2.111689	-1.944059
H	1.464295	-1.002937	-2.004216
C	-0.424318	-1.256423	0.757219
H	-1.510034	-1.317449	0.871783
H	-0.067668	-2.16747	0.273565
H	0.03164	-1.223681	1.749667
C	-0.496915	1.253813	0.708118
H	-0.060542	2.159933	0.28539
H	-1.587403	1.338073	0.667476
H	-0.187151	1.206572	1.755038
Cl	3.457508	0.0	0.0
