20

C	-0.390952	0.035276	-1.481249
C	0.0	0.0	0.0
Br	0.28735	-1.543019	-2.418757
H	1.096331	0.0	0.0
N	-1.917223	-0.00281	-1.57747
O	-2.482598	1.092671	-1.617907
O	-2.49781	-1.082094	-1.515493
C	0.143335	1.249392	-2.214622
H	-0.088376	1.185724	-3.279149
H	-0.297843	2.160659	-1.816158
H	1.22605	1.264494	-2.070728
C	-0.497855	-1.227227	0.756552
H	-1.579547	-1.196003	0.923299
H	-0.255685	-2.153619	0.236656
H	0.000863	-1.251807	1.728422
C	-0.432878	1.273184	0.734556
H	-0.107996	1.184188	1.774097
H	-1.517815	1.418449	0.725251
H	0.047793	2.163768	0.328884
Cl	3.434665	0.0	0.0
