20

C	-0.492718	-0.00042	-1.453624
C	0.0	0.0	0.0
Br	0.459631	1.347821	-2.503732
H	1.094296	0.0	0.0
N	-0.114607	-1.353842	-2.055374
O	1.070168	-1.597406	-2.219289
O	-1.043973	-2.141335	-2.256606
C	-1.978999	0.226045	-1.646855
H	-2.555872	-0.493786	-1.06552
H	-2.230444	1.237813	-1.33075
H	-2.24424	0.111417	-2.697979
C	-0.445055	-1.270185	0.729742
H	-0.08844	-1.211789	1.760834
H	0.000659	-2.164831	0.291223
H	-1.533634	-1.390087	0.74999
C	-0.476008	1.242012	0.746385
H	-1.556364	1.22602	0.928421
H	0.031538	1.278548	1.713139
H	-0.218508	2.156706	0.208885
Cl	3.500451	0.0	0.0
