15

C	-0.614079	-0.036218	-1.380318
C	0.0	0.0	0.0
Br	0.478319	1.166657	-2.589096
H	1.091443	0.0	0.0
H	-0.398217	-0.863789	0.540214
N	-0.498905	-1.398843	-2.046468
O	0.117877	-2.278756	-1.459755
O	-1.082282	-1.532808	-3.1199
N	-1.977308	0.295583	-1.37649
H	-2.060814	1.10263	-0.762163
H	-2.325931	0.482167	-2.306758
N	-0.461759	1.262983	0.636008
H	-0.681555	1.06441	1.60473
H	0.361475	1.859328	0.653697
F	2.644856	0.0	0.0
