15

C	-0.025296	0.05429	-1.524731
C	0.0	0.0	0.0
Br	-0.547012	-2.055782	-2.210189
H	1.092987	0.0	0.0
H	-0.465513	-0.898772	0.397349
N	-1.224652	0.704127	-2.174947
O	-2.286225	0.650566	-1.565599
O	-1.055116	1.255631	-3.260925
N	1.14184	0.48095	-1.997392
H	1.227771	0.667202	-2.983337
H	1.98941	0.300799	-1.349622
N	-0.463398	1.274808	0.533381
H	0.16776	1.555285	1.269886
H	-1.398691	1.192592	0.905065
F	2.765956	0.0	0.0
