12
Coordinates from ORCA-job run
  C   -0.39148214542579      0.13379537635584      0.01316068448076
  C   0.90805675851492      0.31540044222610     -0.30536087525795
  H   1.18878983876744      1.18431738034201     -0.88719750282724
  N   -1.36809555008275      1.11520789250061     -0.43452328927403
  O   -0.97108972366734      2.20195034644834     -0.84977396060467
  O   -2.55637848339180      0.79062287634709     -0.33353665269424
  N   -0.87891975492659     -0.95481505638718      0.73407771906541
  H   -1.88561475216296     -1.02011301144520      0.65305611650601
  H   -0.44882292190567     -1.80702046105085      0.38498392985919
  N   1.85034285418542     -0.61564639083644      0.10679111925879
  H   1.75136105642898     -0.93604586437442      1.05925943012985
  H   2.80185282366615     -0.40765353012591     -0.14293671864188
