12
Coordinates from ORCA-job run
  C   -0.44413616928854     -0.22176271911153      0.03638687628184
  C   0.90098042416367     -0.38263216108118      0.16733155850307
  H   1.22701801397108     -1.27644189665039      0.69444949720531
  N   -1.00527434506633      0.97286768039353     -0.53528410377268
  O   -2.22149293823308      1.13755268056257     -0.40472979619311
  O   -0.24758699363712      1.78964988611125     -1.08136537991420
  N   -1.41352059141261     -1.18088490128527      0.36907018293065
  H   -1.00233359344845     -1.98701622678268      0.81687319778781
  H   -2.15903475188402     -0.78987511542740      0.92911316977881
  N   1.91751839394620      0.35975824886405     -0.37461920527261
  H   2.79682163733243      0.31349511989571      0.11147716801265
  H   1.65104091355677      1.26528940451135     -0.72870316534754
