12
Coordinates from ORCA-job run
  C   -0.35385597726207      0.09766053608293      0.02755806490214
  C   0.94227463111110      0.43628390636247     -0.16163663434708
  H   1.20305928532285      1.45878143347627     -0.40710625365062
  N   -1.37902094645399      1.12250823483451     -0.12369989130403
  O   -2.54776380073438      0.74700744427003      0.01294040256960
  O   -1.04157128267984      2.27684199336608     -0.38558426093235
  N   -0.73089808002722     -1.21956494116288      0.35201376449599
  H   -1.47153096916086     -1.53551824189780     -0.26289944676087
  H   -1.09163707771207     -1.27085901284113      1.29828930878043
  N   1.96233734119222     -0.44539013939972      0.02286672551837
  H   1.67865868275164     -1.41322977546669      0.07035049463586
  H   2.83194819365262     -0.25452143762407     -0.44309227390744
