12
Coordinates from ORCA-job run
  C   -0.38864767779916     -0.25636688548114      0.10591905731401
  C   0.96416364129905     -0.37033404336746      0.22966252703877
  H   1.29080185269532     -1.26478360810758      0.75044952398955
  N   -0.98510684689874      0.89182004943087     -0.54171587111857
  O   -2.21691145750175      0.94023607101968     -0.59153065486136
  O   -0.24075347445183      1.76861286004614     -1.00916957970892
  N   -1.23757754994547     -1.24898390868351      0.63247496100234
  H   -1.88709237284000     -0.84475449617489      1.29671069071256
  H   -1.79496558598134     -1.66903441242021     -0.10215412189735
  N   1.94251513346117      0.42840440522965     -0.24718393873329
  H   2.87576010891493      0.30044990012350      0.09870616203666
  H   1.67781422904781      1.32473406838496     -0.62216875577439
