12
Coordinates from ORCA-job run
  C   -0.42686589365428     -0.17904592319325      0.15353700340714
  C   0.90368634163279     -0.45541655008233      0.06986843037949
  H   1.22229278161665     -1.39256441316741      0.52012187473578
  N   -0.98143358972026      1.01029437969470     -0.42498212499477
  O   -2.19269827267806      1.20741172853338     -0.26975111502948
  O   -0.23010552275702      1.78393406763904     -1.03957248382134
  N   -1.38765113811329     -1.06267287092946      0.68395501374382
  H   -1.01630775444985     -1.58182333971534      1.46657920850810
  H   -2.21285041657011     -0.54901071994223      0.96231799489904
  N   1.91947386293765      0.32001830485424     -0.42014991913206
  H   2.76177661835324     -0.17048289794675     -0.66673044014801
  H   1.63968298340252      1.06835823425541     -1.03419344254771
