12
Coordinates from ORCA-job run
  C   -0.35408438247388      0.10021761298669      0.00822969473967
  C   0.95555333349492      0.42006563173708      0.12184243519642
  H   1.24865603310506      1.45289023919416      0.26715353689830
  N   -1.34737130326623      1.16488574047648      0.06932925420599
  O   -2.52379877975249      0.82077076099879     -0.08312626092009
  O   -0.97620586632745      2.32423197929238      0.25125874821212
  N   -0.77349999842042     -1.23127181516858     -0.17567907796731
  H   -1.41494495613542     -1.29379583811371     -0.95741396274564
  H   -1.26987064862014     -1.57103430661000      0.64059523505888
  N   1.93820013694930     -0.52112967741533      0.14165103946306
  H   2.86622268909265     -0.23042354908628     -0.11129558203205
  H   1.65014374235410     -1.43640677829166     -0.17254506010935
