12
Coordinates from ORCA-job run
  C   -0.39213805909958     -0.20749777040915      0.17772614386614
  C   0.93105715957247     -0.50116348916903      0.02851151457715
  H   1.20834590964281     -1.49422291837242      0.36730773740085
  N   -0.92464609563358      1.07100006970496     -0.23965233728073
  O   -0.15167918118747      1.91010218758057     -0.72982796303396
  O   -2.13463567512282      1.25977011277864     -0.08898694107013
  N   -1.27253161335935     -1.15413161508914      0.73636625991435
  H   -2.02230073321532     -1.36764287252054      0.08929420492445
  H   -1.70634341261141     -0.78693152325250      1.57518775630258
  N   1.93487082828643      0.26925051497064     -0.43686411188568
  H   2.82514263276565     -0.15269962157088     -0.62443525999132
  H   1.70485823996217      1.15616692534885     -0.85362700372370
