12
Coordinates from ORCA-job run
  C   -0.37234523078959     -0.26161772304226      0.15097181302107
  C   0.97870646859252     -0.21431450221240      0.33635910761454
  H   1.36376115331053     -0.97235027436997      1.01084017168862
  N   -1.03812253639608      0.67910413222261     -0.71989271843491
  O   -0.35857603593716      1.54142201210626     -1.30100845469781
  O   -2.26164270544079      0.57447140905339     -0.84230748116617
  N   -1.14589772409743     -1.23772443454873      0.80861123896679
  H   -1.64123947097548     -1.81204577810422      0.13672777145051
  H   -1.84878243311122     -0.80101814577948      1.39332783604273
  N   1.88569441704564      0.62793467204254     -0.19055512545764
  H   1.58170890831904      1.34682115577304     -0.82532882967648
  H   2.85573518948001      0.53031747685922      0.04125467064876
