12
Coordinates from ORCA-job run
  C   -0.38308068090660     -0.25030842676418      0.13803199779971
  C   0.93933852990125     -0.16427449500974      0.45752010176448
  H   1.24161718665127     -0.80247429728691      1.28174778448158
  N   -0.94664911803405      0.55056787517519     -0.92663749813700
  O   -2.15715810826924      0.44351711099984     -1.13929348897686
  O   -0.20283578266672      1.32579697650309     -1.54895244136883
  N   -1.23197399815818     -1.12412170297210      0.84321634171427
  H   -1.63957378535189     -1.80819483114727      0.21685379208581
  H   -2.00135427547692     -0.61634663084452      1.26302091674804
  N   1.92089910057236      0.55475521350389     -0.12587288898896
  H   1.66155192848774      1.24511312353703     -0.81128914726871
  H   2.79921900325097      0.64497008430568      0.35065453014647
