12
Coordinates from ORCA-job run
  C   -0.43760791312729      0.13323661897897     -0.03675369398818
  C   0.81074022753946      0.08581673441724     -0.54729569474101
  H   1.06724906592114      0.74007506134043     -1.37033296354764
  N   -1.32950438212826      1.20132170051672     -0.47675466617885
  O   -2.35224508482184      1.35587735252284      0.19365726233874
  O   -1.00061229003639      1.90105815372725     -1.43313341642776
  N   -1.02509075158112     -0.78037260944940      0.82794538508651
  H   -0.50727055145953     -1.63726981139994      0.93426407808367
  H   -1.39200521378645     -0.40733019145262      1.68922649792926
  N   1.75445687087054     -0.85911328213555     -0.15909635775089
  H   1.71729504140633     -1.10219644491197      0.82125840315477
  H   2.69359498120342     -0.63110328215396     -0.44298483395864
