12
Coordinates from ORCA-job run
  C   -0.33905773053945      0.11272512105572      0.10928596500885
  C   0.94299065662968      0.38559600070873     -0.21766909323904
  H   1.28195215439115      1.41330256188124     -0.22521097472014
  N   -1.26407311910865      1.24645274858638      0.24817110555016
  O   -0.80549659851688      2.38141021171617      0.36574955444735
  O   -2.46747778245267      0.97767295711731      0.22053060119895
  N   -0.89736938767149     -1.16388062666757      0.15558371149371
  H   -0.72734304532408     -1.65881039918957      1.01855130197308
  H   -1.87622610904272     -1.17492381794307     -0.08202400092116
  N   1.82846328228476     -0.57602957690134     -0.64572442558364
  H   1.52545161080572     -1.52851524067138     -0.51857290373022
  H   2.79818606854464     -0.41499993969264     -0.42967084147790
