12
Coordinates from ORCA-job run
  C   -0.41495362909132      0.17931814593200      0.08156611432666
  C   0.91951714274182      0.34184583146262     -0.03668246917594
  H   1.32066783436274      1.34227458578414     -0.13400573600426
  N   -1.27811146140425      1.33747890452312     -0.12590258636961
  O   -2.47888706398495      1.09368170549402     -0.26027642047243
  O   -0.77263843419621      2.45599703001034     -0.20286862452500
  N   -1.08924690187381     -0.97358556929750      0.46182450018167
  H   -0.49182804087786     -1.69140708761912      0.83834347348926
  H   -1.78925090013770     -1.31154290754261     -0.17972583028537
  N   1.82610728397984     -0.70495929949620      0.09064863657787
  H   2.74886529940778     -0.48302910611488     -0.24658314343084
  H   1.49975887107392     -1.58407223313591     -0.28633791431201
