12
Coordinates from ORCA-job run
  C   -0.40026172668601      0.22274385346357      0.02876535320547
  C   0.85975829920325      0.15153356649693     -0.44936940624045
  H   1.15011973079764      0.80058576526803     -1.26522595912978
  N   -1.37638759078238      1.02806750204471     -0.69817175265271
  O   -0.98978250815643      1.76732973994501     -1.60173856053576
  O   -2.55418936869605      0.86480796563112     -0.37344066412796
  N   -0.88192262007349     -0.32975238057179      1.20820985453393
  H   -1.67695564913884     -0.94285596569684      1.11947814776938
  H   -0.16208380650087     -0.67223950698348      1.82342474436128
  N   1.85144889001859     -0.62605961769679      0.13894205795287
  H   1.52068660211146     -1.50394378402939      0.51494813006868
  H   2.65956974790312     -0.76121713787109     -0.44682194520493
