12
Coordinates from ORCA-job run
  C   -0.42700746268542     -0.21640475252984      0.09202209413371
  C   0.87054697122210     -0.46168881156675     -0.23949312002093
  H   1.15068599273645     -1.50973011331413     -0.31447297447388
  N   -0.93164034832317      1.12185660606801      0.19772073355383
  O   -2.11049660938962      1.25973478696788      0.54612811834567
  O   -0.17077282933846      2.07037114854661     -0.05163848233025
  N   -1.41114553008740     -1.21448310098453      0.23485994615901
  H   -1.02412240915317     -2.05710966536485      0.63500115026537
  H   -2.17149149997364     -0.87073536150740      0.80585048333746
  N   1.90317202506722      0.42132854539920     -0.40511151932605
  H   1.63638058774059      1.37937028192639     -0.56728370373608
  H   2.68789111218454      0.07949043635940     -0.93258272590786
