12
Coordinates from ORCA-job run
  C   -0.44585315868504     -0.20501181788960      0.08258153007053
  C   0.89999489016905     -0.40559991424876      0.10632343277281
  H   1.24233948022271     -1.28922523474202      0.64020166806031
  N   -1.01773137100536      0.98595483798368     -0.48706286468799
  O   -2.21282447870532      1.19537379633415     -0.26122851255276
  O   -0.28483941036085      1.75667812317152     -1.12585836848736
  N   -1.41183936477220     -1.11845402793173      0.53213229230241
  H   -2.09319921612002     -0.68458292889504      1.14019731579365
  H   -0.98944176899700     -1.92450273048265      0.96936757640302
  N   1.88878664445200      0.28122744873216     -0.54914901780144
  H   1.62027794527828      1.18255534748216     -0.91252444345283
  H   2.80332980852375      0.22558710048613     -0.13398060842036
