12
Coordinates from ORCA-job run
  C   -0.35319293610753      0.10353039722801     -0.00123434122214
  C   0.95609864854103      0.41097899804453      0.14455811013748
  H   1.25526367027894      1.44153771479712      0.29359441172499
  N   -1.33708031994642      1.17837718966336      0.03153469949567
  O   -2.51234621077990      0.84569244013761     -0.15191930274410
  O   -0.95922150412216      2.33418624063530      0.22180271315608
  N   -0.78141689260731     -1.22425995875049     -0.19111686561310
  H   -1.40753085402053     -1.28222257337659     -0.98551389101409
  H   -1.29721569421740     -1.55781059409037      0.61565035886370
  N   1.92901836343937     -0.53934902249166      0.19097485084303
  H   2.86580087678133     -0.25784026913364     -0.03906478384763
  H   1.64082285276058     -1.45282056266316     -0.12826595977990
