12
Coordinates from ORCA-job run
  C   -0.42276928420182      0.11927642982657     -0.06909233853366
  C   0.88607551123679      0.29204671142903     -0.35381539269841
  H   1.19541266166843      1.13326911165181     -0.96007031356413
  N   -1.36364724591056      1.18035196523285     -0.42773076156976
  O   -0.96020987566506      2.13589400946699     -1.08883564807684
  O   -2.50490100564413      1.06632878758222      0.02343499565844
  N   -0.98622452323221     -1.01062368956759      0.48333650260306
  H   -1.57327788186200     -0.93606376296038      1.29340701638465
  H   -0.55142055577740     -1.89496377683110      0.29587578096492
  N   1.85034860412984     -0.64537718315647     -0.01414252373431
  H   2.79125645605998     -0.28583517016437     -0.01727562116973
  H   1.64035713919815     -1.15430343250956      0.83390830373578
