12
Coordinates from ORCA-job run
  C   -0.33701807725799      0.15694159465154      0.13114792150487
  C   0.98450805003384      0.34372787228272     -0.03645766225209
  H   1.45799616973553      1.30085346983863      0.14208114904870
  N   -1.21145630146939      1.30890186148138      0.32011616035454
  O   -0.68465077348011      2.40258778462265      0.52335290152015
  O   -2.42414513332922      1.10525486172588      0.27161692458908
  N   -0.93495104319430     -1.08803475007387     -0.04183946802480
  H   -1.88132517670029     -1.07046469593470     -0.37709413595490
  H   -0.80585501718418     -1.71114613536313      0.74061826142086
  N   1.81899963566145     -0.73685783434596     -0.25577514973203
  H   2.69771941796040     -0.52066837534636     -0.69940458369365
  H   1.32017824922425     -1.49109565353877     -0.71836231878075
