12
Coordinates from ORCA-job run
  C   -0.33217946160750      0.15545568078461      0.03497957711804
  C   0.85918675926239      0.07065051688877     -0.60051331329826
  H   1.04058079572850      0.66495352067683     -1.48805337953008
  N   -1.35783872922554      1.03875838360000     -0.50529708111345
  O   -1.10782221285152      1.70874363663643     -1.50705705694282
  O   -2.44026093591014      1.04319117886565      0.08948367831635
  N   -0.60372132316525     -0.59796804003553      1.19310505629828
  H   -1.48712920673049     -1.08457392920806      1.09743503138604
  H   -0.68400163980725      0.00235695675421      2.00629071476949
  N   1.88981080599760     -0.67997312436772     -0.12494794340754
  H   2.59201224117440     -0.97242674664410     -0.78166350203431
  H   1.63036290713482     -1.34916803395109      0.58523821843826
