12
Coordinates from ORCA-job run
  C   -0.39802078375037     -0.21944259962515      0.16039892859096
  C   0.88556061383979     -0.55781497713258     -0.14055437828619
  H   1.16031558300480     -1.56148171045011      0.16840460776457
  N   -0.90767086196962      1.10749410169498     -0.14072968629617
  O   -0.18528604161808      1.88885785676871     -0.77648883523140
  O   -2.05172402025756      1.37486117101391      0.23402521412615
  N   -1.24830597372934     -1.12317277344955      0.81967927365067
  H   -2.15244424577838     -1.15996881542028      0.36788877367806
  H   -1.39815959408715     -0.86226084476870      1.78599602925473
  N   1.83463665252475      0.14111038151355     -0.80984875596944
  H   2.78932544744209     -0.14987795482509     -0.69011322846714
  H   1.67077322437907      1.12069616468031     -0.97765794281479
