12
Coordinates from ORCA-job run
  C   -0.40862704061142      0.13216220465709     -0.04113127322274
  C   0.91732684682477      0.32913291377442      0.11119530623689
  H   1.28365961955121      1.34708528188362      0.09779963751513
  N   -1.25228217023364      1.30230214343686     -0.22934381714056
  O   -2.40286775906565      1.07925047067214     -0.61844402009808
  O   -0.78970335535617      2.42176485944984     -0.01648867879171
  N   -1.12574574649764     -1.06868753622710     -0.00217597765216
  H   -0.52389056003424     -1.87291963930052     -0.10193173732848
  H   -1.85786100203341     -1.08651403478662     -0.69911206486363
  N   1.86938101181063     -0.67539854216742      0.22286674755730
  H   2.73441931064436     -0.36964243788407      0.63753609866712
  H   1.55519084500119     -1.53853568350824      0.63822977912091
