12
Coordinates from ORCA-job run
  C   -0.38732776440066     -0.25688090210576      0.10980461814090
  C   0.96706171999390     -0.37729987160321      0.20510564047450
  H   1.30100926700743     -1.28007021594953      0.70648481646633
  N   -0.99209534736393      0.90254874694361     -0.51021239416191
  O   -0.25371552277738      1.78364735466211     -0.97880375046142
  O   -2.22441954969810      0.95558228590147     -0.53551865393417
  N   -1.22980090367387     -1.25483797862638      0.63631001872452
  H   -1.80436866175869     -1.65932014648956     -0.09375400524492
  H   -1.86310144039409     -0.86025169010507      1.32161408097428
  N   1.93881847199051      0.42594366601148     -0.27791830204918
  H   1.67054044251046      1.32948808571614     -0.63243819155523
  H   2.87739928856443      0.29045066564468      0.05032612262630
