12
Coordinates from ORCA-job run
  C   -0.39090084674932     -0.22403498142054      0.15683578945537
  C   0.96040407987827     -0.32185301742747      0.30582534214031
  H   1.27750578372592     -1.08738322119752      1.00679907219577
  N   -0.97571174554959      0.76208865100007     -0.72626867030317
  O   -0.22236238700174      1.51422213847421     -1.36501445019361
  O   -2.20669781353809      0.80641870483414     -0.79379523017080
  N   -1.25045920221209     -1.07371463963491      0.87926970928883
  H   -1.81339109202593     -1.63318496796532      0.24960596011053
  H   -1.89280966971118     -0.53251062307975      1.44557762671706
  N   1.94780594780224      0.34641934054061     -0.32870609515172
  H   1.69076647113134      1.14982334719761     -0.87897885017999
  H   2.87585047425015      0.29370926867888      0.04984979609141
