12
Coordinates from ORCA-job run
  C   -0.38768271337364     -0.24054102028330      0.13987870380273
  C   0.96612327795677     -0.34270335678882      0.26285982012543
  H   1.30081732811017     -1.23509696493766      0.78199911126597
  N   -0.99282624172133      0.87860448404322     -0.54936911190622
  O   -0.25702890080829      1.76558634769738     -1.01104683462022
  O   -2.22257496911501      0.88798482503618     -0.64780404771430
  N   -1.22747314355348     -1.24223381387170      0.66388235800964
  H   -1.81107141696446     -1.63426111648837     -0.06561956297541
  H   -1.85234521811819     -0.85549763244894      1.36153752293901
  N   1.93207171905459      0.52260189212947     -0.11244664970551
  H   1.66960575562511      1.29321774625275     -0.70518795229547
  H   2.88338452290775      0.20333860965979     -0.11968335692565
