12
Coordinates from ORCA-job run
  C   -0.41805425733938      0.17402892562258     -0.07734525615809
  C   0.92345424512306      0.28153607858125     -0.17786575326229
  H   1.35739267423383      1.24174601221222     -0.42464253581573
  N   -1.21838117817453      1.39358041154598     -0.10810341125507
  O   -0.68186047647423      2.45504078067059     -0.42132276154666
  O   -2.39487539557687      1.27168460234675      0.23882472170083
  N   -1.16391037802886     -0.99609847276981     -0.02164620534424
  H   -0.63947997910145     -1.82628538830623     -0.24454871848277
  H   -1.77773275322518     -1.09483221699159      0.77163459814042
  N   1.78023367280627     -0.81168045430542     -0.10934908288687
  H   2.74517843898856     -0.56038692105091      0.03263989394362
  H   1.48803538676878     -1.52733335755541      0.54172451096686
