12
Coordinates from ORCA-job run
  C   -0.35389460855677      0.09636996913441     -0.03268382163349
  C   0.95767547360454      0.38316345837833     -0.19973409514159
  H   1.25098907013678      1.29550441753751     -0.70503430413253
  N   -1.34993447039931      1.02368066995544     -0.55457887878520
  O   -0.97744046599739      2.06002696638240     -1.10420224845961
  O   -2.53055536324962      0.68818384174105     -0.41627709577309
  N   -0.77339965647865     -1.07664749271237      0.62350384725030
  H   -1.21269665979781     -0.85829364148517      1.51089823668921
  H   -1.46374883064955     -1.56459030266010      0.06517072645055
  N   1.94726049290698     -0.39742310007090      0.31310731242494
  H   2.85558486350130     -0.33647421217659     -0.11224194524715
  H   1.64916015497951     -1.31450057402401      0.61207226635768
