12
Coordinates from ORCA-job run
  C   -0.40393171726091      0.13758715438749     -0.00452932937447
  C   0.88377920863389      0.15863981239599     -0.40545594749469
  H   1.20077363598116      0.94896118424509     -1.07294985798070
  N   -1.28889975179262      1.18086073639070     -0.49518341870212
  O   -0.92272270944536      1.89185794030699     -1.42921772417024
  O   -2.37428503630686      1.28608032757279      0.08442074506359
  N   -1.03617619686651     -0.78984804139416      0.83022434646248
  H   -0.37191009496905     -1.29397912569497      1.40036167092069
  H   -1.73195556200266     -0.34278993642495      1.41147285589732
  N   1.85652470578800     -0.73670920110940      0.02250088925248
  H   2.66193623881665     -0.77673664601696     -0.58078500045728
  H   1.52586727942426     -1.66492420465862      0.23914077058297
