17

C	0.0	0.0	0.0
C	-0.443097	-0.122137	-1.448848
Cl	1.784082	0.0	0.0
H	0.007266	-1.050559	-1.8166
H	0.018343	0.694855	-2.005946
N	-0.357583	1.384652	0.55427
O	-0.381141	1.500859	1.774214
O	-0.531061	2.292292	-0.25068
C	-0.561401	-1.05338	0.919594
H	-0.135108	-0.966931	1.916615
H	-1.64671	-0.933434	0.982766
H	-0.334851	-2.038445	0.507213
C	-1.949671	-0.135175	-1.66038
H	-2.163596	-0.179125	-2.731183
H	-2.444964	0.747142	-1.261005
H	-2.446841	-0.984194	-1.196259
Br	-5.034252	0.0	0.0
