15
Coordinates from ORCA-job run
  C   0.56782043389522     -0.03296531860672      0.12259879098413
  C   -0.75627453412086      0.29006760335284      0.02315606130207
  C   1.25228891845389     -1.23877363224268     -0.43964755682370
  H   0.68491480896184     -1.68378525733357     -1.25285138268406
  H   1.40145216962804     -2.00099535796383      0.32857516984111
  H   2.23366805338897     -0.94512776726822     -0.81051395404441
  N   1.43163677136629      0.86657291806487      0.86424542385275
  O   2.59483745289909      0.50541346661610      1.04669147152771
  O   0.97460614574047      1.94097672387144      1.28353233299951
  N   -1.46090764216440      1.34036660387641      0.50179964407813
  H   -0.91121816142273      2.12195993706903      0.82299164461150
  H   -2.32968835209295      1.52738946861841      0.02514206577131
  N   -1.65599045003218     -0.66444456048774     -0.67140575508482
  O   -1.50222247668570     -1.86394009540947     -0.46397493350167
  O   -2.52692313781499     -0.16271473215688     -1.38233902282956
