15
Coordinates from ORCA-job run
  C   0.56224951158165     -0.14205000127748      0.05104723939867
  C   -0.72766397505141      0.19305231535446     -0.16285494011646
  C   0.97991155709100     -1.26101027427762      0.94391491406613
  H   1.87396557922653     -1.73026987141216      0.53289089866259
  H   0.19207900072413     -2.01452914058335      1.00524235084590
  H   1.21445040138658     -0.90915297010298      1.95433571624766
  N   1.63709633602395      0.65040344231248     -0.54104423129388
  O   1.53481238125992      1.87569098508051     -0.50781260117392
  O   2.59642686998691      0.02374690551758     -0.98929129482830
  N   -1.81507650387771     -0.38749544131495      0.44200969088840
  H   -2.67415753680626      0.11451460237066      0.26935198253663
  H   -1.68824585926163     -0.61877738654569      1.41501334961000
  N   -1.11582293272476      1.16776589951815     -1.20769476663731
  O   -0.45917732158594      1.18833554158578     -2.24130906596121
  O   -2.11184750797297      1.84977539377460     -0.96479924224490
