15
Coordinates from ORCA-job run
  C   0.51641881378588     -0.17521589885432      0.18323889357382
  C   -0.72821917885294      0.18414159561312     -0.19353925292828
  C   1.75915757807773      0.16971628250994     -0.57034634511044
  H   2.17147314455842      1.12660714487038     -0.24016890847086
  H   1.56654353816681      0.22529318721156     -1.64468947326342
  H   2.52080836130388     -0.59315297433788     -0.40844788351355
  N   0.71416590150361     -0.87518034838180      1.44496065314969
  O   -0.11448485841838     -1.71758413334427      1.78636399150588
  O   1.74021096703254     -0.58749500973807      2.06271546638690
  N   -1.08927079684517      0.91018533228136     -1.30137550754019
  H   -2.00986599431976      0.67799824289300     -1.64744413761324
  H   -0.39368359732563      0.97244073737119     -2.02789625547887
  N   -1.91183966933094     -0.06121480159262      0.65696907160644
  O   -1.88460179911398      0.35534097094334      1.80700050973977
  O   -2.85681241022205     -0.61188032744492      0.09465917795637
