15
Coordinates from ORCA-job run
  C   0.56282649325218     -0.06248131947551      0.13650272358795
  C   -0.72434301699810      0.17845817133321     -0.19102963134478
  C   0.96702538406497     -0.91197533566899      1.29352418750509
  H   0.19123308769162     -0.90381785333852      2.06190196344566
  H   1.15735576983077     -1.94751496124487      0.99161210297884
  H   1.88404227807623     -0.51160467739518      1.72628499371255
  N   1.64445038622951      0.44830159371379     -0.70183924490453
  O   1.51839701819660      0.35971634504045     -1.92208664096692
  O   2.63164684630379      0.88851363621181     -0.11388889666296
  N   -1.82166759078231     -0.35771464146299      0.43616310674768
  H   -1.72457197542896     -1.32148044647144      0.71561992490329
  H   -2.68326586976118     -0.18080044947365     -0.05998072513109
  N   -1.09313735228471      1.18502860926387     -1.21233180667292
  O   -0.40360179855600      2.19379158360621     -1.29469848117130
  O   -2.10738965983439      0.94157974536180     -1.86675357602654
