15
Coordinates from ORCA-job run
  C   0.56432637368990     -0.05255414403856      0.13220840885881
  C   -0.74484938003605      0.31892895138552      0.00506727627894
  C   1.21063596359680     -1.29546291286772     -0.39298842503164
  H   1.32633637485475     -2.04298122331702      0.39518650563529
  H   0.63488366237151     -1.74023223717654     -1.20037095899325
  H   2.20512833060549     -1.04588480227611     -0.76139293928168
  N   1.45204580737301      0.83179395633506      0.86339139021952
  O   2.59668745910129      0.42915801335748      1.07465171555011
  O   1.03299025325862      1.93495858522998      1.24625609899162
  N   -1.41249480722655      1.40888563964743      0.44540832515939
  H   -0.83771001670904      2.17658984942756      0.75566029760042
  H   -2.27123612096751      1.61440306608724     -0.04142882566799
  N   -1.67321213840213     -0.61824241255463     -0.67535620621465
  O   -2.51800893714472     -0.10214239892426     -1.40720661037962
  O   -1.56552282436537     -1.81721793031545     -0.43808605272527
