15
Coordinates from ORCA-job run
  C   0.56682734073940     -0.06146899292557      0.12960692244005
  C   -0.72392820462976      0.35573444219835     -0.06627362205308
  C   1.21463505906828     -1.29924018689470     -0.40668292423679
  H   0.71983462883981     -1.65324262123625     -1.30754706280411
  H   1.20422012112944     -2.10718345472832      0.32815983504755
  H   2.25535283947284     -1.07437989805719     -0.63846106495631
  N   1.40835791024369      0.73950148291054      0.99306496955334
  O   1.01005112852217      1.85240754575158      1.37519364648850
  O   2.49697022618886      0.26245012349562      1.31765220996326
  N   -1.32720733350905      1.51296123215905      0.25681221762936
  H   -0.81996577553118      2.15677296502973      0.84177443848410
  H   -2.31957261899616      1.59691027059241      0.12028028394446
  N   -1.64870969781753     -0.54016228146459     -0.80682225044871
  O   -1.52502751510614     -1.75156277248074     -0.64729580217395
  O   -2.51083810861468      0.00950214565009     -1.49146179687769
