15
Coordinates from ORCA-job run
  C   0.50163334974004     -0.14785595921386      0.22332165982770
  C   -0.75762079156025      0.30164863813189     -0.05555127974084
  C   1.18587387273723     -1.41266277728191     -0.20021961215474
  H   1.54664103333468     -1.35912496355483     -1.23041261549942
  H   2.05222774547730     -1.57655284431379      0.44060190578980
  H   0.51513133971002     -2.26098962890487     -0.11907173386026
  N   1.34797744443619      0.76751411013480      0.98242516875417
  O   2.54811745256183      0.74259191151330      0.71340638337330
  O   0.83681311806144      1.52317338919519      1.81932167421921
  N   -1.45533527270295      1.33245009264355      0.49193537168899
  H   -0.95451933915670      1.85922762583486      1.19103060350674
  H   -2.03839152670640      1.84778671092009     -0.14979795231171
  N   -1.57592234104906     -0.38454240381896     -1.09132469489937
  O   -2.40515825520907      0.32563004840231     -1.65709490244375
  O   -1.34846782967429     -1.55929394968776     -1.35756997624983
