15
Coordinates from ORCA-job run
  C   0.55224890712173     -0.06812860138439      0.17627343272421
  C   -0.74603600505134      0.31302378984031     -0.04070595447200
  C   1.22928417957439     -1.31203270244432     -0.30694282312562
  H   1.92572251976527     -1.64949461338743      0.46016489613639
  H   0.51417260426442     -2.10502113916613     -0.51034704277521
  H   1.80195620497948     -1.12735311861625     -1.21846021116203
  N   1.40504961053158      0.83927349472002      0.91509431162737
  O   0.90620148268906      1.82900260194123      1.47599875837812
  O   2.60955797602067      0.58147269897959      0.94270510053877
  N   -1.46033144067546      1.32308533483716      0.48712570491330
  H   -2.37211129386758      1.51729354029093      0.11056159483278
  H   -0.96126045844250      2.00976133966217      1.02918774715710
  N   -1.58345003430169     -0.52189675399533     -0.93995146689876
  O   -2.78346516884904     -0.57698501121047     -0.67361468327534
  O   -1.03853908375899     -1.05100086006711     -1.90508936459910
