15
Coordinates from ORCA-job run
  C   0.50298774740472     -0.25841704282013      0.14141301651990
  C   -0.70718560926017      0.25106064922251     -0.17207982006777
  C   1.73128592846503      0.00008952334778     -0.66365834585158
  H   2.37204371810708     -0.88118493797507     -0.63002453488726
  H   1.46969165175668      0.19657294043474     -1.70548527262254
  H   2.30128785013162      0.85058490889144     -0.27418964448641
  N   0.68052289476331     -1.03677775930867      1.36496405085515
  O   1.40367605235748     -2.02881256862417      1.28238344547496
  O   0.14371802577508     -0.62529587884338      2.39217086417927
  N   -0.96624614785228      1.10667282660357     -1.21399649445638
  H   -0.25864494209916      1.80598579950910     -1.37706974363221
  H   -1.89826706130398      1.49401954968758     -1.18323239138888
  N   -1.94005792047582     -0.18519747826794      0.52198933272877
  O   -2.82384904766119      0.66467841387413      0.63559484990630
  O   -2.00996314010840     -1.35397894573149      0.88122068772869
