15
Coordinates from ORCA-job run
  C   0.54975915391789     -0.17542853337372      0.08362525455258
  C   -0.70611975396735      0.22605460677355     -0.20628364738276
  C   0.86004312533613     -1.21711574564540      1.10445832649467
  H   1.72930961106266     -1.78828578578902      0.77798472657553
  H   1.09009733232868     -0.77552992374644      2.08009275114651
  H   0.01817432826298     -1.90353480642786      1.21595925932923
  N   1.69449435694756      0.47134712437891     -0.55277950058664
  O   2.61941879769929     -0.26481061752707     -0.89441707998238
  O   1.67827232081124      1.69662186447355     -0.65884030704572
  N   -1.84700575405224     -0.20509319988595      0.42344981749392
  H   -1.76189839775822     -0.33632996212858      1.41929345386544
  H   -2.66442692119278      0.32995150043613      0.16824486901648
  N   -0.99601338413748      1.10429173914874     -1.36260653818460
  O   -1.94503238494140      1.87715409005494     -1.22733311029141
  O   -0.31707243031699      0.96170764925823     -2.37184827500084
