15
Coordinates from ORCA-job run
  C   0.54453448197556     -0.12201136219345      0.12004608247737
  C   -0.69711596765039      0.35035569027389     -0.06916092109459
  C   1.24895391256607     -1.34324740971218     -0.35578269264153
  H   1.86754666345296     -1.09624022944162     -1.22310856290780
  H   0.55206584780211     -2.12406539735721     -0.64721749416872
  H   1.90116217814769     -1.70842707540549      0.44068540281000
  N   1.39434305620940      0.74545457977504      0.94982502265408
  O   1.40031914437164      0.51609029381704      2.15390601791193
  O   2.06055864475639      1.58235262012479      0.35064699971412
  N   -1.14804099581378      1.52761701852044      0.53466819960628
  H   -1.46817541876330      2.19490004632535     -0.15731974398176
  H   -1.91455333219838      1.33433912178587      1.16849689410333
  N   -1.66226524025637     -0.43030967969496     -0.88545924809474
  O   -1.23174161051197     -1.14520277011584     -1.78833684707036
  O   -2.84759136408764     -0.28060544670165     -0.59188910931761
