15
Coordinates from ORCA-job run
  C   0.54256365626817     -0.09423488694631      0.19633421582825
  C   -0.71793060524160      0.36309779127208     -0.08743506136752
  C   1.13259390682188     -1.42106515312054     -0.16563156931153
  H   0.36362195865902     -2.17486139860493     -0.31450053143818
  H   1.79125313085198     -1.74009731242787      0.64166686022689
  H   1.73006726325647     -1.35881424092662     -1.07779169982094
  N   1.44555801092801      0.80597957676026      0.88161609419921
  O   1.01023814885757      1.87185424409659      1.34810630836639
  O   2.62670716977913      0.46480380932628      0.96162063169468
  N   -1.36029198744208      1.46843677112846      0.32785531857189
  H   -2.25735144687019      1.68654691089605     -0.06985720737789
  H   -0.82835240567053      2.15474539335267      0.83770978664215
  N   -1.59824025696315     -0.47885893643010     -0.93742209604359
  O   -1.07552520625865     -1.13187126608598     -1.83657333403583
  O   -2.80491133697601     -0.41566130229004     -0.70469771613397
