15
Coordinates from ORCA-job run
  C   0.57228487318341     -0.05542772848014      0.11098710482740
  C   -0.74565746952821      0.30827117591128      0.01948954273599
  C   1.22942563359753     -1.26488370874633     -0.47590763251497
  H   1.73358783669270     -1.02681026516684     -1.41513937639042
  H   1.98420130859363     -1.62519507619351      0.22275446502733
  H   0.51418002743787     -2.06044838574113     -0.66615896827531
  N   1.46402264754769      0.83145011226132      0.82875810556089
  O   2.67095175585691      0.59342294432927      0.75748078246155
  O   0.99143080249036      1.78273015176314      1.47238436531310
  N   -1.41968371634791      1.31993999590949      0.59607601261762
  H   -0.92783831636269      1.91951381604891      1.23760326190029
  H   -2.41570809084855      1.37288560420898      0.46840510282570
  N   -1.64722844268055     -0.50889255685980     -0.83250807446921
  O   -1.18615278860238     -0.99558554997420     -1.86105148958759
  O   -2.81881606102982     -0.59097052927043     -0.46317320203238
