15
Coordinates from ORCA-job run
  C   0.55744997685003     -0.06611030244935      0.15077315391732
  C   -0.72345621605167      0.36177645575038     -0.05793820580093
  C   1.21406588625333     -1.28050707877554     -0.42591197813468
  H   0.48582482747526     -2.00216397171371     -0.78607697007510
  H   1.82772606041323     -1.74810836136276      0.34351260128773
  H   1.87093343304918     -1.01478151813292     -1.25741222351933
  N   1.40525623239961      0.72597877841676      1.02116145610981
  O   2.58646687477656      0.38909939848107      1.11226773027838
  O   0.92211642028017      1.69706912688543      1.62350138196364
  N   -1.39565235548230      1.43757119871392      0.41109621440245
  H   -2.40072344109453      1.35723501765119      0.39295717863560
  H   -0.96534849802782      1.91144076226633      1.18999933889621
  N   -1.57153087531810     -0.40814180379477     -1.00113916735854
  O   -1.06417151633972     -0.80805343340277     -2.04429132847083
  O   -2.74895680918322     -0.55130426853326     -0.67149918213173
