15
Coordinates from ORCA-job run
  C   0.55423992439036     -0.07514269244727      0.16012852675119
  C   -0.70138269303364      0.38980988571856     -0.11398677083008
  C   1.12965861464915     -1.40621838676673     -0.20821921115082
  H   0.35379521147287     -2.13863417495972     -0.41508970487678
  H   1.74525601509539     -1.76373983918781      0.61647882406545
  H   1.76887966444698     -1.32875140013249     -1.09072055794436
  N   1.46042683644745      0.80142810239847      0.87798007136345
  O   1.04115852069088      1.88346141398389      1.31670084822288
  O   2.62364010170733      0.41912382568368      1.01105030747278
  N   -1.30174468881446      1.56770053860984      0.16988737382367
  H   -2.30994262297805      1.54945561750566      0.16202023293012
  H   -0.83641649783058      2.13798962686112      0.85863876175309
  N   -1.60606819361444     -0.47442490132195     -0.91229025318929
  O   -2.78772342247351     -0.48003690981750     -0.56678123176928
  O   -1.13477677015573     -1.08302070612776     -1.86779721662200
