17

C	0.0	0.0	0.0
C	-0.376532	0.069163	-1.492772
F	1.400878	0.0	0.0
H	0.305748	-0.652162	-1.965676
H	-0.317713	0.907592	0.525561
C	-0.51091	-1.22668	0.711693
H	-1.59932	-1.175995	0.785003
H	-0.088337	-1.281253	1.7183
H	-0.223729	-2.130475	0.165692
C	-0.061601	1.45763	-2.038943
H	-0.171822	1.459777	-3.125199
H	-0.77356	2.181288	-1.629152
H	0.950429	1.770883	-1.772446
N	-1.724947	-0.294665	-1.876955
H	-2.43725	0.233084	-1.374589
H	-1.922914	-1.26083	-1.646303
Br	-4.569015	0.0	0.0
