17

C	0.0	0.0	0.0
C	-0.374055	-0.190014	-1.485431
F	1.401711	0.0	0.0
H	0.337415	-0.95321	-1.8324
H	-0.318884	0.983737	0.36265
C	-0.509223	-1.088011	0.909548
H	-0.206829	-2.070034	0.532751
H	-1.599625	-1.037916	0.959771
H	-0.101361	-0.961158	1.915495
C	-0.106186	1.10056	-2.250722
H	0.893966	1.486654	-2.037334
H	-0.20735	0.923341	-3.323272
H	-0.844554	1.856391	-1.964052
N	-1.70553	-0.664252	-1.80568
H	-2.437239	-0.078547	-1.404142
H	-1.866749	-1.578671	-1.400914
Br	-4.528844	0.0	0.0
