17

C	0.0	0.0	0.0
C	-0.383627	0.230115	-1.474198
F	1.401852	0.0	0.0
H	0.282926	-0.450598	-2.024806
H	-0.317371	0.84487	0.622576
C	-0.505111	-1.299187	0.574458
H	-0.218852	-2.135042	-0.071555
H	-1.5937	-1.265892	0.663561
H	-0.074147	-1.465251	1.565243
C	-0.050156	1.661422	-1.877034
H	0.972294	1.924985	-1.597444
H	-0.739038	2.352039	-1.380075
H	-0.176451	1.780671	-2.954761
N	-1.74161	-0.072205	-1.877844
H	-1.967532	-1.041782	-1.691813
H	-2.434017	0.446956	-1.340996
Br	-4.583786	0.0	0.0
