17

C	0.0	0.0	0.0
C	-0.391846	-0.104202	-1.468896
F	1.407439	0.0	0.0
H	0.041818	0.791229	-1.948497
H	-0.306216	0.979198	0.382692
C	-0.524906	-1.103894	0.88037
H	-0.08971	-1.022561	1.879438
H	-1.610651	-1.015583	0.965552
H	-0.277061	-2.073996	0.450974
C	-1.891897	-0.097706	-1.678558
H	-2.356878	-1.005866	-1.299217
H	-2.126111	-0.017258	-2.744862
H	-2.391611	0.727334	-1.171172
N	0.186156	-1.338607	-2.012058
H	-0.135634	-1.457899	-2.965035
H	1.195449	-1.250735	-2.029171
Br	-5.060359	0.0	0.0
