17

C	0.0	0.0	0.0
C	-0.485246	0.151328	-1.429575
F	1.407421	0.0	0.0
H	-1.569282	0.289547	-1.3504
H	-0.300806	0.902198	0.53951
C	-0.494359	-1.232784	0.712616
H	-0.103721	-2.137918	0.241838
H	-0.164278	-1.219518	1.754474
H	-1.587485	-1.237039	0.682354
C	-0.193383	-1.080129	-2.287574
H	-0.466596	-0.878231	-3.327801
H	0.872888	-1.329621	-2.25427
H	-0.771504	-1.946627	-1.95926
N	0.096413	1.389772	-1.962055
H	-0.311911	1.579386	-2.870217
H	1.091442	1.243841	-2.098162
Br	-4.044476	0.0	0.0
