17

C	0.0	0.0	0.0
C	-0.481167	-0.360962	-1.400071
F	1.405289	0.0	0.0
H	-1.574569	-0.328411	-1.354264
H	-0.308273	1.030455	0.208671
C	-0.480884	-0.914205	1.100717
H	-0.153399	-0.535909	2.073346
H	-1.572685	-0.943483	1.076924
H	-0.073865	-1.919602	0.970243
C	-0.028667	-1.749426	-1.832089
H	-0.468473	-2.528357	-1.205698
H	-0.343846	-1.914855	-2.863275
H	1.06144	-1.835333	-1.784826
N	-0.033951	0.621189	-2.400154
H	0.931792	0.858077	-2.19393
H	-0.579029	1.467977	-2.27763
Br	-3.989094	0.0	0.0
