17

C	0.0	0.0	0.0
C	-0.472433	0.400877	-1.414777
F	1.395727	0.0	0.0
H	0.444118	0.406438	-2.016731
H	-0.294318	0.773997	0.71704
C	-0.483443	-1.34217	0.490215
H	-0.204085	-2.12641	-0.213189
H	-0.040998	-1.54733	1.469338
H	-1.570688	-1.325219	0.586564
C	-1.071142	1.810686	-1.396641
H	-0.372397	2.532918	-0.959782
H	-2.000222	1.797303	-0.821666
H	-1.309293	2.137627	-2.414003
N	-1.359446	-0.60685	-2.000566
H	-2.254888	-0.573933	-1.507079
H	-1.561086	-0.323721	-2.954035
Br	-4.257205	0.0	0.0
