14

C	-0.359718	0.192664	-1.451418
C	0.0	0.0	0.0
Cl	0.269381	-0.995928	-2.586557
H	1.091994	0.0	0.0
H	0.040246	1.158505	-1.752763
N	-1.853607	0.300643	-1.674718
O	-2.564264	-0.548251	-1.148344
O	-2.239336	1.240716	-2.368172
N	-0.446223	-1.254771	0.642562
O	-0.302881	-2.296664	0.012684
O	-0.8468	-1.181089	1.804715
C	-0.488312	1.148398	0.736488
N	-0.856143	2.147813	1.23533
F	2.426087	0.0	0.0
