14

C	-0.576812	-0.001609	-1.399613
C	0.0	0.0	0.0
Cl	-0.066814	1.457659	-2.261259
H	1.090826	0.0	0.0
H	-1.663936	-0.052242	-1.433858
N	-0.124604	-1.186714	-2.227301
O	-0.909493	-1.51731	-3.114818
O	0.961739	-1.687577	-1.989087
N	-0.46757	-1.192994	0.742922
O	-0.239137	-1.230906	1.947269
O	-1.026067	-2.088623	0.100154
C	-0.438791	1.177207	0.721944
N	-0.788051	2.141919	1.296646
F	2.418183	0.0	0.0
