14

C	-0.57367	0.00583	-1.400669
C	0.0	0.0	0.0
Cl	-0.06166	1.471307	-2.252354
H	1.091018	0.0	0.0
H	-1.660612	-0.045714	-1.44039
N	-0.114134	-1.173866	-2.232737
O	0.96104	-1.690915	-1.974705
O	-0.881624	-1.485396	-3.142805
N	-0.473625	-1.192596	0.738053
O	-1.054945	-2.076412	0.095397
O	-0.229959	-1.242527	1.939201
C	-0.433769	1.176969	0.72623
N	-0.767128	2.14617	1.302193
F	2.417497	0.0	0.0
