14

C	-0.360202	0.005941	-1.459814
C	0.0	0.0	0.0
Cl	0.341053	-1.277239	-2.443228
H	1.094818	0.0	0.0
H	0.00953	0.942444	-1.875525
N	-1.858416	0.034128	-1.719811
O	-2.211094	0.510206	-2.795574
O	-2.600346	-0.408091	-0.849237
N	-0.437962	-1.165922	0.792937
O	-0.637227	-0.977052	1.991855
O	-0.490527	-2.25635	0.232958
C	-0.473466	1.228636	0.601032
N	-0.822326	2.277431	1.00255
F	2.424402	0.0	0.0
