12

C	-0.494185	-0.034228	-1.438082
C	0.0	0.0	0.0
Br	-0.577915	1.80616	-2.125433
H	1.088105	0.0	0.0
H	-1.513946	-0.412466	-1.527091
H	-0.381551	0.859342	0.547774
C	0.357426	-0.809871	-2.335321
N	0.978536	-1.421229	-3.122341
N	-0.467919	-1.195817	0.69849
O	-0.52684	-1.156609	1.927663
O	-0.737585	-2.19857	0.023264
F	2.497901	0.0	0.0
