12

C	-0.578368	0.083865	-1.395929
C	0.0	0.0	0.0
Br	0.627322	0.959018	-2.682373
H	1.092	0.0	0.0
H	-1.475219	0.703462	-1.424715
H	-0.318252	-0.905902	0.517819
C	-0.895219	-1.24232	-1.9106
N	-1.184441	-2.312422	-2.300218
N	-0.455887	1.125231	0.816716
O	-0.795447	2.173877	0.25507
O	-0.426858	0.978743	2.03996
F	2.489207	0.0	0.0
