12

C	-0.40449	-0.062575	-1.454779
C	0.0	0.0	0.0
Br	0.498919	-1.448314	-2.502386
H	1.092209	0.0	0.0
H	-0.038242	0.86526	-1.896638
H	-0.351932	0.941768	0.424971
C	-1.839062	-0.166608	-1.690189
N	-3.003278	-0.198884	-1.843995
N	-0.573082	-1.06354	0.823019
O	-0.739933	-2.176948	0.32389
O	-0.804854	-0.793166	2.003994
F	2.506143	0.0	0.0
