12

C	-0.577574	0.100446	-1.393898
C	0.0	0.0	0.0
Br	0.557238	1.135753	-2.624575
H	1.092575	0.0	0.0
H	-1.527228	0.637818	-1.405131
H	-0.313867	-0.920216	0.496304
C	-0.763938	-1.225429	-1.967059
N	-0.933848	-2.301969	-2.404739
N	-0.47471	1.101302	0.842066
O	-0.372486	0.952575	2.060301
O	-0.913617	2.124655	0.305938
F	2.493737	0.0	0.0
