12

C	-0.558787	0.122195	-1.40222
C	0.0	0.0	0.0
Br	0.661299	1.038837	-2.646882
H	1.088738	0.0	0.0
H	-1.459585	0.737581	-1.42932
H	-0.327788	-0.917795	0.488295
C	-0.858956	-1.189834	-1.962158
N	-1.118603	-2.24666	-2.40593
N	-0.46271	1.105768	0.838897
O	-0.763154	2.176946	0.299315
O	-0.477661	0.920294	2.05705
F	2.490884	0.0	0.0
