15
Coordinates from ORCA-job run
  C   -0.72697983125057     -0.08905226555695      0.09524829464160
  C   0.73289186066633     -0.53944928881688      0.20801613479696
  F   -1.54260447608856     -1.17462830099054      0.20522843734377
  H   0.83048131479991     -1.19891864924627      1.06954580722726
  N   -0.99896268786177      0.60528767855482     -1.06923496015472
  H   -0.27805740783784      1.25787137811899     -1.34367204685473
  H   -1.91016199801038      1.04438136041538     -1.04911091200793
  N   -1.05102923905662      0.70064365317059      1.40704645063571
  O   -0.51120134401148      0.30724654029105      2.43499675397068
  O   -1.86449169034318      1.60906738291420      1.29895990429169
  C   1.62463594529734      0.60546403598839      0.30288598864291
  N   2.31298412845254      1.55399733609336      0.38070285693657
  N   1.06005324930388     -1.36251951610884     -1.02191524729802
  O   1.49666900570464     -0.76076309124797     -1.99452755219337
  O   0.82477317023578     -2.55962825357934     -0.92516990997836
