15
Coordinates from ORCA-job run
  C   -0.70812232278301     -0.19116662949229      0.08175824804685
  C   0.79610477200448     -0.48075727114671      0.09048392249032
  F   -1.39205156193082     -1.36486627442572     -0.02167395087752
  H   0.99432219515275     -1.28332120719909      0.79978473517557
  N   -1.09325217503885      0.68336916472925     -0.91798173717723
  H   -2.04679578688052      1.00073361846769     -0.80175049036828
  H   -0.45868700717143      1.45610452453066     -1.06289457421439
  N   -1.08119125650517      0.27980533307524      1.52711059937430
  O   -0.45302658143723     -0.22254452975371      2.45220518207278
  O   -2.01476889241881      1.06760743550110      1.60796381977027
  C   1.55587831929760      0.71809624725672      0.40786824680456
  N   2.13612145822688      1.70540904965654      0.66879603564257
  N   1.17533182017363     -0.99597486703629     -1.28330286326193
  O   1.51014090051187     -0.16440944047490     -2.11694891092588
  O   1.07899611879864     -2.20708515368850     -1.43041826255197
