15
Coordinates from ORCA-job run
  C   -0.49096278060553      0.17635176784376      0.40072304586875
  C   0.58475266845077     -0.40558086580890     -0.51705326372821
  F   0.06637505326301      0.42529528939566      1.62428463067288
  H   0.24994266667199     -0.31739258036843     -1.55345974309017
  N   -1.62662375042982     -0.64626018104604      0.43073773229215
  H   -1.41391048292752     -1.56371122216810      0.80438806401601
  H   -2.36450937169373     -0.21999782936247      0.97991450238054
  N   -0.97191488762109      1.51952547055055     -0.15425632064659
  O   -1.02816953194274      1.61427177940619     -1.37211754339972
  O   -1.33190251081815      2.34054100347385      0.67548301437727
  C   0.84643895422558     -1.79488244849420     -0.16987220262326
  N   0.96431510547921     -2.92196945996849      0.13913857869860
  N   1.86920621447499      0.40045635923809     -0.42752859742381
  O   1.73092232859864      1.60598866152747     -0.27715405802046
  O   2.91504032487436     -0.21263574421892     -0.58322783937399
