15
Coordinates from ORCA-job run
  C   -0.49742536209188      0.16208596935432      0.53547587179421
  C   0.53673074949079     -0.36600431699635     -0.48114765372404
  F   0.08252702648840      0.21370891860205      1.74677063109437
  H   0.11304776046040     -0.30229783414604     -1.48691761212554
  N   -1.69636249882503     -0.58062751571020      0.62507002138693
  H   -2.18930342940394     -0.63769758396463     -0.25712753650184
  H   -1.53928037099483     -1.49784408916186      1.02415164228344
  N   -0.91571301334816      1.56843496500122      0.11088174745896
  O   -0.91306637570256      2.44646998576614      0.94882706643333
  O   -1.27129631534018      1.64055382103353     -1.06213016535589
  C   0.86758406268782     -1.74484896150550     -0.14940594339842
  N   1.07079890908252     -2.86342379524299      0.14538078388164
  N   1.81604113426340      0.45664473215521     -0.53675254160443
  O   2.78810863445496     -0.10903715993196     -1.01571141447875
  O   1.74760908877828      1.61388286474705     -0.14636489714395
