15
Coordinates from ORCA-job run
  C   -0.67394235623547     -0.04701117137061      0.18047597390519
  C   0.81689709890146     -0.39089348931441      0.12304927576271
  F   -1.34388165443504     -1.26377477141921      0.09555220921039
  H   1.06696621452057     -1.03698712337335      0.96283336163374
  N   -1.07499446144231      0.92423800593078     -0.71514425380010
  H   -2.06279146934596      1.12823570242110     -0.64416066896948
  H   -0.76984139715536      0.74120650882532     -1.66119150968900
  N   -1.02435717633708      0.44774287372190      1.58611068660419
  O   -2.15947106925878      0.88581293894406      1.71006805562740
  O   -0.17321916703484      0.33730906183307      2.46152160580803
  C   1.66251604617868      0.79188696887366      0.09686945987232
  N   2.36876538339902      1.72977652010276      0.07831613185188
  N   1.06353255289331     -1.21728809955073     -1.12543083787979
  O   0.81807711007671     -0.67899809694103     -2.20025202980637
  O   1.48774434527507     -2.35025582868331     -0.94861746013112
