15
Coordinates from ORCA-job run
  C   -0.67390697217549      0.06790236186626      0.17335538863322
  C   0.76717098203873     -0.44765190848474      0.21685320003161
  F   -1.48039830205227     -1.05504302739565      0.32596638633181
  H   0.94516659595668     -0.93147982686251      1.17569108042232
  N   -0.96361546224752      0.87386245045969     -0.91019038032812
  H   -0.68863708341918      0.46366994572202     -1.79220381844144
  H   -1.92137462901290      1.19814284755852     -0.90126259201725
  N   -0.95773602759914      0.87831139986972      1.44093093900209
  O   -2.03315275972696      1.46098739691565      1.45035814406745
  O   -0.12210551536856      0.85080786828538      2.33759217537868
  C   1.74221932287997      0.60113710813789     -0.03579808049578
  N   2.54872342481227      1.43037445762132     -0.23658484311316
  N   0.91120260423470     -1.53575039093264     -0.83040225899289
  O   1.20338137750061     -2.64878151914988     -0.41716775734937
  O   0.72206244417907     -1.20648916361101     -1.99713758312917
