14

C	0.0	0.0	0.0
C	-0.624311	0.000182	-1.382039
F	1.387868	0.0	0.0
H	-0.372161	0.911374	-1.931997
H	-1.743851	0.00745	-1.119094
C	-0.370378	1.269432	0.673977
N	-0.508893	2.289099	1.23939
C	-0.477474	-1.185289	0.810937
H	-1.574955	-1.124511	0.840309
H	-0.154214	-2.106279	0.319461
H	-0.053144	-1.140948	1.816658
C	-0.25573	-1.167395	-2.160461
N	0.019671	-2.111848	-2.804309
H	-3.06367	0.0	0.0
