14

C	0.0	0.0	0.0
C	-0.618512	-0.031368	-1.384757
F	1.387892	0.0	0.0
H	-0.360538	0.86495	-1.954238
H	-1.737399	-0.016367	-1.133077
C	-0.374522	1.28287	0.642047
N	-0.511893	2.32033	1.176611
C	-0.47931	-1.16627	0.835513
H	-1.576564	-1.105962	0.859487
H	-0.152289	-2.097273	0.365879
H	-0.058998	-1.099669	1.841581
C	-0.239839	-1.2159	-2.132748
N	0.047424	-2.17405	-2.750243
H	-3.064658	0.0	0.0
