14

C	0.0	0.0	0.0
C	-0.622069	-0.057456	-1.381224
F	1.387884	0.0	0.0
H	-0.442735	-1.043164	-1.822006
H	-1.734099	0.033203	-1.136617
C	-0.371199	1.281568	0.650205
N	-0.557519	2.331977	1.141649
C	-0.492495	-1.168534	0.825781
H	-0.161298	-2.099088	0.355423
H	-0.085654	-1.109723	1.837615
H	-1.591698	-1.103375	0.834301
C	-0.152412	0.977586	-2.28543
N	0.19385	1.803707	-3.045302
H	-3.090976	0.0	0.0
