14

C	0.0	0.0	0.0
C	-0.622986	0.050749	-1.382394
F	1.387784	0.0	0.0
H	-0.365852	0.979419	-1.90027
H	-1.741966	0.051698	-1.123153
C	-0.37078	1.245059	0.715167
N	-0.507724	2.253835	1.299919
C	-0.478045	-1.213922	0.767185
H	-1.575536	-1.15674	0.796204
H	-0.151134	-2.116057	0.244119
H	-0.055724	-1.205078	1.774474
C	-0.257005	-1.091965	-2.198998
N	0.018357	-2.017818	-2.869834
H	-3.071552	0.0	0.0
