15

C	-0.487314	-0.099004	-1.444158
C	0.0	0.0	0.0
Cl	-0.347893	1.466338	-2.310723
H	1.095136	0.0	0.0
H	-1.552571	-0.354961	-1.472391
N	0.251151	-1.099823	-2.187493
H	1.234463	-0.856945	-2.075283
H	0.126651	-1.950818	-1.644607
N	-0.344633	-1.310199	0.602558
H	0.429665	-1.573591	1.204719
H	-1.173219	-1.215834	1.180404
N	-0.468085	1.17007	0.710177
H	-1.419114	1.041756	1.044415
H	0.141189	1.321215	1.50767
H	2.937936	0.0	0.0
