15

C	-0.208328	0.036004	-1.503181
C	0.0	0.0	0.0
Cl	-1.964811	0.197863	-1.997908
H	1.108475	0.0	0.0
H	0.067672	-0.946502	-1.904682
N	0.552409	1.136929	-2.035751
H	1.489245	1.050182	-1.618803
H	0.645668	1.043848	-3.040765
N	-0.489354	-1.174449	0.682306
H	-1.447637	-1.356582	0.403628
H	0.093821	-1.964742	0.434499
N	-0.57665	1.184425	0.623126
H	-0.328506	1.977371	0.038618
H	-0.085647	1.301096	1.50392
H	2.953683	0.0	0.0
