15

C	-0.399327	-0.115041	-1.468027
C	0.0	0.0	0.0
Cl	-0.202151	1.507773	-2.315378
H	1.10253	0.0	0.0
H	-1.464388	-0.332333	-1.58755
N	0.408611	-1.139627	-2.039346
H	1.384407	-0.953842	-1.79791
H	0.305806	-1.18329	-3.044247
N	-0.493548	-1.228102	0.66073
H	-0.295536	-1.997277	0.026287
H	0.130037	-1.373977	1.45238
N	-0.528363	1.16614	0.67333
H	0.225434	1.604427	1.187216
H	-1.236439	0.850379	1.324805
H	2.987959	0.0	0.0
