15

C	-0.325885	-0.003002	-1.477869
C	0.0	0.0	0.0
Cl	-2.128439	-0.051855	-1.76837
H	1.10251	0.0	0.0
H	0.054612	-0.92203	-1.933212
N	0.236393	1.126543	-2.168038
H	0.05753	1.918363	-1.556455
H	1.245571	0.981009	-2.129185
N	-0.530559	-1.168448	0.715548
H	-0.602276	-1.952652	0.07551
H	0.181432	-1.429944	1.389851
N	-0.426062	1.248902	0.605251
H	0.274532	1.523588	1.285945
H	-1.304768	1.084127	1.086436
H	2.913837	0.0	0.0
