15

C	-0.481686	0.044416	-1.446955
C	0.0	0.0	0.0
Cl	-0.357455	1.709987	-2.15392
H	1.093953	0.0	0.0
H	-1.544865	-0.208298	-1.500815
N	0.271795	-0.856873	-2.288132
H	1.256608	-0.648061	-2.113415
H	0.113008	-1.775064	-1.880513
N	-0.387573	-1.334836	0.477254
H	-1.15689	-1.208929	1.126493
H	0.403465	-1.717451	0.986347
N	-0.564307	1.037925	0.866628
H	-0.732182	1.870466	0.313181
H	0.173358	1.288071	1.520772
H	2.96538	0.0	0.0
