14

C	-0.343567	-0.09975	-1.477804
C	0.0	0.0	0.0
F	-1.697647	-0.379069	-1.669162
H	1.088585	0.0	0.0
H	-0.393505	0.891815	0.484125
C	-0.116055	1.246204	-2.059164
N	0.007932	2.330407	-2.490224
N	0.427068	-1.061329	-2.21508
H	0.238766	-1.954373	-1.769169
H	1.405469	-0.848205	-1.998174
N	-0.446292	-1.145175	0.782159
O	-0.606157	-0.965459	1.993815
O	-0.555683	-2.250597	0.231825
H	2.607225	0.0	0.0
