14

C	-0.322234	0.0869	-1.479403
C	0.0	0.0	0.0
F	0.008268	-1.13125	-2.097368
H	1.08907	0.0	0.0
H	-0.323791	0.897698	0.524205
C	-1.749969	0.323927	-1.802879
N	-2.865552	0.602013	-2.045403
N	0.475863	1.156872	-1.960624
H	0.464661	1.173793	-2.972637
H	1.435128	1.002875	-1.620112
N	-0.573184	-1.153725	0.701494
O	-0.223528	-1.293718	1.872937
O	-1.359451	-1.898543	0.107543
H	2.714127	0.0	0.0
