14

C	-0.341938	0.091951	-1.477315
C	0.0	0.0	0.0
F	-0.050882	-1.108151	-2.091501
H	1.089244	0.0	0.0
H	-0.298257	0.914541	0.516423
C	-1.7697	0.405547	-1.732596
N	-2.882381	0.739242	-1.903401
N	0.490333	1.091849	-2.098945
H	0.171932	2.019391	-1.843685
H	1.434159	0.956957	-1.714733
N	-0.58829	-1.116901	0.745379
O	-0.295645	-1.182114	1.940443
O	-1.321787	-1.918296	0.157324
H	2.703387	0.0	0.0
