14

C	-0.317573	-0.034799	-1.490514
C	0.0	0.0	0.0
F	-0.348219	-1.43355	-1.805059
H	1.095067	0.0	0.0
H	-0.398659	-0.869578	0.513337
C	-1.675564	0.427664	-1.870753
N	-2.757419	0.749184	-2.194556
N	0.672901	0.652696	-2.196662
H	0.656266	0.448829	-3.185727
H	1.590788	0.488213	-1.766822
N	-0.461578	1.19423	0.698779
O	-0.614647	2.238664	0.058931
O	-0.597704	1.09666	1.921955
H	2.684966	0.0	0.0
