14

C	-0.31572	-0.148041	-1.483574
C	0.0	0.0	0.0
F	-1.602147	-0.67951	-1.691428
H	1.090711	0.0	0.0
H	-0.426323	0.896885	0.439227
C	-0.392797	1.221226	-2.073573
N	-0.412336	2.278533	-2.587751
N	0.657054	-0.957539	-2.111028
H	0.762608	-0.740215	-3.091531
H	1.553549	-0.864959	-1.61723
N	-0.461131	-1.135563	0.797013
O	-1.021014	-0.87781	1.8709
O	-0.207024	-2.270999	0.398234
H	2.667474	0.0	0.0
