14
Coordinates from ORCA-job run
  C   -0.58809686679281     -0.73501003221380      0.29099628999809
  C   0.35094662427393      0.44868845860216      0.10197596020855
  Br  -0.24267600115664     -1.32998626181123      2.22066253167863
  H   0.13454024936929      1.27736223817021      0.77738177554367
  H   -0.22846118934201     -1.58521468142767     -0.28542232327716
  N   -1.91997573710299     -0.45380026203700      0.01851932942940
  H   -2.31580219019450      0.30195842901811      0.55768115338377
  H   -2.51268224121632     -1.26982746584203      0.03114188621005
  N   0.33279832722842      1.03392869019134     -1.30796860532675
  O   -0.75850986063336      1.36807685605727     -1.74320390194058
  O   1.41612589212991      1.14959866600444     -1.86823260462470
  N   1.76554958783581      0.02768516429533      0.35295742753448
  O   2.43686882170148      0.76374516179149      1.06649655852868
  O   2.13037458389979     -0.99620496079861     -0.21198547734613
