14
Coordinates from ORCA-job run
  C   -0.54109133207887     -0.64093511413653      0.70234514326578
  C   0.52134364510557     -0.07610977409967     -0.25312564494451
  Br  -0.77290476146498      0.48974454397183      2.26914363594770
  H   0.83883782004854     -0.85897042113992     -0.94369460559307
  H   -0.12787170807441     -1.57346567055889      1.08836377918945
  N   -1.80813053380385     -0.89663302218329      0.09301586998805
  H   -2.22878867568128     -0.06260229886809     -0.29435941401893
  H   -1.76115382453004     -1.63646393661895     -0.59562512039946
  N   1.76486461013130      0.36099396380672      0.46522463307988
  O   2.29255027448379     -0.53487831274341      1.11328561482223
  O   2.14191874940589      1.51702764636368      0.34230424843930
  N   0.01726296015054      1.03602200404717     -1.11042737349301
  O   -0.61893279454595      1.93228895973178     -0.56824482064643
  O   0.28109557085374      0.94198143242755     -2.30820594563699
