17

C	0.0	0.0	0.0
C	-0.618633	-0.041174	-1.389188
F	1.389174	0.0	0.0
H	-1.72344	-0.173978	-1.115556
C	-0.482848	1.196159	0.791284
H	-0.111283	1.128128	1.816327
H	-1.582103	1.161294	0.772185
H	-0.104175	2.114247	0.337213
C	-0.360914	-1.250518	0.715434
N	-0.526892	-2.269977	1.273786
C	-0.118563	-1.178347	-2.147784
N	0.2891	-2.072298	-2.794655
C	-0.454809	1.258329	-2.17666
H	-0.760835	1.102699	-3.213506
H	-1.102437	2.026045	-1.750022
H	0.581704	1.607664	-2.17309
H	-3.077005	0.0	0.0
