17

C	0.0	0.0	0.0
C	-0.356802	-0.047481	-1.514907
F	1.389868	0.0	0.0
H	0.439898	-0.666693	-1.947249
C	-0.607535	1.142851	0.76902
H	-0.304032	2.094105	0.328255
H	-0.280885	1.101938	1.811201
H	-1.703154	1.031963	0.717495
C	-0.364979	-1.29927	0.608263
N	-0.526392	-2.361562	1.082628
C	-0.175088	1.290456	-2.086657
N	-0.018647	2.343899	-2.582419
C	-1.719475	-0.651135	-1.867679
H	-2.541673	-0.27862	-1.218055
H	-1.67253	-1.734392	-1.727057
H	-1.950484	-0.444876	-2.916266
H	-3.807811	0.0	0.0
