17

C	0.0	0.0	0.0
C	-0.35465	0.00605	-1.514708
F	1.389887	0.0	0.0
H	0.430373	-0.614758	-1.964914
C	-0.602427	1.117766	0.809535
H	-0.271327	1.040376	1.848194
H	-0.295362	2.08212	0.400483
H	-1.698089	1.013405	0.760461
C	-0.370107	-1.31758	0.564382
N	-0.542414	-2.388554	1.014295
C	-0.147805	1.356769	-2.042258
N	0.029676	2.426363	-2.493941
C	-1.728143	-0.560228	-1.886157
H	-1.699703	-1.648404	-1.786268
H	-1.957636	-0.312864	-2.925804
H	-2.546302	-0.202409	-1.22254
H	-3.835725	0.0	0.0
