17

C	0.0	0.0	0.0
C	-0.35164	0.016576	-1.515792
F	1.389723	0.0	0.0
H	0.43807	-0.596035	-1.969621
C	-0.607657	1.110865	0.81444
H	-0.282829	1.026668	1.853752
H	-0.301507	2.078836	0.413283
H	-1.702259	1.003627	0.758708
C	-0.370781	-1.322976	0.551763
N	-0.543333	-2.406961	0.969602
C	-0.143305	1.373561	-2.031771
N	0.040765	2.442821	-2.483011
C	-1.721517	-0.550138	-1.896167
H	-1.686918	-1.6404	-1.822407
H	-2.536218	-0.209434	-1.221402
H	-1.959465	-0.279037	-2.926613
H	-3.813735	0.0	0.0
