14
Coordinates from ORCA-job run
  C   -0.50157280628221     -0.52293856644677      0.12753105053530
  C   0.80222383545741     -0.35194707371383     -0.67059484619382
  Br  -1.37138834926596     -2.16919079262015     -0.50414517619857
  H   0.52253712804483     -0.19989685107381     -1.71649367490043
  H   1.37338548356629     -1.28677307598082     -0.60953340913182
  C   -0.17153604041257     -0.71604137660559      1.53767960840980
  N   0.14406364737747     -0.83049597955004      2.66423001642236
  C   -1.45433362723922      0.65009627644975     -0.05360172579679
  H   -2.36395551541931      0.50680692124773      0.53037028672184
  H   -0.94583158141550      1.55980459165487      0.26768099652601
  H   -1.72216635070760      0.73967036174557     -1.10845786641864
  N   1.50407017204237      0.82369816535578     -0.17723004506650
  H   2.09059407687630      0.58299133412029      0.61180655221336
  H   2.09390992737767      1.21621606541703     -0.89824176712211
