14
Coordinates from ORCA-job run
  C   -0.36081313752163     -0.44981987446589      0.33339119003414
  C   1.05348756296878      0.04881088468488     -0.00212621319151
  Br  -0.68736048214669     -2.11127817718794     -0.68113229746418
  H   1.77194681601804     -0.71937594350633      0.31304344125236
  H   1.22207801214059      0.93490492714425      0.61974249465959
  C   -0.41592332985111     -0.80339373583519      1.74912522004586
  N   -0.43795766123282     -1.03410379092442      2.90145976455428
  C   -1.44033205604262      0.56300049878176     -0.02007342869548
  H   -2.43140464969359      0.16796431117412      0.20399439789221
  H   -1.36385633054074      0.80956943639262     -1.07720569291875
  H   -1.27942913646005      1.47050353271476      0.56965316181408
  N   1.14502024153375      0.43702963981073     -1.39901280430468
  H   1.29868676432929     -0.37857352062994     -1.97791704580493
  H   1.92585738649881      1.06576181184659     -1.53194218787300
