14
Coordinates from ORCA-job run
  C   -0.39184591179513     -0.46029068720525      0.27991477305789
  C   1.05452172388551     -0.01707149322893      0.00866396432507
  Br  -0.80761593606971     -1.97604026773488     -0.91449720241354
  H   1.26917617844013      0.78341960476825      0.72524973828915
  H   1.72039709706081     -0.85846723631359      0.24170858034388
  C   -0.48491839895234     -0.96464422687557      1.64695154395318
  N   -0.54002664775734     -1.31808956688690      2.76667745557419
  C   -1.40255335289905      0.65071616719957      0.03498548440790
  H   -2.41874031352023      0.29643033842474      0.20920659201793
  H   -1.29806609108361      1.00597557868660     -0.98838757682390
  H   -1.19289505009136      1.47664845105284      0.72150158122909
  N   1.18720515855313      0.51500760163810     -1.33633596886788
  H   1.30060589662953     -0.23993374606587     -2.00048334162061
  H   2.00475564759965      1.10733948254089     -1.39415562347234
