14
Coordinates from ORCA-job run
  C   -0.40368601013074     -0.28026090928830      0.25068968672067
  C   0.76173943985408      0.27075764185588     -0.57442141310914
  Br  -0.43322998097141     -2.24257736537074      0.04365237346334
  H   0.55568823242023      0.02704916922939     -1.62729865722447
  H   0.72496650875364      1.36100004160537     -0.47100570425713
  C   -0.20175586423941      0.00450949674577      1.66842025469008
  N   -0.09734837361576      0.29449911872707      2.80219529044319
  C   -1.74345860331740      0.26905198085590     -0.22424211584572
  H   -1.89063762338161      0.02907438808193     -1.27882870288364
  H   -2.56486636463194     -0.15713053117130      0.35186170726282
  H   -1.75183186477811      1.35556217836469     -0.09765245089468
  N   2.03676102537716     -0.19592463105403     -0.06775006349149
  H   2.78615247209682      0.40088314644904     -0.39058706046943
  H   2.22150700656444     -1.13849372503066     -0.38503314440438
