14
Coordinates from ORCA-job run
  C   -0.45277146536699     -0.34582569739992      0.14816140962684
  C   0.73617291401796      0.25968787916544     -0.61137958456396
  Br  -0.75954021884929     -2.17715711123925     -0.48245179033597
  H   0.51028905129624      0.18411260236536     -1.67819663288324
  H   0.75427092903273      1.32981983557840     -0.34897990890574
  C   -0.11972590714680     -0.41936777949418      1.56887377545737
  N   0.17450795406391     -0.40782453255172      2.70694021879755
  C   -1.72646571233858      0.46455071117662     -0.06552691611820
  H   -2.56836365820834      0.00949364356883      0.45611743483516
  H   -1.58335928532452      1.48015095528570      0.31383810240008
  H   -1.95771452885597      0.50889598312681     -1.13156863372107
  N   1.96777760162610     -0.44708422482050     -0.32585645729308
  H   2.39018590626945     -0.10764426735787      0.52844873566297
  H   2.63273641978411     -0.33180799740373     -1.07741975295873
