14
Coordinates from ORCA-job run
  C   -0.47854687322205     -0.53998563157877      0.13444312680919
  C   0.80869702026783     -0.32858002885614     -0.67943253954089
  Br  -1.29837240368757     -2.21923332407854     -0.47669077469629
  H   1.41358415260178     -1.24227695421567     -0.62362537119717
  H   0.51166527114113     -0.18892458225532     -1.72232340833620
  C   -0.13078143289319     -0.71221119598832      1.54294069506425
  N   0.16615919181853     -0.79701400908249      2.67714402826170
  C   -1.47309579098289      0.59850785799841     -0.04284053665273
  H   -1.75615782974217      0.67095750393922     -1.09507091582208
  H   -2.37044115861609      0.42904849075684      0.55301106361686
  H   -0.99295092437451      1.52771494975699      0.26596534664295
  N   1.47550885206575      0.87327307540201     -0.19882121128129
  H   2.05440621447360      1.27305137479128     -0.92493413599389
  H   2.07032571114985      0.65667247341048      0.59123463312559
