14
Coordinates from ORCA-job run
  C   -0.43341592186688     -0.55417602818077      0.10600843235474
  C   0.85537458916882     -0.39009727639925     -0.73802762178442
  Br  -1.34265760712957     -2.18354541433292     -0.51355394949773
  H   1.43087382056055     -1.31598507779582     -0.66488387038879
  H   0.54795464639326     -0.27822683187019     -1.78193456005740
  C   -0.06640248645309     -0.75526547213866      1.50476856114438
  N   0.28745168392631     -0.86209166416162      2.62088319466131
  C   -1.39091247349693      0.62245877969935     -0.03651187969489
  H   -2.30636485429923      0.45145920568159      0.53029501062469
  H   -1.64818679855388      0.75867616990167     -1.08908556742226
  H   -0.91848017576158      1.53200244029468      0.34217425902006
  N   1.70412575246440      0.71813845211795     -0.36776592847436
  H   2.02901846633448      0.64438226420183      0.58796826843374
  H   1.25362135871334      1.61227045298215     -0.50233434891906
