14
Coordinates from ORCA-job run
  C   -0.45969771218472     -0.53260080593713      0.11098970025790
  C   0.84789611453772     -0.44416515306640     -0.71532977111154
  Br  -1.42942531203358     -2.13433668868777     -0.48655106642833
  H   1.38035223833850     -1.39284613908249     -0.61373668684898
  H   0.56101759938605     -0.34101597148536     -1.76596105338103
  C   -0.12259166240882     -0.71518693018453      1.51997985838482
  N   0.20888136182631     -0.80843909951603      2.64409744226623
  C   -1.36177098322491      0.68159765985976     -0.07404657385910
  H   -2.29366557878302      0.56319494771177      0.47902773130546
  H   -1.59408367409142      0.80608878479292     -1.13382882235258
  H   -0.85673587698137      1.57776610867223      0.29442338702854
  N   1.74004529474913      0.63299610210597     -0.35478019927561
  H   2.04881868958712      0.56372603001022      0.60660754877949
  H   1.33095950128300      1.54322115480685     -0.51189149476526
