14
Coordinates from ORCA-job run
  C   -0.33785974751030     -0.45581122941195      0.30080723550164
  C   1.14118786218520     -0.14131893330595     -0.04568804695977
  Br  -0.95755097746603     -1.91917077797663     -0.86516575321986
  H   1.47893435037180      0.59917076375694      0.68838051865388
  H   1.72579020060853     -1.04981734389494      0.11799599931789
  C   -0.40701429375503     -0.94333542983840      1.67416611159265
  N   -0.43994388230156     -1.28054398342950      2.80004365729987
  C   -1.26037569896745      0.74049861718453      0.11053016518954
  H   -1.24880350530862      1.05929813959374     -0.93215713702337
  H   -0.91767440003922      1.56392830143264      0.74467823124819
  H   -2.28559267736432      0.49006166388797      0.38333445730892
  N   1.41637574230370      0.36168715964041     -1.36811230370028
  H   1.10502261369773     -0.28632298409001     -2.07958940047914
  H   0.98850441354558      1.26267603645114     -1.52922373473014
