14
Coordinates from ORCA-job run
  C   -0.38941265789729     -0.24519045490759      0.21744949592873
  C   0.77397398155825      0.18319165880792     -0.70804374721511
  Br  -0.44050848234637     -2.21304921878491      0.28802396438116
  H   0.56968019676053     -0.23908333112390     -1.69642590640390
  H   0.71020905749895      1.27417181205497     -0.79583081134029
  C   -0.12429021780880      0.22622270686692      1.57300035946924
  N   0.12639172207143      0.66404645364258      2.63491859356565
  C   -1.73268548748352      0.26079852536770     -0.29134992553207
  H   -2.54874074703916     -0.07395714938444      0.34936673120636
  H   -1.72320922708562      1.35435364654590     -0.30838808169117
  H   -1.90433083499009     -0.11030556765339     -1.30352532556288
  N   2.11406394636316     -0.16615802605997     -0.30995385882625
  H   2.35272046441259      0.25450868446070      0.57946248936938
  H   2.21613828598593     -1.16954973983247     -0.22970397734883
