14
Coordinates from ORCA-job run
  C   -0.43589148250542     -0.54714703380147      0.12004160945853
  C   0.85584689038297     -0.42146238729175     -0.72501634752745
  Br  -1.35885503695899     -2.18696587405760     -0.45060731120416
  H   0.55217293659071     -0.33418497991551     -1.77234387094930
  H   1.42105133373098     -1.35124871277166     -0.62637871234771
  C   -0.07872190837893     -0.70508806927972      1.52680230242331
  N   0.23170662712623     -0.76422502840122      2.65926143428449
  C   -1.38253167495268      0.63305613221423     -0.06201657513568
  H   -1.63754254360118      0.73703183271551     -1.11880703438291
  H   -2.29984505778784      0.48902984591808      0.50913857986169
  H   -0.90222178390383      1.55020393584545      0.28730316670678
  N   1.71704260942815      0.68654464432566     -0.38283535441060
  H   2.04243078945663      0.63250277934898      0.57366981515822
  H   1.27635830137320      1.58195291515103     -0.53821170193522
