17

C	0.0	0.0	0.0
C	-0.489945	-0.073857	-1.475104
Cl	1.800142	0.0	0.0
H	-1.550013	0.201671	-1.406557
N	-0.467681	1.104245	0.780229
H	-1.483223	0.974978	0.854202
H	-0.309923	1.951532	0.246548
C	-0.380265	-1.251422	0.678549
N	-0.574027	-2.263467	1.242407
C	-0.31709	-1.417886	-2.141663
H	0.713675	-1.770348	-2.086755
H	-0.605626	-1.352457	-3.190819
H	-0.979627	-2.128541	-1.646909
N	0.190043	1.008537	-2.254194
O	0.92965	0.69724	-3.187209
O	-0.029642	2.170647	-1.904649
Cl	-3.437795	0.0	0.0
