17

C	0.0	0.0	0.0
C	-0.31955	0.162902	-1.543735
Cl	1.858764	0.0	0.0
H	0.592801	-0.095486	-2.083033
N	-0.45858	1.000567	0.899903
H	-1.47988	0.870517	0.947844
H	-0.262275	1.920275	0.524403
C	-0.339456	-1.309927	0.573966
N	-0.500654	-2.308798	1.170716
C	-0.746828	1.569381	-1.891986
H	-1.707082	1.782832	-1.423093
H	-0.851799	1.666276	-2.971598
H	0.015975	2.279941	-1.561708
N	-1.268961	-0.856817	-2.13826
O	-2.055422	-0.47235	-2.993624
O	-1.051518	-2.027323	-1.844451
Cl	-3.294115	0.0	0.0
