13
Coordinates from ORCA-job run
  C   0.16083527786428     -0.39412056156487     -0.48490772793734
  C   -0.71069856753148      0.84664373502858     -0.56034556549195
  F   -0.04729965516757     -1.14475977027235     -1.60904408967531
  H   -1.74870262344938      0.54136689827183     -0.68814964806430
  H   -0.39117431284062      1.41153994928438     -1.43898904583717
  N   -0.39156691911424     -1.33344340558166      0.63692300214134
  O   -1.60076442378728     -1.31889236623505      0.83696309326157
  O   0.43175583941876     -2.05549862883363      1.18865200396799
  N   1.51863434580224     -0.11871072742566     -0.34612014849169
  H   2.04688128408693     -0.96207883611760     -0.16059431707093
  H   1.70203714658088      0.57053196244813      0.37076999235647
  C   -0.56667609794913      1.65998104727136      0.64159370472628
  N   -0.40226129391341      2.29544070372652      1.61424874611505
