13
Coordinates from ORCA-job run
  C   0.00287760184646     -0.36781554153447     -0.19643988630356
  C   -0.67637365643312      0.86056089295776      0.38535122881974
  F   -0.59807655794302     -0.65659363634217     -1.41449247982631
  H   -1.75640794280111      0.71175801844429      0.37109304126624
  H   -0.35999489419432      0.99537143392204      1.42047791024924
  N   -0.31969761586592     -1.59803550294690      0.65082503772966
  O   0.29335864057321     -2.61490274003359      0.34988111240365
  O   -1.17390389891816     -1.48929248064915      1.52346862787557
  N   1.39217734841254     -0.26493844719354     -0.24843258495896
  H   1.80846308665891     -1.11337812927118     -0.61023051354759
  H   1.69263144761511      0.54273351302529     -0.77814969917545
  C   -0.31583929268113      2.03403105781569     -0.40539370631319
  N   0.01178573373055      2.95950156180592     -1.04795808821904
