13

C	0.0	0.0	0.0
C	-0.433522	-0.413077	-1.431763
Br	2.048088	0.0	0.0
H	0.447114	-0.54197	-2.065235
H	-0.163007	1.075614	0.131062
H	-0.932447	-1.379712	-1.331878
N	-0.584224	-0.821784	0.991668
H	-0.459283	-0.376798	1.89548
H	-1.607018	-0.696819	0.730202
N	-1.361747	0.501972	-2.077993
H	-0.942419	1.42584	-2.099448
H	-2.164517	0.514447	-1.426549
F	-2.877226	0.0	0.0
