16

C	0.0	0.0	0.0
C	-0.390989	-0.160439	-1.517704
Cl	1.791207	0.0	0.0
H	0.13103	-1.074421	-1.829513
C	-0.413485	1.312428	0.499397
N	-0.700844	2.388212	0.875823
C	-0.584721	-1.11974	0.836958
H	-1.676164	-1.020536	0.829112
H	-0.227407	-1.052533	1.865908
H	-0.289894	-2.086233	0.419335
C	0.196515	0.94933	-2.290904
N	0.648807	1.825799	-2.928077
N	-1.775469	-0.287108	-1.854824
H	-2.183224	-1.132537	-1.475528
H	-2.359812	0.457595	-1.481502
Br	-4.426058	0.0	0.0
