16

C	0.0	0.0	0.0
C	-0.390124	0.022483	-1.526015
Cl	1.791056	0.0	0.0
H	0.135425	-0.84411	-1.94758
C	-0.41936	1.239495	0.655088
N	-0.71636	2.245709	1.184651
C	-0.584413	-1.21358	0.694785
H	-1.67554	-1.11571	0.702727
H	-0.223337	-1.274406	1.722559
H	-0.291634	-2.120532	0.1589
C	0.192246	1.221907	-2.157404
N	0.635107	2.176795	-2.677441
N	-1.774339	-0.066917	-1.87696
H	-2.361475	0.622606	-1.412788
H	-2.177464	-0.955951	-1.609631
Br	-4.431237	0.0	0.0
