16

C	0.0	0.0	0.0
C	-0.562362	0.087751	-1.42415
Cl	1.796592	0.0	0.0
H	-1.658408	0.090235	-1.268801
C	-0.384916	1.21441	0.730178
N	-0.63193	2.184344	1.344345
C	-0.492607	-1.245689	0.720439
H	-0.133207	-2.137216	0.202145
H	-1.586621	-1.218787	0.721675
H	-0.118371	-1.254379	1.745419
C	-0.204131	-1.119668	-2.188233
N	0.079676	-2.040882	-2.861078
N	-0.168974	1.322785	-2.075341
H	-0.852155	1.569312	-2.7794
H	0.740498	1.230086	-2.510593
Br	-3.822051	0.0	0.0
