16
Coordinates from ORCA-job run
  C   0.97334008313351     -0.22483017202243      0.59427792540726
  C   -0.23544690645452     -0.31362220604697     -0.32990773330719
  H   0.70518275240534      0.15641679732807      1.58006753325240
  H   0.12129118985569     -0.70422962486914     -1.28910143845107
  H   1.47893874586961     -1.18854153909996      0.67992934462625
  N   1.97183595547663      0.72570456044172      0.03047762527673
  O   2.15005372385053      1.78991342740993      0.62058045683089
  O   2.51665475479690      0.38995813889636     -1.01927557081741
  C   -0.85864883170838      1.06065270339658     -0.55418527097680
  H   -0.16568224201578      1.74838751577401     -1.04384971769711
  H   -1.74440726101550      0.97688011243506     -1.18839440244785
  H   -1.16342161124329      1.50906666600881      0.39642071807901
  C   -1.24066226883262     -1.29514698104273      0.26688108439502
  H   -0.79856558050702     -2.28387373489929      0.41662560374240
  H   -1.60810392892608     -0.93614216862599      1.23306709339565
  H   -2.10235857468502     -1.41059349508403     -0.39461325130818
