17
Coordinates from ORCA-job run
  C   0.61117278913186     -0.05077541017681     -0.30185753478867
  C   -0.91954812645988     -0.04710798552921     -0.14963362668048
  Br  0.98059103770128      0.15945916261861     -2.28798141386265
  H   -1.34134259293579     -0.88086687430095     -0.71021882618486
  C   1.16047625617093     -1.41704701696728      0.07387061750927
  H   2.23988698933046     -1.44248769526892     -0.08745980855688
  H   0.96088557881515     -1.60785168225618      1.13063802048094
  H   0.71048465575753     -2.20184731035363     -0.53465717824256
  N   1.20673930319735      0.95445565782065      0.49058484392930
  H   2.21660418339420      0.90425704374165      0.46722803245291
  H   0.88760869144706      1.88164006351400      0.23910684356134
  N   -1.52675874316167      1.17608394974504     -0.81126194115101
  O   -1.11407182622715      2.27248000878670     -0.43823903833500
  O   -2.41917367199570      0.98649000174510     -1.62851936629393
  N   -1.35444679028859     -0.05373553919775      1.21008774608204
  H   -0.64797219388996      0.33468663893506      1.82038634281352
  H   -1.65013553998707     -0.96683301285607      1.51692628726674
