17
Coordinates from ORCA-job run
  C   0.62032504798528     -0.20209746008178     -0.48186736398199
  C   -0.89815410006144      0.02286558830326     -0.29784476025317
  Br  0.71477299239833     -1.63591813837745     -1.88246738087275
  H   -1.31827591848639      0.34900006595194     -1.25658380389242
  C   1.31382936072091     -0.72422068926761      0.76058335665613
  H   1.23738195593673      0.01877840519592      1.55854225293579
  H   0.85778166151025     -1.64348738408704      1.12002737506882
  H   2.36370244706868     -0.90339888977505      0.52674651422492
  N   1.31019456361768      0.93478966351507     -0.99007746829573
  H   0.76125344545139      1.47422835993802     -1.64671723502444
  H   1.64568481948674      1.53038181575002     -0.24465161102770
  N   -1.04776138424552      1.27127690458899      0.56499269379862
  O   -1.21481766981935      2.32369761621634     -0.05316452078382
  O   -0.95653477635822      1.16237960208618      1.78202558146329
  N   -1.55222902807497     -1.06712495874612      0.34917958975877
  H   -2.55842345698921     -0.97724462843364      0.28156125710410
  H   -1.27772996014088     -1.93590587277705     -0.09128447687844
