17
Coordinates from ORCA-job run
  C   0.58117541713723     -0.25897874097158     -0.23596801370465
  C   -0.84561769677981      0.27445757782209     -0.00939166461027
  Br  0.56066457573275     -2.24250331669984     -0.37984212059842
  H   -0.71565396400990      1.35599555105104      0.11234382941786
  C   1.49862160901633      0.11421213650348      0.91544157954348
  H   2.50489683666542     -0.25608852627712      0.70997682648331
  H   1.52648323175454      1.20225441022123      1.02144363553789
  H   1.16593181114739     -0.32113172761286      1.85573308844370
  N   1.05197880400964      0.34542541770208     -1.45724904176641
  H   2.05813712841926      0.45569506370986     -1.42636980973634
  H   0.83618353107335     -0.22972138288377     -2.26172207247121
  N   -1.36912868380975     -0.15009218433243      1.34766742998420
  O   -1.22695526161785      0.68222080367541      2.24719055566355
  O   -1.87056062890338     -1.25978509042547      1.47101389922815
  N   -1.77113316494209     -0.13459826541138     -1.01602255098858
  H   -2.61768743427452      0.41855118209922     -0.96269399034815
  H   -1.36533611061864      0.00408709183003     -1.93155158007810
