14

C	0.0	0.0	0.0
C	-0.326713	-0.106373	-1.509878
F	1.350967	0.0	0.0
H	0.368892	0.599675	-1.979021
N	-0.388184	1.359435	0.531465
O	-0.403448	2.271153	-0.287359
O	-0.501992	1.465873	1.743976
C	-0.501458	-1.06719	0.856332
N	-0.571865	-2.004082	1.565612
C	-1.674582	0.213868	-2.003444
N	-2.475407	0.435457	-2.840479
C	0.066661	-1.445654	-1.962984
N	0.412598	-2.499145	-2.349388
F	-2.264801	0.0	0.0
