14

C	0.0	0.0	0.0
C	-0.345489	-0.316905	-1.479544
F	1.351175	0.0	0.0
H	0.466202	0.14917	-2.050936
N	-0.369049	1.426637	0.334601
O	-0.335699	2.214782	-0.605122
O	-0.498441	1.709186	1.51625
C	-0.490798	-0.929486	1.007971
N	-0.562427	-1.740405	1.857529
C	-1.609343	0.163205	-2.051627
N	-2.374585	0.493925	-2.885155
C	-0.216266	-1.763552	-1.688186
N	-0.071	-2.90989	-1.899215
F	-2.244482	0.0	0.0
