14

C	0.0	0.0	0.0
C	-0.337075	0.015279	-1.510052
F	1.351067	0.0	0.0
H	0.386479	0.723646	-1.935539
N	-0.382113	1.312031	0.643758
O	-0.496242	1.319963	1.860134
O	-0.381628	2.289867	-0.096567
C	-0.492681	-1.137058	0.768653
N	-0.582918	-2.125063	1.402555
C	-1.667431	0.449618	-1.959347
N	-2.447475	0.84734	-2.749311
C	-0.01223	-1.302672	-2.06852
N	0.282115	-2.33233	-2.550909
F	-2.26199	0.0	0.0
