14

C	0.0	0.0	0.0
C	-0.470984	0.134548	-1.480882
F	1.346369	0.0	0.0
H	-1.04934	-0.767795	-1.69084
N	-0.346023	1.192559	0.868132
O	-0.57121	0.982444	2.050088
O	-0.194525	2.285754	0.334155
C	-0.469669	-1.242211	0.615687
N	-0.535135	-2.325442	1.070015
C	0.687661	0.196182	-2.402431
N	1.562696	0.260798	-3.182574
C	-1.369956	1.249899	-1.801203
N	-1.984637	2.111227	-2.31226
F	-2.246469	0.0	0.0
