14

C	0.0	0.0	0.0
C	-0.462856	0.206069	-1.474313
F	1.354327	0.0	0.0
H	-0.995398	-0.707301	-1.750235
N	-0.345597	1.155941	0.913754
O	-0.222632	2.269977	0.416901
O	-0.547287	0.900042	2.090883
C	-0.46678	-1.266334	0.564435
N	-0.551863	-2.362599	0.981536
C	0.698166	0.375948	-2.375616
N	1.577924	0.503172	-3.142864
C	-1.40772	1.298782	-1.738088
N	-2.062555	2.136979	-2.238381
F	-2.241443	0.0	0.0
