16

C	-0.519143	0.049852	-1.434436
C	0.0	0.0	0.0
Cl	-0.289555	-1.647498	-2.155816
H	1.087113	0.0	0.0
H	-0.37228	0.892242	0.510068
N	-1.879757	0.463901	-1.500054
H	-2.215912	0.407361	-2.453408
H	-2.448502	-0.12609	-0.905021
C	0.378883	0.969775	-2.237881
H	0.067479	0.976992	-3.285786
H	0.288631	1.981576	-1.835052
H	1.417928	0.649161	-2.158197
N	-0.552866	-1.150434	0.759882
O	0.217607	-1.958252	1.261113
O	-1.787024	-1.212074	0.846
Cl	3.430325	0.0	0.0
