16

C	-0.511513	-0.001868	-1.434171
C	0.0	0.0	0.0
Cl	-0.226364	1.689359	-2.03793
H	1.090249	0.0	0.0
H	-0.413713	0.836874	0.559243
N	0.274978	-0.884049	-2.249592
H	-0.15345	-1.028993	-3.15549
H	0.39981	-1.768376	-1.767778
C	-2.016784	-0.232424	-1.518406
H	-2.562044	0.46166	-0.875182
H	-2.236928	-1.254841	-1.197056
H	-2.366951	-0.108108	-2.546768
N	-0.498559	-1.22059	0.663166
O	-1.254748	-1.095712	1.640365
O	0.007889	-2.297907	0.321312
Cl	2.69165	0.0	0.0
