15

C	-0.554156	0.059933	-1.425663
C	0.0	0.0	0.0
Br	0.087536	1.660555	-2.344574
H	1.090966	0.0	0.0
H	-1.640934	0.143963	-1.408992
C	-0.196336	-1.106597	-2.225307
N	0.064465	-2.036133	-2.89458
N	-0.531992	-1.256337	0.623191
O	0.096164	-1.74787	1.54911
O	-1.619661	-1.675394	0.207928
C	-0.479357	1.14727	0.877502
H	-0.057638	2.083386	0.513722
H	-1.572309	1.214694	0.891334
H	-0.107739	0.985558	1.890594
Cl	3.314324	0.0	0.0
