15

C	-0.441728	0.063149	-1.457087
C	0.0	0.0	0.0
Br	0.018845	-1.560547	-2.435012
H	1.090843	0.0	0.0
H	0.172252	0.842522	-1.915789
C	-1.847417	0.382508	-1.677485
N	-2.953417	0.715862	-1.887635
N	-0.529215	-1.216849	0.676205
O	0.155934	-1.712989	1.561635
O	-1.653222	-1.601075	0.343268
C	-0.489787	1.207043	0.788015
H	-0.113468	2.119312	0.32098
H	-1.581024	1.244582	0.835957
H	-0.074904	1.155781	1.796181
Cl	3.294145	0.0	0.0
