15

C	-0.39424	-0.007893	-1.468909
C	0.0	0.0	0.0
Br	-2.334315	-0.273722	-1.7301
H	1.095883	0.0	0.0
H	0.083301	-0.854354	-1.962451
C	-0.03441	1.237323	-2.13096
N	0.23312	2.239986	-2.684075
N	-0.388644	-1.329613	0.569338
O	-0.127118	-2.322305	-0.108698
O	-0.914197	-1.357768	1.682237
C	-0.537549	1.148018	0.817065
H	-1.627825	1.143369	0.864398
H	-0.139386	1.088589	1.828738
H	-0.192136	2.083851	0.372985
Cl	3.223747	0.0	0.0
