15
Coordinates from ORCA-job run
  C   -0.52499198376195      0.07528120398980      0.19066092687345
  C   0.60656481020309      0.52237067652040     -0.73085940981800
  Cl  -1.44371621939294      1.47817248083188      0.74160760144230
  H   0.14777521325711      1.14161686392918     -1.50531086408940
  H   1.01573672049472     -0.37033443518666     -1.21401216519504
  N   0.11275936112791     -0.61198002457293      1.39821855324728
  O   -0.37591272613866     -0.46471362939952      2.50652770175623
  O   1.06025097957703     -1.34513262805524      1.11814594852093
  C   -1.45346697021960     -0.94172430968389     -0.44316747238041
  H   -2.24083448921608     -1.22390190286921      0.25736206691806
  H   -0.88526024628068     -1.82950834440934     -0.72870818144423
  H   -1.91668782985826     -0.50806657547392     -1.33080823538934
  N   1.59450243825929      1.28414705309571      0.01079364305183
  H   2.39131552211899      0.70753871341967      0.23952096674548
  H   1.90996541983002      2.08823485786406     -0.50997108023914
