15
Coordinates from ORCA-job run
  C   -0.48544399682742      0.02912509927063      0.21094101936100
  C   0.64351270884931      0.47792849508144     -0.70712762100141
  Cl  -1.30079921350918      1.45093083446310      0.88523241234324
  H   1.07763432917118     -0.42418579224580     -1.14220096606993
  H   0.18787777221866      1.06655413924323     -1.51568528235311
  N   0.17127125946611     -0.76649987973674      1.34039525936761
  O   0.76616342065182     -1.76549414010478      0.94595801452954
  O   0.07005618168300     -0.39547889844823      2.49705238453414
  C   -1.49916289874237     -0.86775001395402     -0.46866346513369
  H   -1.00032779786016     -1.75562676269294     -0.85768983749459
  H   -2.27346639997888     -1.16935208416616      0.23869629567565
  H   -1.97204353893274     -0.32493701723943     -1.28824351884166
  N   1.66767888308760      1.16192404882277      0.06011444949890
  H   1.40228421037187      2.12050747206127      0.24259260099582
  H   2.54476508035119      1.16335449964565     -0.44137174541150
