15
Coordinates from ORCA-job run
  C   -0.41725735657045     -0.01476878192271      0.36757310132526
  C   0.93582701600897      0.54123677668881     -0.07404905507754
  Cl  -1.54432146099300      1.34095864190691      0.65056270863830
  H   1.29458097474737      1.21941347066677      0.70622401264713
  H   1.62455974865371     -0.30926597688344     -0.12453029469141
  N   -0.19509456399218     -0.67315889300469      1.72809259536292
  O   0.37832835596174      0.00199699001821      2.57654184726572
  O   -0.57845006465656     -1.83023938367802      1.87166178063633
  C   -1.02482568792365     -0.99006764634938     -0.60482120539549
  H   -1.14903355992277     -0.48088658082954     -1.55824103565587
  H   -1.98412920162082     -1.35446518570466     -0.24190348602426
  H   -0.35466253137227     -1.84082127241764     -0.74071537570420
  N   0.82112790083523      1.13202036436605     -1.39860591533929
  H   1.73300072103982      1.18263936155374     -1.83237632223883
  H   0.46234970980487      2.07540811558959     -1.32441335574877
