13

C	0.0	0.0	0.0
C	-0.397613	0.075744	-1.475526
F	1.351262	0.0	0.0
H	0.192542	-0.706406	-1.974588
H	-0.389694	0.786281	0.629937
N	-0.39453	-1.303136	0.617081
O	-0.493349	-1.311661	1.8404
O	-0.453316	-2.283374	-0.116315
C	0.059572	1.371591	-1.992086
N	0.421653	2.413462	-2.396276
C	-1.819431	-0.142143	-1.831008
N	-2.575502	-0.319825	-2.724319
F	-2.351079	0.0	0.0
