16

C	-0.495763	0.009075	-1.430476
C	0.0	0.0	0.0
Br	0.32414	-1.578685	-2.399358
H	1.091597	0.0	0.0
H	-0.058259	0.846486	-1.964409
N	-1.910652	0.022096	-1.544561
H	-2.310867	-0.811127	-1.132715
H	-2.199123	0.073754	-2.512855
C	-0.512937	-1.130688	0.861966
H	-1.591183	-1.081152	1.051234
H	-0.002358	-1.100675	1.823643
H	-0.262837	-2.076404	0.378208
N	-0.381072	1.311579	0.580817
O	-0.246604	2.316974	-0.121133
O	-0.75569	1.353669	1.756985
F	2.541419	0.0	0.0
