16

C	-0.370264	-0.037119	-1.433362
C	0.0	0.0	0.0
Br	-2.681147	-0.088785	-1.517807
H	1.094791	0.0	0.0
H	-0.289733	-1.037102	-1.845509
N	0.086672	0.926794	-2.266085
H	-0.213122	0.858107	-3.22409
H	0.08797	1.851968	-1.863096
C	-0.434333	-1.209379	0.791255
H	-1.511981	-1.236617	0.962331
H	-0.130512	-2.102243	0.238662
H	0.090201	-1.217891	1.746307
N	-0.391268	1.250101	0.663661
O	-0.269878	2.314609	0.041764
O	-0.75713	1.203167	1.839036
F	2.478676	0.0	0.0
