16

C	-0.163599	-0.155228	-1.516359
C	0.0	0.0	0.0
Br	-0.214424	1.764424	-2.424929
H	1.091839	0.0	0.0
H	-1.131107	-0.509453	-1.874509
N	0.926178	-0.905304	-1.923544
H	1.018427	-1.023316	-2.920334
H	1.797961	-0.614624	-1.421535
C	-0.547149	-1.217992	0.723969
H	-1.618037	-1.35224	0.546746
H	-0.376232	-1.115439	1.799432
H	0.002296	-2.09214	0.37382
N	-0.659824	1.204815	0.539901
O	-1.889848	1.255877	0.431376
O	0.022911	2.057604	1.10043
F	2.680141	0.0	0.0
