16

C	-0.481482	-0.030958	-1.436704
C	0.0	0.0	0.0
Br	0.165514	-1.660073	-2.326403
H	1.090929	0.0	0.0
H	0.023743	0.763111	-1.989941
N	-1.932671	-0.025187	-1.553808
H	-2.183805	-0.044402	-2.5366
H	-2.236955	0.871509	-1.184612
C	-0.479915	-1.125586	0.891277
H	-0.170767	-2.07094	0.44593
H	0.006376	-1.035597	1.86122
H	-1.56565	-1.131758	1.019927
N	-0.385763	1.302081	0.581424
O	-0.372792	1.422583	1.806998
O	-0.65137	2.246316	-0.181691
F	2.531766	0.0	0.0
