12

C	0.0	0.0	0.0
C	-0.479808	0.036759	-1.476432
Cl	1.776074	0.0	0.0
H	0.403108	0.088988	-2.123372
H	-0.353629	0.897109	0.494663
H	-0.362007	-0.873735	0.52774
N	-1.295892	1.221127	-1.704867
H	-1.614542	1.198792	-2.669276
H	-2.10768	0.986849	-1.073705
C	-1.137696	-1.243324	-1.826159
N	-1.538211	-2.280347	-2.205384
F	-2.652286	0.0	0.0
