12

C	0.0	0.0	0.0
C	-0.667174	0.168959	-1.355889
Cl	1.771192	0.0	0.0
H	-1.662482	0.566593	-1.028719
H	-0.361148	-0.933405	0.418276
H	-0.311925	0.811527	0.652702
N	-0.913987	-1.160956	-1.949591
H	-1.059428	-1.061019	-2.949591
H	-1.824453	-1.377521	-1.541421
C	0.031936	1.070105	-2.25876
N	0.531564	1.825907	-3.010307
F	-2.811398	0.0	0.0
