12

C	0.0	0.0	0.0
C	-0.464861	-0.087054	-1.490946
Cl	1.778293	0.0	0.0
H	0.435835	-0.057814	-2.116536
H	-0.357689	0.927197	0.43359
H	-0.364412	-0.827048	0.597396
N	-1.375443	0.944874	-1.95463
H	-0.90938	1.837191	-1.814492
H	-2.139884	0.831527	-1.242761
C	-1.053803	-1.412626	-1.733923
N	-1.40091	-2.503739	-1.991538
F	-2.607483	0.0	0.0
