12

C	0.0	0.0	0.0
C	-0.614884	-0.082289	-1.367258
Cl	1.781162	0.0	0.0
H	-1.744198	-0.045551	-0.984159
H	-0.336487	0.9033	0.502118
H	-0.339326	-0.867976	0.557301
N	-0.298972	-1.358333	-2.009799
H	-0.955454	-1.514719	-2.765405
H	0.633219	-1.328274	-2.413253
C	-0.293637	1.07779	-2.193465
N	-0.084533	1.998632	-2.89769
F	-2.766481	0.0	0.0
