12

C	0.0	0.0	0.0
C	-0.596588	-0.155229	-1.385562
Cl	1.778601	0.0	0.0
H	-1.701359	0.001913	-1.074429
H	-0.336191	0.936167	0.438595
H	-0.361181	-0.815929	0.619206
N	-0.441538	-1.477342	-1.983794
H	0.496979	-1.827354	-1.815226
H	-1.098478	-2.084509	-1.507203
C	-0.129802	0.878511	-2.299917
N	0.239804	1.714847	-3.039728
F	-2.739709	0.0	0.0
