17
Coordinates from ORCA-job run
  C   -0.63914243735984      0.23899919097422      0.07114864106901
  C   0.81167890163118     -0.24230994424720     -0.04093825962916
  Cl  -0.87128105509280      1.05556671481247      1.61748611966923
  H   0.99374371873109     -0.51934419487612     -1.08096595713838
  N   -0.93520662924532      1.20571523215492     -1.08736942452914
  O   -1.43957033531440      2.28904916529115     -0.85147235192992
  O   -0.68500136737237      0.73485813572474     -2.19136726088157
  C   -1.62636474941380     -0.90248997401749     -0.07702160212935
  H   -1.44185994836789     -1.42324593464709     -1.01731748564260
  H   -2.64180473886240     -0.50150603958444     -0.07494614911577
  H   -1.50539918234675     -1.60081183246407      0.74726792251730
  N   1.06337021548280     -1.32672990133394      0.82754724680336
  H   1.96235556674060     -1.74511100384239      0.63142178467629
  H   1.05771355424669     -1.02449493408093      1.79415740543960
  N   1.74218805003929      0.96528848297696      0.19470328995430
  O   2.58684516547860      0.86236828170452      1.07644357624584
  O   1.56673527102532      1.93319855545468     -0.53677749537905
