17
Coordinates from ORCA-job run
  C   -0.63545059764727      0.23988200596942      0.09711967946903
  C   0.80905262227643     -0.24330131434686     -0.07481125267558
  Cl  -0.79804242572936      1.07194227651317      1.64405569511258
  H   0.94386422156553     -0.53191855669786     -1.11886971887754
  N   -0.98262600388026      1.19521612230414     -1.05651619654227
  O   -1.47382646432607      2.28207964249031     -0.80915987180728
  O   -0.78336158222434      0.71264319934156     -2.16583687058414
  C   -1.62813359901572     -0.90274499195296      0.00475153020450
  H   -1.48676183488592     -1.43203370012885     -0.93824336302190
  H   -2.64252730731967     -0.50158614207149      0.04953831856113
  H   -1.46934023567822     -1.59338931036187      0.82907283860862
  N   1.09955269656684     -1.31820534894493      0.79330350460965
  H   1.13753379666007     -1.00548366074321      1.75580291853582
  H   1.98824098355140     -1.74001730852129      0.56110716119339
  N   1.74898877406071      0.96657582738884      0.10568321958676
  O   2.63054947472512      0.87399941259361      0.95171547560653
  O   1.54228748130074      1.92534184716829     -0.62971306797931
