17
Coordinates from ORCA-job run
  C   -0.73355877579323     -0.15135219174299      0.17753238316870
  C   0.73527258313008     -0.10714105736334      0.66714996115155
  Cl  -1.64299023381860     -1.35380636140065      1.11066705506070
  H   0.72645874723722     -0.08737839524535      1.75481182050510
  N   -1.27972375761232      1.22422591844883      0.58480578639750
  O   -1.82579504245827      1.90001308308462     -0.27939061886711
  O   -1.09728000749232      1.55457480716473      1.75142889981214
  C   -0.94351300344712     -0.37669471464789     -1.29802389789058
  H   -2.00125012584396     -0.27537012022022     -1.53481529788765
  H   -0.38973695290848      0.35303750453129     -1.88889848514138
  H   -0.61116230410974     -1.37778013049402     -1.56552608705218
  N   1.53470529775287      0.95865874863318      0.16656216600510
  H   1.49012554313776      1.06655292213367     -0.83601158735538
  H   1.35877088772202      1.82750900982525      0.64838377265768
  N   1.39615435620573     -1.40305953584771      0.28019438525158
  O   1.50176706075362     -2.26645777870806      1.14501944739506
  O   1.78175572754474     -1.48553170815136     -0.88388970321084
