17
Coordinates from ORCA-job run
  C   -0.77384081649304     -0.06588063721412      0.31179539788410
  C   0.73550221938566     -0.26180943422677      0.58081631154368
  Cl  -1.60282668304468     -0.35469818205778      1.84483202029397
  H   0.82845702148009     -1.18860135203245      1.14771265412806
  N   -0.98066481499720      1.38941045666751     -0.10505203035888
  O   -1.89199908538081      2.04116400679519      0.37382327724253
  O   -0.19576936598768      1.75515431745658     -0.97883928792280
  C   -1.40674756017131     -0.91101728768579     -0.77563555708828
  H   -1.26850845915722     -1.96820166107301     -0.55608276122397
  H   -2.47483366159946     -0.68835287448394     -0.80639192236313
  H   -0.96020207708962     -0.68849882951583     -1.74398186408722
  N   1.28022555269345      0.82496000035198      1.29950491011618
  H   2.12800551422465      0.56026499880782      1.78070041183091
  H   1.48258539510043      1.60005085824168      0.68011925864693
  N   1.50606993425593     -0.58812345193551     -0.71588712968451
  O   2.30760299878767      0.23896705476604     -1.13137999797576
  O   1.28594388799314     -1.69378798286161     -1.20405369098182
