17
Coordinates from ORCA-job run
  C   -0.72933711352993     -0.13296116994703      0.20654736141674
  C   0.75788640446760     -0.11930336842430      0.63895751078222
  Cl  -1.62854602209845     -1.30839682714513      1.18280462735602
  H   0.79161885657946     -0.09142807843423      1.72586608646335
  N   -1.22930455632555      1.25670777424740      0.62450020236614
  O   -0.99046074958946      1.59233589643545      1.77942528473515
  O   -1.79911163925452      1.93673652759055     -0.22087654424332
  C   -1.00063738682930     -0.36274169778311     -1.25830303869137
  H   -0.45717497065595      0.35359516058086     -1.87460024217719
  H   -2.06471976701347     -0.24271501787029     -1.45445114332465
  H   -0.69759048711706     -1.37131728560092     -1.53229773093467
  N   1.56214890134598      0.92353978408508      0.09920598801367
  H   1.48275722833585      1.02497621655481     -0.90190317123152
  H   1.42397866447249      1.79993238686560      0.57974457910861
  N   1.37372692276431     -1.43341550179184      0.23764285894590
  O   1.71219089549583     -1.53425653170213     -0.93945846675773
  O   1.49357481895219     -2.29128826766078      1.10619583817266
