17
Coordinates from ORCA-job run
  C   -0.77181020510685     -0.01390671357957      0.19864094379630
  C   0.71401461938799     -0.30255571580159      0.53310569031270
  Cl  -1.67921557294247      0.30378650474450      1.69366005982367
  H   0.82009976294570     -1.38582878542334      0.64625725463711
  N   -0.84154918352841      1.29476619705238     -0.58921348544301
  O   -0.03234532259642      2.15970711544080     -0.26265529491229
  O   -1.70866579818632      1.40271861616660     -1.44296391833306
  C   -1.46855188901073     -1.12617641034883     -0.55186646569401
  H   -2.50930740900354     -0.85921334527524     -0.72309196475551
  H   -0.97915932805674     -1.30714802999271     -1.50560571159050
  H   -1.43463171744288     -2.02794593609902      0.06209515841097
  N   1.21779161983028      0.34643075866470      1.67285210733557
  H   1.17900571982464      1.35100525882452      1.56135624347955
  H   2.16961743921971      0.06187574669439      1.85596220474726
  N   1.56193770024667     -0.01637078128376     -0.74821470406838
  O   1.06494369917268     -0.28057189849977     -1.83844341104400
  O   2.69682586524668      0.39942741871593     -0.55987470670237
