17
Coordinates from ORCA-job run
  C   -0.61138702217281      0.19579750626347      0.08359713624911
  C   0.90204633199475     -0.11992354437288     -0.00320362286160
  Cl  -1.04031207786726      0.66966313843275      1.72407837611818
  H   1.15265255668763     -0.18743155199665     -1.06322163889270
  N   -0.92341550070663      1.33477025053372     -0.89882618845040
  O   -1.41177250272255      2.37374043013245     -0.48965179879241
  O   -0.65913828013450      1.05347972868402     -2.06357387793778
  C   -1.44823702708359     -0.99155441719073     -0.35238036753717
  H   -2.50135893650161     -0.70623321382745     -0.37751547436591
  H   -1.14427840211697     -1.31836327484045     -1.34758832552668
  H   -1.33068684581807     -1.80663194588862      0.36046799397540
  N   1.35905918578252     -1.26864556147470      0.68658052858824
  H   1.05881980524516     -1.30190344070376      1.65062932286929
  H   1.14447080669634     -2.12372172793544      0.19683873129446
  N   1.65061008467586      1.09639507576292      0.50935699693092
  O   2.20852332546939      1.01167794811005      1.59441462695565
  O   1.59340449857233      2.08988460031129     -0.21100241861661
