17
Coordinates from ORCA-job run
  C   -0.59815409044599      0.31177883301361      0.05664833795032
  C   0.84004886445387     -0.25194039573892     -0.04617269571872
  Cl  -0.81586457074354      1.40432924399500      1.43613574738862
  H   0.87229687251680     -0.87856121435591     -0.93964777715308
  N   -0.94659418319679      1.12735618342102     -1.19125838454988
  O   -2.12373761790270      1.15653254938548     -1.52762467556726
  O   -0.02171322394575      1.71282901899559     -1.74383978181526
  C   -1.58339762961635     -0.83228498069038      0.17171947032864
  H   -1.39598406997423     -1.38452270204081      1.09125514581001
  H   -1.48679776913497     -1.50232734851711     -0.68683099224827
  H   -2.59803774335568     -0.44249534743615      0.19774546530843
  N   1.27709871979090     -1.00239868424913      1.08887621166385
  H   0.91096272777153     -1.94185586134201      1.09744544063625
  H   1.08433762283883     -0.52402362290438      1.95877298504626
  N   1.91572005630779      0.78355468080929     -0.28049622121943
  O   2.07810799437377      1.60745686930821      0.61127941576148
  O   2.58970804026251      0.65657277834659     -1.29400769162197
