17
Coordinates from ORCA-job run
  C   -0.78605046169499     -0.10561840433365      0.12410943105966
  C   0.64559477581288     -0.04539917893994      0.67602751665692
  Cl  -1.70873903054551     -1.37561719664244      0.94736171765354
  H   0.59553482023514      0.08047183136836      1.75558817243678
  N   -1.40125674006036      1.23374627743422      0.56541835926895
  O   -1.27621520560843      1.52363763031279      1.74767490446278
  O   -1.97121675699455      1.89893225616960     -0.28883675894018
  C   -0.89986382789450     -0.25995146662769     -1.37069948913133
  H   -0.39752966195813      0.56442308703738     -1.87608969381970
  H   -0.45637945690926     -1.20685465283518     -1.67485380573815
  H   -1.94914046416188     -0.24509920554938     -1.65958804042534
  N   1.34620591932578      1.02449909474652      0.05969494061972
  H   1.65860187467313      0.77023872439819     -0.86920917048753
  H   2.14045229890433      1.31425616243736      0.61407684628612
  N   1.31580671952153     -1.39942711902839      0.46877939990309
  O   1.77131000253842     -1.61804811428018     -0.65364337032708
  O   1.37188519481639     -2.15518972566758      1.43318904052175
