17
Coordinates from ORCA-job run
  C   -0.77330830711988     -0.06573884122511      0.31272367110596
  C   0.73600936411065     -0.26828453706036      0.57720988390697
  Cl  -1.60006034172445     -0.36131997804737      1.84552931898487
  H   0.82753216567702     -1.19797808735088      1.13950288772863
  N   -0.97478409508039      1.39352538049653     -0.09424999575525
  O   -1.87805444564191      2.04832011702967      0.39513528070744
  O   -0.19292272066067      1.75895663759917     -0.97076253164948
  C   -1.41225891265760     -0.90072468167065     -0.77905649990091
  H   -0.96603727417680     -0.67446486895255     -1.74663458778521
  H   -2.47909568277383     -0.67149457829067     -0.80658533989213
  H   -1.28001714622257     -1.96010494621428     -0.56659649306731
  N   1.28532129481046      0.81340742657222      1.30025009930240
  H   2.13092044348374      0.54313795136836      1.78205444228841
  H   1.49125570698349      1.59046085848982      0.68459668529348
  N   1.50250466484152     -0.59031095991631     -0.72232633198113
  O   1.27680399361520     -1.69263534278195     -1.21536706901803
  O   2.30719129253603      0.23524844995437     -1.13442342026871
