17
Coordinates from ORCA-job run
  C   -0.70622847303205     -0.11865212816468      0.23700711342703
  C   0.81707663805765     -0.09788142271502      0.57600966524513
  Cl  -1.47308768180610     -1.51566451076791      0.99249789056105
  H   0.93075310965202      0.13054904791851      1.63619897133199
  N   -1.31349513399986      1.15002442367460      0.86111501641489
  O   -0.60138959990400      2.15188617536626      0.80759774165989
  O   -2.45426733382223      1.10652188659079      1.29021020296655
  C   -1.03855229755255     -0.06297563864545     -1.23907833124400
  H   -0.59658495492658     -0.92094145516259     -1.74419402860099
  H   -0.65085256557673      0.85912414584221     -1.67516457274383
  H   -2.12180738401977     -0.08860070133261     -1.36598367374744
  N   1.67678085428662      0.73485246306810     -0.20373815026468
  H   1.42803865871656      1.70566758042694     -0.08236112154218
  H   1.64920890381102      0.47664885714344     -1.18144165543850
  N   1.34925248762747     -1.49705813038235      0.41239992441685
  O   1.44802183949792     -1.89958703181487     -0.74517783343355
  O   1.65813293299061     -2.11291356104537      1.42410284099178
