17
Coordinates from ORCA-job run
  C   -0.72246198056292     -0.12357330920467      0.23805258119199
  C   0.78101479674344     -0.11652790381573      0.61158951364558
  Cl  -1.59330283730764     -1.27381405707593      1.26768953500992
  H   0.85766443371470     -0.07425305515943      1.69598011815662
  N   -1.19061644550274      1.27840869093421      0.65139308007488
  O   -1.76900024784743      1.95812113921440     -0.18836821176784
  O   -0.91467690879721      1.62490753305353      1.79476192410671
  C   -1.05311183918276     -0.37429967699619     -1.21117889375920
  H   -2.12213474688702     -0.24142413610613     -1.36870126652012
  H   -0.77563617201009     -1.39211576979401     -1.47819444513652
  H   -0.52331585768255      0.32251064777177     -1.86074515191487
  N   1.57201134329232      0.91175206092096      0.02603128947245
  H   1.45593202199900      1.79764837242064      0.49493744784334
  H   1.45620563145851      0.99541399724084     -0.97324221374987
  N   1.36902754382252     -1.44106345380401      0.20450738226035
  O   1.66176645129641     -1.55936403211370     -0.98329495789222
  O   1.51263481345346     -2.29032704748655      1.07778226897880
