17
Coordinates from ORCA-job run
  C   -0.62979205858567      0.26628765902542      0.05778357476040
  C   0.80163737815865     -0.27542644275952     -0.02633494682174
  Cl  -0.83709766360624      1.15025101796795      1.57034297972186
  H   0.97718776099184     -0.60027053699090     -1.05357878820796
  N   -0.88144052988787      1.19896274610624     -1.13859939628418
  O   -1.34037721126889      2.31091519196396     -0.94742918767267
  O   -0.64693777098583      0.67547703457656     -2.22219654107315
  C   -1.66029911318710     -0.84059561299424     -0.05284645685143
  H   -1.56987248889589     -1.51095806706109      0.79814285456799
  H   -1.49249251954611     -1.40343511265079     -0.97175566187784
  H   -2.65934397132322     -0.40074340363219     -0.07164372918140
  N   1.00647647377223     -1.33386924882013      0.88541495020332
  H   1.01082470857380     -0.99366626691155      1.83931470176091
  H   1.88772158234592     -1.79657958623044      0.70945185753846
  N   1.77762872810147      0.90318412058349      0.16760049361159
  O   1.64588855265567      1.84593582037799     -0.60478444067464
  O   2.61128814268727      0.80353068744923      1.06011773648050
