17
Coordinates from ORCA-job run
  C   -0.70618726115824     -0.00797207788084      0.25235356038973
  C   0.79791179720596     -0.30138417911713      0.50966010182859
  Cl  -1.50507561403939     -0.00636447159593      1.83706834502766
  H   0.84627109265674     -1.31470822172713      0.90978059695952
  N   -0.86637548585572      1.39560220257970     -0.33408196380781
  O   -1.31817792589547      1.47693510970122     -1.46982925757723
  O   -0.50713277109039      2.33369719840051      0.36884925317996
  C   -1.35489893406015     -1.02864416182566     -0.65235730758515
  H   -0.91405182410260     -1.00596791345042     -1.64779353160433
  H   -1.21919743881538     -2.02171438626656     -0.22134708883772
  H   -2.42074964555572     -0.82270535651412     -0.74371716582505
  N   1.57192593467040      0.57387609262211      1.31434095368470
  H   1.35143597881999      1.54507534104260      1.13927957128230
  H   1.44671140772557      0.36651462683862      2.29437855477723
  N   1.44633646325327     -0.38127722484493     -0.85187379284573
  O   1.62415700822700      0.69350753479322     -1.41827297030403
  O   1.72609721801413     -1.49447011275526     -1.28643785874264
