17
Coordinates from ORCA-job run
  C   -0.77058367641987     -0.02856912923014      0.24225470694958
  C   0.72803757422155     -0.25242801846699      0.54513814043054
  Cl  -1.57943730657058     -0.10034377245727      1.81801304441874
  H   0.80773281572387     -1.21173429642524      1.06882710099741
  N   -0.87767324777739      1.38461817862212     -0.32558375281198
  O   -1.57901459074473      2.21876138172697      0.21677722594964
  O   -0.22095599071702      1.52635716910414     -1.35276356499184
  C   -1.46501662667881     -0.96537444350578     -0.72258820393433
  H   -1.35620359789405     -1.99657128132398     -0.38769684224587
  H   -1.04188903121146     -0.86960376359287     -1.71977333734034
  H   -2.52655836236905     -0.71124856242839     -0.74726308162902
  N   1.24985586859834      0.88214902758499      1.24638029281814
  H   1.22961205977804      0.73834782544499      2.24514455481428
  H   2.18729388899859      1.09497294346955      0.93332680648525
  N   1.53537672703005     -0.49154833476590     -0.71969492036454
  O   2.43859300685939      0.28734735741835     -0.99561380350108
  O   1.24083048917313     -1.50413228117455     -1.34488436604458
