17
Coordinates from ORCA-job run
  C   -0.58867112846191      0.25399813074275      0.08660529086161
  C   0.88952248234432     -0.19104851535108     -0.03036519335831
  Cl  -0.88412844234352      0.96652571255585      1.66942764822993
  H   1.07333305398950     -0.41084490696114     -1.08345799613524
  N   -0.87437283512884      1.27933870386806     -1.02110647412790
  O   -0.69542928236766      0.83298817684488     -2.14992297981073
  O   -1.26784741988836      2.39529347936812     -0.72941702050836
  C   -1.53517956536689     -0.90767798105874     -0.14766897921773
  H   -1.43397885593563     -1.63391465958432      0.65767347796656
  H   -2.56405754631697     -0.54372942963613     -0.15552466845167
  H   -1.31716674685734     -1.37998730835520     -1.10635462188795
  N   1.29866824905498     -1.27723009680896      0.77946700389038
  H   1.00305370279819     -2.16771170182786      0.41003122103726
  H   1.04654305313221     -1.17034217197529      1.75182135324989
  N   1.75387264473421      1.01674604156081      0.28354604263148
  O   1.71868864419354      1.91705624310901     -0.55154922957574
  O   2.37514999242019      1.02054028350924      1.33679512520654
