17
Coordinates from ORCA-job run
  C   -0.78567601895746      0.03473652588951      0.22381935287369
  C   0.65803845448831     -0.30354631558144      0.64777124863185
  Cl  -1.77802358647304      0.18985417477686      1.67923221929382
  H   0.65100196823960     -1.32448269998448      1.03423246280668
  N   -0.78272876581431      1.40268252861537     -0.47629332460651
  O   -1.07687151285225      1.41816463774103     -1.66564570374963
  O   -0.46110887601089      2.37223387843095      0.19985492233668
  C   -1.38997053371899     -1.00661145341011     -0.69158663287847
  H   -1.37806620454453     -1.97006095071922     -0.18038203697019
  H   -0.83971095999989     -1.08902043947354     -1.62617305035375
  H   -2.42109373088770     -0.73873110960016     -0.91777699468165
  N   1.23246350981886      0.57847126920517      1.57867659830718
  H   2.14320284741231      0.26319514661469      1.88093693071641
  H   1.26772534470803      1.53247498489533      1.24884173953719
  N   1.45842131890953     -0.42610840513579     -0.66603258226838
  O   1.61253009790882     -1.55466379885718     -1.12643637772626
  O   1.88886664777361      0.62141202659301     -1.14203877126867
