17
Coordinates from ORCA-job run
  C   -0.71075279637754     -0.11940194387731      0.27459291450800
  C   0.80932943508873     -0.11375648731900      0.57276620405370
  Cl  -1.53346044051458     -1.25477937586419      1.35915182337168
  H   0.93961579704104     -0.06206172489550      1.65161362497455
  N   -1.15098788709007      1.28940914007094      0.69471676869499
  O   -1.75605836159807      1.96705693590018     -0.12785341259290
  O   -0.82628459813704      1.64319791067707      1.82290132215255
  C   -1.11447868044742     -0.38544143641533     -1.15325200298908
  H   -0.85590738782548     -1.40803997901715     -1.42100431251954
  H   -0.61449675241015      0.29996959049366     -1.83762152397435
  H   -2.18942506195346     -0.24858306471336     -1.25873164633881
  N   1.57186349316698      0.90756275341875     -0.05973557319194
  H   1.48943813372840      1.79509933342373      0.41296991714874
  H   1.40260010608411      0.99050078516565     -1.05132749054707
  N   1.37301955064921     -1.44393246767725      0.14840663601507
  O   1.60565372840033     -1.57357413022816     -1.05129181726715
  O   1.55833172219503     -2.28522583914272      1.02169856850156
