17
Coordinates from ORCA-job run
  C   -0.60342533651737      0.23070521510924      0.03988420248713
  C   0.89860574921506     -0.14485308139349      0.00902053745359
  Cl  -0.96867062977321      1.15877047294875      1.49073047627587
  H   1.11363412595302     -0.51299744968118     -0.99559871358342
  N   -0.91827041011859      1.05869642776067     -1.21547746794940
  O   -1.36664171846121      2.18638591751521     -1.10316014239935
  O   -0.69925254882098      0.45356881750661     -2.26018065090685
  C   -1.48218741399637     -1.00349906153842     -0.02478284999943
  H   -1.35980376811170     -1.59077736320124      0.88430389974014
  H   -1.21994518782832     -1.60441837846264     -0.89641833749496
  H   -2.52850177825972     -0.70275361300076     -0.10126510512351
  N   1.35030932325129     -1.06958770997725      0.98165880717500
  H   1.09461115585604     -2.01907065855771      0.75719717840394
  H   1.08058788746211     -0.82124952317982      1.92316771397199
  N   1.69213477075925      1.14138734692786      0.14281997190745
  O   1.63516025627836      1.89577420834178     -0.82516971556060
  O   2.28265552311233      1.34491843288241      1.19427019560242
