17
Coordinates from ORCA-job run
  C   -0.77969428114115     -0.10580207478523      0.15785069765461
  C   0.67712521107469     -0.07299537064331      0.64268263859376
  Cl  -1.67192608695058     -1.39852875959416      0.97914340642662
  H   0.67960945859536      0.01365697126377      1.72717929330062
  N   -1.36455403272928      1.22061375617618      0.67453103347014
  O   -1.97739124288121      1.91392330525964     -0.12594047167538
  O   -1.17595792449628      1.47175478895056      1.85712005972721
  C   -0.96496650134181     -0.20631169107172     -1.33430617685460
  H   -0.47918280561315      0.63177939995321     -1.83339351130576
  H   -2.02639602351666     -0.17338080690907     -1.57269934719237
  H   -0.54482474389735     -1.14498183027289     -1.69237734617413
  N   1.35496326120473      1.01504695129665      0.03203454565022
  H   2.17429183053347      1.28268639790489      0.56043731688727
  H   1.62522666243706      0.79017590931250     -0.91747000236451
  N   1.32663677623650     -1.42184680136175      0.35379611747133
  O   1.41979990654819     -2.21466034176554      1.28504386251531
  O   1.72924053593747     -1.60012980371372     -0.79563211613032
