17
Coordinates from ORCA-job run
  C   -0.78325089805010     -0.12846400872068      0.11997096576054
  C   0.64787327878034     -0.06094660258449      0.67310342040945
  Cl  -1.67682849296755     -1.45340696691912      0.88669817010911
  H   0.59723640394301      0.01594390088171      1.75716992204149
  N   -1.42819348844819      1.17595809415722      0.62029464827617
  O   -1.30253524639639      1.42002359399150      1.81274765481115
  O   -2.02155252227076      1.86066271329169     -0.20206411732157
  C   -0.89510657525700     -0.21867350058725     -1.38014985796639
  H   -0.41209061657545      0.63889855191965     -1.84777895694209
  H   -1.94464360418043     -0.21477790533373     -1.66835101897367
  H   -0.43045333733718     -1.14068332771282     -1.72634194462698
  N   1.32347808992090      1.05049348093522      0.10326276020677
  H   1.64420375734468      0.84112045590457     -0.83401693655674
  H   2.10947333940425      1.33542195875802      0.67176317173050
  N   1.34708580056146     -1.38904309389825      0.40509511727993
  O   1.41796410268298     -2.18717955194635      1.33382780351712
  O   1.80834000884540     -1.54634779213690     -0.72523080175479
