17
Coordinates from ORCA-job run
  C   -0.78246708900450     -0.02287277262754      0.23635062414589
  C   0.68431280328846     -0.30747654347332      0.61784579802696
  Cl  -1.75648141726478     -0.01400032893291      1.71206776956667
  H   0.74010385449412     -1.34982791314654      0.93743719590901
  N   -0.86458668447951      1.38484595567293     -0.37490620079475
  O   -1.17906359698748      1.45941297679343     -1.55681903547486
  O   -0.58370806496029      2.32587428643905      0.35739979840480
  C   -1.34606226605600     -1.03538920906670     -0.73552830951520
  H   -0.80758687887530     -1.02975019856053     -1.68050585194301
  H   -2.39329660633029     -0.80919140897887     -0.93116468831161
  H   -1.27568639079979     -2.02699994758358     -0.28664980146919
  N   1.22648306889264      0.54359433892334      1.59532262649162
  H   2.15676836952898      0.25867504948851      1.86637473537874
  H   1.20597706129554      1.51719127418675      1.32751620168036
  N   1.46787463099595     -0.30203899534102     -0.71246850758417
  O   1.83408417774193      0.79561897723829     -1.12508005661649
  O   1.67433502852032     -1.38866554103128     -1.24719229789475
