17
Coordinates from ORCA-job run
  C   -0.74176649290618     -0.13499242954410      0.15340093522362
  C   0.71582676392987     -0.16523235864794      0.67535094089611
  Cl  -1.70971125834967     -1.35485413742651      1.00136581116530
  H   0.68402434307749     -0.19991921705689      1.76210316389265
  N   -1.25497389880745      1.23360036459610      0.62175892181648
  O   -1.77215442950197      1.96592836499258     -0.21360830958328
  O   -1.07999800343598      1.50050048611816      1.80572227569500
  C   -0.92485573959618     -0.27495460834729     -1.33628146218801
  H   -1.97364222872434     -0.12917312851074     -1.58906983865697
  H   -0.61532079546874     -1.26962631083058     -1.65079688120347
  H   -0.33766341259771      0.46883344911553     -1.87516308054409
  N   1.56096741296308      0.89573792084734      0.24578085535246
  H   1.54420317234137      1.05627827143234     -0.75042573034268
  H   1.40838942228616      1.74421868159373      0.76966145960708
  N   1.34288447152553     -1.46285910765951      0.23784745863557
  O   1.74986165421361     -1.50247644352151     -0.92104994075658
  O   1.40292901905111     -2.36900979715071      1.06240342099080
