17
Coordinates from ORCA-job run
  C   -0.72020596670516      0.04695663781798      0.20490083227565
  C   0.74370638418363     -0.32242204719793      0.57510659903405
  Cl  -1.61649625497321      0.18378994729719      1.73016566916416
  H   0.70284534483152     -1.31653793480643      1.02170948741695
  N   -0.74944480537013      1.42396716056779     -0.46062496072890
  O   -0.37987334297339      2.37551193872348      0.21857635191556
  O   -1.11375232993083      1.47053666024056     -1.62940400753935
  C   -1.37604306438915     -0.97863263504385     -0.68892729020433
  H   -0.87008837739118     -1.04057407346767     -1.65106186052289
  H   -1.33644880804919     -1.95229687599101     -0.19820458236567
  H   -2.41731296652566     -0.71043550925408     -0.86396604655465
  N   1.51636089462924      0.54409768947086      1.39053448739797
  H   1.36962992865535      1.51659785345111      1.15521822314236
  H   1.31221345455292      0.39450587061703      2.36792149285560
  N   1.47179067493939     -0.50622808483635     -0.73502499140969
  O   1.76751404006340      0.52696096370214     -1.32870020791963
  O   1.69360519445245     -1.65479756129085     -1.10721919595721
