17
Coordinates from ORCA-job run
  C   -0.77541272066610     -0.09312913756307      0.18738363910385
  C   0.69857137934422     -0.07448289359237      0.61889133709472
  Cl  -1.65445859127768     -1.36202552655928      1.05823543639276
  H   0.74138448813638      0.02615169392962      1.70133836644516
  N   -1.32241367794797      1.24840467969096      0.70694144850977
  O   -1.08912429915654      1.51158671960837      1.87882932618938
  O   -1.95229055399020      1.94073495171004     -0.08104380995021
  C   -1.01591104863235     -0.21029399519400     -1.29565056452803
  H   -0.62167551467438     -1.15951976184190     -1.65538875834277
  H   -2.08473316506364     -0.16574135243057     -1.49616575475756
  H   -0.53677050355714      0.61427533112818     -1.82282528799766
  N   1.36869752570748      0.99620689542245     -0.03000358590407
  H   2.20936757911216      1.25943946029772      0.46610887967477
  H   1.60230404794389      0.75573115795628     -0.98536559704623
  N   1.31892229039745     -1.43555827974625      0.32481666394381
  O   1.67685645815374     -1.63452022148573     -0.83590819069564
  O   1.43568630617068     -2.21725972133048      1.26280645186796
