17
Coordinates from ORCA-job run
  C   -0.77170371213401     -0.09192885607230      0.20189195000997
  C   0.70452615693298     -0.00583988870681      0.61665630633790
  Cl  -1.61838265481174     -1.29787053815704      1.18707683755456
  H   0.75368632080902      0.18855396849239      1.68598298060293
  N   -1.34368033976765      1.27785959312635      0.60779683828422
  O   -1.10519494530288      1.64771959253924      1.74950352007765
  O   -1.99676204549837      1.88450496058701     -0.23036415183885
  C   -1.01991374270870     -0.34277036556341     -1.26317913574824
  H   -2.09081349037137     -0.33786692095815     -1.45743850778938
  H   -0.56276460468633      0.44269760400343     -1.86444704833547
  H   -0.60806909743961     -1.31121613331623     -1.54304133917940
  N   1.34686883812453      1.01773557598546     -0.12888638922889
  H   1.57885404203516      0.69918535241705     -1.06156450209918
  H   2.18556151816409      1.34054076100284      0.33431149504497
  N   1.35125024947966     -1.37493181588367      0.43544860426078
  O   1.70810029635296     -1.66463589232112     -0.70638527593534
  O   1.48743721082226     -2.07173699717502      1.43563781798175
