17
Coordinates from ORCA-job run
  C   -0.66169425851748      0.18032189582110      0.01752086502374
  C   0.83114266847319     -0.16733359082937      0.02501190097529
  Cl  -1.08323893429163      0.99936999673841      1.52207138027011
  H   1.11558252658555     -0.44526732476053     -0.99154547506044
  N   -0.95495847469110      1.09515874917897     -1.18293409171477
  O   -0.58114132338257      0.62922533226252     -2.25359526927737
  O   -1.57020148399406      2.13233429961938     -1.01143360257025
  C   -1.52748278898724     -1.04970691208839     -0.17487277792316
  H   -2.57241521645387     -0.74417911491403     -0.25664341412902
  H   -1.22656527636835     -1.56731915434499     -1.08640119974999
  H   -1.40577284252250     -1.71931705665433      0.67278375839196
  N   1.11321702127328     -1.20779593214017      0.93670625396048
  H   2.05844399653974     -1.54569179078101      0.81828574448004
  H   1.00670574181743     -0.88985955311445      1.89235137099825
  N   1.62813812946907      1.12495818593974      0.29819373668922
  O   2.40851953664003      1.11668794964803      1.24285733988041
  O   1.42272097841050      2.05841402041910     -0.46935652024451
