17
Coordinates from ORCA-job run
  C   -0.78389018542412     -0.09316498657762      0.14709314978343
  C   0.66813396106890     -0.10572714245686      0.64717892481521
  Cl  -1.71248377186672     -1.38811468062129      0.92319600684102
  H   0.66079939424054     -0.04949036446418      1.73369580669366
  N   -1.34490137915649      1.23081030501503      0.69474066810244
  O   -1.93085868232564      1.96138587670721     -0.09260327444171
  O   -1.16526189427044      1.44352081262016      1.88624324910699
  C   -0.95521183691469     -0.14804455931124     -1.34916467555898
  H   -2.01311997082970     -0.08675376104376     -1.59746405106727
  H   -0.55034769862902     -1.08479400250675     -1.72922800981604
  H   -0.44688315121539      0.69354936308708     -1.81899466443163
  N   1.37597718979825      0.98373418997239      0.07451385798337
  H   1.65120296413778      0.78044523130069     -0.87838909887124
  H   2.19501222293448      1.21852694713762      0.61871874493235
  N   1.29155442602642     -1.45990971694592      0.32720027671914
  O   1.35654268189706     -2.28049337554292      1.23649788661905
  O   1.70373573052877     -1.61448013636964     -0.82223479740979
