17
Coordinates from ORCA-job run
  C   -0.78182831735645     -0.11795841502094      0.13964822742245
  C   0.66259561339118     -0.06174772889658      0.65874598931742
  Cl  -1.67277751868566     -1.42361137161549      0.94151237255696
  H   0.63797737606952      0.02509668677943      1.74296591397567
  N   -1.39883557263212      1.19966939782888      0.64059105263073
  O   -1.99985845025996      1.88467100186448     -0.17587916295950
  O   -1.24434240550739      1.45324777196905      1.82762055311898
  C   -0.93009194289157     -0.22308811220928     -1.35640148037319
  H   -0.44581346061263      0.62181528439524     -1.84527899548231
  H   -0.48723331927156     -1.15571777780600     -1.70267764782765
  H   -1.98601061113797     -0.20707703290039     -1.61982021923299
  N   1.33735666236634      1.03655802356280      0.06332592027511
  H   2.13961596289507      1.31764093996573      0.61054565643611
  H   1.63277328494688      0.81553911840853     -0.87953319821571
  N   1.34010156412910     -1.40022076277577      0.38658715029738
  O   1.42267491535309     -2.19119737983444      1.32045770234755
  O   1.77369621920414     -1.57261964371525     -0.75240983428702
