17
Coordinates from ORCA-job run
  C   -0.76727668750087     -0.12655431311138      0.20027779230591
  C   0.70943567772307     -0.02841982879903      0.61071125604304
  Cl  -1.57281374628540     -1.41898294970363      1.10703343087421
  H   0.76180316354320      0.09356505272587      1.69055504163178
  N   -1.37168136880948      1.19690484819964      0.70144550711185
  O   -2.04367406308583      1.84344586209988     -0.09070320031759
  O   -1.13630949937015      1.49321827606400      1.86510656622658
  C   -1.02118154792288     -0.28477862594142     -1.27673858422654
  H   -2.09350040189044     -0.29476184123447     -1.46289579189762
  H   -0.58930768932470      0.55070657627401     -1.82711386483225
  H   -0.58715278921819     -1.22120723875990     -1.62393747782248
  N   1.31790772056719      1.06106014193403     -0.06669385397247
  H   1.54986185132247      0.81405477877710     -1.02082338280123
  H   2.15181776025748      1.37368440830237      0.41188064294228
  N   1.39148138579586     -1.36348961101658      0.33199194105781
  O   1.55703719119133     -2.12194298092277      1.28165045790021
  O   1.74455304300736     -1.56550255488771     -0.82974648022349
