17
Coordinates from ORCA-job run
  C   -0.73673065813137     -0.12792759374359      0.18296089752751
  C   0.73963740795054     -0.16304644508240      0.64928899219295
  Cl  -1.68052014087730     -1.32685338096511      1.08559208481820
  H   0.74753702581002     -0.18213322457598      1.73693738522889
  N   -1.21676065491003      1.25295730599929      0.65150402775837
  O   -1.73593614430696      1.98896848816328     -0.17953924493632
  O   -1.01049857147938      1.52627069812196      1.82885012888111
  C   -0.97959710078739     -0.28680575094893     -1.29622378048897
  H   -2.03608998630062     -0.13351947804609     -1.50974409292999
  H   -0.69251794852681     -1.28919769024561     -1.60744086591671
  H   -0.40677734155920      0.44306255631119     -1.86836548849501
  N   1.57584200762175      0.88587647471559      0.17388127461373
  H   1.44975892705084      1.74109790466564      0.69419130701248
  H   1.51569701423185      1.03800488203078     -0.82212135057367
  N   1.33985865662819     -1.47079482321052      0.20608917073371
  O   1.69878684023285     -1.52986641170389     -0.96781595239367
  O   1.42931066735300     -2.36509351148563      1.04095550696740
