17
Coordinates from ORCA-job run
  C   -0.74855774734055     -0.11839835444863      0.13865516260009
  C   0.69908823897430     -0.20720040570330      0.68253650279887
  Cl  -1.76776019272432     -1.33011928270277      0.93533062720003
  H   0.64751623854147     -0.27485605455893      1.76704968044684
  N   -1.22577812938569      1.25248959367891      0.63745258326290
  O   -1.69005554189810      2.03069652452105     -0.18755797481956
  O   -1.07320641805774      1.47577479906258      1.83350583886977
  C   -0.90998406827664     -0.21025137100910     -1.35736340577442
  H   -0.62671941537227     -1.20532636376699     -1.69477573042603
  H   -0.29051846354263      0.52932798044968     -1.86479333990939
  H   -1.94912381534016     -0.02431966694108     -1.62352831820348
  N   1.58109912649646      0.84215037185052      0.30085346600457
  H   1.43946600142269      1.67919226603937      0.84603249831266
  H   1.58662761452564      1.03256388053646     -0.69030223374819
  N   1.29492830253410     -1.50770626015543      0.21274353737036
  O   1.72585154431177     -1.52009250724047     -0.93811707927353
  O   1.30712672513169     -2.44392514961188      1.00527818528849
