17
Coordinates from ORCA-job run
  C   -0.72139818810486      0.03006280104802      0.20552823910213
  C   0.75029538213282     -0.31200451003410      0.57206817763129
  Cl  -1.61904946120370      0.13550746461657      1.73225784511015
  H   0.73039494874329     -1.31054466621489      1.01023349315925
  N   -0.77749312680445      1.41194243034244     -0.44817094771915
  O   -1.13632047333610      1.46078572656786     -1.61855783080612
  O   -0.43143760760012      2.36518636148556      0.24082947938401
  C   -1.35651583064269     -1.00096137836008     -0.69691288494049
  H   -2.40445932483971     -0.75505266720699     -0.86506519270149
  H   -0.85274862114677     -1.04016499013839     -1.66128403886156
  H   -1.29224908748533     -1.97884928611634     -0.21741026425267
  N   1.50497590373258      0.56289148507541      1.39500967003979
  H   1.34019726040244      1.53445461007502      1.16812013980482
  H   1.30389254100380      0.40109571971108      2.37105271015206
  N   1.48090253303132     -0.46916039478778     -0.74054922536654
  O   1.71545518419735     -1.60971133118851     -1.12902562446461
  O   1.76355796792012      0.57552262512511     -1.32012374527087
