20

C	0.0	0.0	0.0
C	-0.511727	-0.017558	-1.446545
Br	1.987437	0.0	0.0
H	-1.595775	0.115984	-1.322853
C	-0.448579	1.274768	0.694386
H	-0.062852	1.312916	1.716546
H	-0.114563	2.149917	0.138913
H	-1.543639	1.255318	0.721013
C	-0.461468	-1.218559	0.780992
H	-0.043719	-2.146394	0.38756
H	-1.555787	-1.245516	0.722984
H	-0.165168	-1.126106	1.828934
C	-0.280588	-1.337679	-2.179777
H	-0.830628	-2.161287	-1.720754
H	0.785082	-1.589822	-2.208675
H	-0.638522	-1.238428	-3.208968
N	-0.009898	1.147972	-2.178847
H	0.914175	0.939779	-2.54289
H	-0.622822	1.317623	-2.967519
Br	-4.055557	0.0	0.0
