20

C	0.0	0.0	0.0
C	-0.37063	0.278535	-1.473162
Br	1.994883	0.0	0.0
H	0.071891	1.261178	-1.710305
C	-0.45088	1.121296	0.919229
H	-1.541777	1.103194	0.997333
H	-0.134592	2.096383	0.540164
H	-0.032968	0.98622	1.919388
C	-0.488166	-1.350222	0.482976
H	-0.109177	-1.561643	1.485994
H	-0.177609	-2.135618	-0.204656
H	-1.582508	-1.321968	0.524697
C	-1.873225	0.353697	-1.69674
H	-2.399247	1.025313	-1.023164
H	-2.059459	0.702939	-2.718589
H	-2.347424	-0.619352	-1.580783
N	0.157984	-0.779839	-2.341084
H	1.146843	-0.63422	-2.503751
H	-0.318904	-0.729219	-3.233358
Br	-4.923389	0.0	0.0
