20

C	0.0	0.0	0.0
C	-0.569251	-0.107441	-1.422812
Br	1.972245	0.0	0.0
H	-1.620131	-0.375226	-1.237645
C	-0.453646	1.290106	0.665951
H	-0.058411	2.158631	0.138874
H	-1.549643	1.303145	0.651534
H	-0.114221	1.319811	1.704427
C	-0.448466	-1.192894	0.836549
H	-0.045184	-1.117655	1.849332
H	-0.11743	-2.141042	0.408237
H	-1.542344	-1.176652	0.881116
C	0.07379	-1.177394	-2.290849
H	1.059249	-0.845505	-2.626197
H	0.186322	-2.125589	-1.763241
H	-0.555035	-1.358227	-3.168958
N	-0.48597	1.182863	-2.12371
H	-1.268893	1.747234	-1.806022
H	-0.661031	1.007423	-3.107855
Br	-4.052449	0.0	0.0
