14

C	-0.492653	-0.013625	-1.431431
C	0.0	0.0	0.0
F	-0.07054	-1.123513	-2.082462
H	1.099807	0.0	0.0
H	-0.360302	0.917794	0.466352
C	-1.959035	0.072973	-1.533459
N	-3.127414	0.148418	-1.617569
N	0.065953	1.204952	-2.172423
O	-0.299879	2.284184	-1.717833
O	0.803493	1.006429	-3.123109
N	-0.566741	-1.176769	0.659497
H	0.109842	-1.927227	0.579936
H	-0.666663	-0.979815	1.646102
Br	3.550331	0.0	0.0
