14

C	-0.598843	0.077123	-1.389799
C	0.0	0.0	0.0
F	-1.944685	0.319341	-1.303945
H	1.090382	0.0	0.0
H	-0.319365	0.924833	0.498764
C	-0.002389	1.100786	-2.255678
N	0.440278	1.946347	-2.939781
N	-0.437137	-1.272657	-2.088475
O	-1.451693	-1.908485	-2.330072
O	0.718714	-1.586584	-2.326955
N	-0.485639	-1.213044	0.642413
H	0.289628	-1.651341	1.120653
H	-1.214762	-1.019225	1.311525
Br	3.530642	0.0	0.0
