14

C	-0.492156	-0.008783	-1.430834
C	0.0	0.0	0.0
F	-0.069675	-1.117954	-2.083419
H	1.099816	0.0	0.0
H	-0.358008	0.91769	0.469256
C	-1.958951	0.073116	-1.532352
N	-3.127752	0.146931	-1.613632
N	0.060891	1.211374	-2.172563
O	-0.299673	2.289111	-1.712427
O	0.787249	1.016325	-3.131506
N	-0.569333	-1.179052	0.654512
H	0.109205	-1.928236	0.582116
H	-0.680249	-0.983281	1.640394
Br	3.550391	0.0	0.0
