14

C	-0.494598	-0.016081	-1.429525
C	0.0	0.0	0.0
F	-0.069194	-1.126368	-2.078576
H	1.099882	0.0	0.0
H	-0.357158	0.920407	0.465001
C	-1.962224	0.057948	-1.527836
N	-3.131549	0.126119	-1.609174
N	0.05005	1.203627	-2.178024
O	-0.309056	2.281801	-1.717015
O	0.769242	1.007839	-3.142976
N	-0.570379	-1.175561	0.660556
H	-0.686465	-0.973181	1.64459
H	0.109792	-1.92462	0.596452
Br	3.551097	0.0	0.0
