14

C	-0.450221	0.115729	-1.465669
C	0.0	0.0	0.0
F	-0.207986	-1.041753	-2.127796
H	1.091412	0.0	0.0
H	-0.346831	-0.989685	0.31314
C	-1.878321	0.450498	-1.584765
N	-3.027818	0.689972	-1.613045
N	0.309275	1.229786	-2.187185
O	0.983487	0.924965	-3.155091
O	0.146808	2.346995	-1.710283
N	-0.473767	1.013354	0.908659
H	-1.467768	1.182038	0.82041
H	0.02358	1.876535	0.746069
Br	3.528808	0.0	0.0
