14

C	-0.530479	-0.02854	-1.42695
C	0.0	0.0	0.0
F	-1.906459	-0.025211	-1.406302
H	1.091194	0.0	0.0
H	-0.347026	0.952846	0.415588
C	-0.082635	1.089084	-2.262083
N	0.25299	2.018085	-2.898444
N	-0.124249	-1.328616	-2.111727
O	0.965587	-1.33452	-2.667649
O	-0.907723	-2.266212	-1.997946
N	-0.466321	-1.112532	0.801747
H	-1.391167	-1.415966	0.531542
H	0.177416	-1.88732	0.720677
Br	3.525674	0.0	0.0
