14

C	-0.551484	0.031379	-1.407989
C	0.0	0.0	0.0
F	-1.918544	-0.10983	-1.378465
H	1.090643	0.0	0.0
H	-0.344861	-0.945482	0.432642
C	-0.240379	1.253693	-2.152636
N	-0.051949	2.247619	-2.748049
N	-0.030398	-1.176563	-2.184128
O	0.822616	-0.986679	-3.040288
O	-0.516735	-2.250432	-1.848486
N	-0.493192	1.18071	0.697223
H	0.285762	1.633551	1.153813
H	-1.184719	0.939905	1.391926
Br	3.507262	0.0	0.0
