14

C	-0.480487	-0.000917	-1.432327
C	0.0	0.0	0.0
F	-0.038154	1.091506	-2.098585
H	1.098796	0.0	0.0
H	-0.362978	-0.913015	0.473754
C	-0.133711	-1.215956	-2.180422
N	0.118772	-2.182945	-2.794091
N	-2.016155	0.078642	-1.430003
O	-2.540763	1.055207	-1.936769
O	-2.576396	-0.870152	-0.897221
N	-0.578162	1.178251	0.64716
H	-0.632666	1.001359	1.641148
H	0.073138	1.945469	0.526521
Br	3.5585	0.0	0.0
