14

C	0.0	0.0	0.0
C	-0.512279	-0.011533	-1.415269
F	1.393765	0.0	0.0
H	-0.201636	0.869322	-1.976624
H	-0.318012	-0.916761	0.498513
H	-1.607381	-0.093764	-1.381163
C	-0.488317	1.221679	0.740555
H	-1.579642	1.216116	0.763135
H	-0.102026	1.207035	1.761948
H	-0.128695	2.128273	0.245377
N	0.012337	-1.18133	-2.174504
O	0.043425	-2.271194	-1.607277
O	0.357861	-0.988376	-3.339638
Br	-3.879615	0.0	0.0
