14

C	0.0	0.0	0.0
C	-0.503916	-0.056542	-1.418773
F	1.393686	0.0	0.0
H	-0.202338	0.815177	-1.998457
H	-0.319249	-0.902227	0.523357
H	-1.597719	-0.15674	-1.390511
C	-0.489292	1.242606	0.703266
H	-0.107576	1.257834	1.726411
H	-0.125339	2.133689	0.183992
H	-1.58104	1.239607	0.721464
N	0.050233	-1.235809	-2.13933
O	0.455504	-1.060593	-3.289101
O	0.051717	-2.315731	-1.554786
Br	-3.882381	0.0	0.0
