14

C	0.0	0.0	0.0
C	-0.556339	-0.054216	-1.441043
Br	1.961299	0.0	0.0
H	-1.651656	0.021413	-1.268974
C	-0.395636	1.234653	0.681869
N	-0.591102	2.25386	1.234391
C	-0.4026	-1.189709	0.751279
N	-0.603227	-2.172597	1.363309
N	-0.242163	-1.325876	-2.051095
H	-1.046926	-1.670795	-2.55684
H	0.557474	-1.267014	-2.666944
C	-0.100525	1.109043	-2.207773
N	0.321142	1.982744	-2.872426
Br	-3.54756	0.0	0.0
