14

C	0.0	0.0	0.0
C	-0.565182	-0.032098	-1.438718
Br	1.961254	0.0	0.0
H	-1.658261	0.056851	-1.256592
C	-0.388816	1.222498	0.707063
N	-0.597698	2.218164	1.296284
C	-0.405325	-1.20015	0.731124
N	-0.609998	-2.203265	1.308106
N	-0.266544	-1.29999	-2.066223
H	-1.10854	-1.684104	-2.472239
H	0.456349	-1.224668	-2.766637
C	-0.105927	1.13147	-2.197505
N	0.273122	2.022159	-2.865059
Br	-3.552955	0.0	0.0
