17

C	-0.330453	0.003271	-1.469609
C	0.0	0.0	0.0
F	0.186101	-1.083456	-2.101563
H	1.10091	0.0	0.0
N	-1.850085	-0.084667	-1.791606
O	-2.142603	-0.113232	-2.983234
O	-2.64881	-0.145799	-0.86152
C	0.135856	1.21727	-2.166067
N	0.527357	2.182899	-2.707941
N	-0.431954	-1.264591	0.568525
H	-1.289273	-1.155081	1.09533
H	0.307852	-1.599508	1.175726
C	-0.451936	1.253798	0.732811
H	-0.126784	2.163649	0.221325
H	0.030169	1.251898	1.713656
H	-1.536822	1.287208	0.866481
H	2.76262	0.0	0.0
