17

C	-0.437188	0.195254	-1.437431
C	0.0	0.0	0.0
F	0.222135	-0.6534	-2.260633
H	1.096943	0.0	0.0
N	-1.928891	-0.156932	-1.585448
O	-2.704758	0.583368	-0.98376
O	-2.229602	-1.148656	-2.227089
C	-0.301281	1.569789	-1.940039
N	-0.277757	2.671225	-2.346937
N	-0.414083	-1.345979	0.390471
H	-0.983393	-1.308384	1.226619
H	0.431958	-1.864539	0.609033
C	-0.445942	1.081173	0.965206
H	-0.184968	2.078998	0.604223
H	0.103711	0.916886	1.894992
H	-1.521736	1.049485	1.164385
H	2.757784	0.0	0.0
