17

C	-0.564726	0.01023	-1.407435
C	0.0	0.0	0.0
F	-0.229273	1.153369	-2.076937
H	1.094167	0.0	0.0
N	-0.002487	-1.151075	-2.228871
O	-0.649898	-2.193292	-2.221719
O	1.053073	-0.94111	-2.806136
C	-2.034272	-0.106294	-1.413311
N	-3.206732	-0.091689	-1.336673
N	-0.403265	-1.248134	0.63228
H	0.432243	-1.670499	1.025896
H	-1.070707	-1.09189	1.375508
C	-0.444169	1.246292	0.749321
H	-0.190801	2.151404	0.19438
H	-1.52225	1.246335	0.964714
H	0.113757	1.271824	1.692001
H	2.771208	0.0	0.0
