17

C	-0.433208	-0.026324	-1.470411
C	0.0	0.0	0.0
F	-0.188466	1.157114	-2.093517
H	1.097335	0.0	0.0
N	0.347777	-1.096753	-2.239922
O	0.059816	-2.255978	-1.955921
O	1.184063	-0.720386	-3.041829
C	-1.862525	-0.350175	-1.632263
N	-3.017348	-0.56353	-1.686471
N	-0.3967	-1.176206	0.74725
H	0.271321	-1.917062	0.574138
H	-1.325238	-1.506917	0.512025
C	-0.518636	1.265221	0.659826
H	-0.104256	1.281681	1.669019
H	-1.613589	1.274605	0.734296
H	-0.183212	2.159635	0.132899
H	2.791114	0.0	0.0
