17

C	-0.451305	-0.002762	-1.46371
C	0.0	0.0	0.0
F	-0.126019	1.156154	-2.09453
H	1.094579	0.0	0.0
N	0.226385	-1.134363	-2.244487
O	-0.173931	-2.266303	-1.980465
O	1.090811	-0.828074	-3.045548
C	-1.905396	-0.214985	-1.602715
N	-3.076471	-0.309637	-1.652831
N	-0.40392	-1.178901	0.739391
H	0.259294	-1.92353	0.561954
H	-1.333974	-1.502261	0.501142
C	-0.504533	1.262954	0.67742
H	-0.193307	2.159593	0.138902
H	-1.59616	1.264467	0.78897
H	-0.054999	1.283942	1.671352
H	2.798267	0.0	0.0
