17

C	-0.574151	-0.001544	-1.394201
C	0.0	0.0	0.0
F	-1.951052	0.015679	-1.37568
H	1.093513	0.0	0.0
N	-0.147113	1.259094	-2.146723
O	-0.907175	2.219771	-2.083476
O	0.942211	1.21842	-2.702384
C	-0.156845	-1.157472	-2.198481
N	0.098963	-2.08032	-2.878272
N	-0.378955	-1.285945	0.582838
H	-1.117282	-1.178326	1.265987
H	0.448066	-1.655929	1.041931
C	-0.445555	1.206582	0.810344
H	-0.098535	2.144593	0.371697
H	0.020956	1.119634	1.795461
H	-1.533815	1.253709	0.925819
H	2.762332	0.0	0.0
