17

C	-0.562086	-0.006664	-1.399917
C	0.0	0.0	0.0
F	-1.938618	-0.048818	-1.392694
H	1.093548	0.0	0.0
N	-0.186777	1.282928	-2.12907
O	-0.992164	2.205333	-2.062
O	0.908896	1.301331	-2.673471
C	-0.088057	-1.131166	-2.216029
N	0.216392	-2.034428	-2.90185
N	-0.380329	-1.286324	0.578271
H	-1.148784	-1.185433	1.229139
H	0.433525	-1.641007	1.072199
C	-0.454734	1.210435	0.800167
H	-0.036386	1.107584	1.804966
H	-1.545567	1.283506	0.866823
H	-0.065154	2.142084	0.38399
H	2.765719	0.0	0.0
