18

C	-0.335629	0.022595	-1.484201
C	0.0	0.0	0.0
Cl	-2.151802	-0.109038	-1.721199
H	1.097646	0.0	0.0
H	-0.33988	-0.953302	0.418771
C	0.120193	1.311591	-2.146212
H	1.191233	1.429119	-1.952576
H	-0.051146	1.270941	-3.224917
H	-0.411257	2.176809	-1.747423
C	0.296084	-1.181201	-2.16318
H	1.378258	-1.13001	-2.006612
H	0.075432	-1.188964	-3.234069
H	-0.075759	-2.109533	-1.722752
C	-0.522675	1.163701	0.829319
H	-0.050702	2.103311	0.535552
H	-0.276931	1.000929	1.881651
H	-1.607576	1.272451	0.742335
Cl	3.552864	0.0	0.0
