18

C	-0.345876	-0.003301	-1.481403
C	0.0	0.0	0.0
Cl	-2.162078	0.175824	-1.696594
H	1.097646	0.0	0.0
H	-0.335544	0.949486	0.430932
C	0.308676	1.189993	-2.15752
H	0.067627	1.217782	-3.224022
H	1.392209	1.106333	-2.021653
H	-0.026958	2.122828	-1.697705
C	0.068208	-1.297433	-2.160625
H	1.138425	-1.44506	-1.983095
H	-0.481336	-2.151798	-1.762417
H	-0.1161	-1.242154	-3.236781
C	-0.525512	-1.17045	0.818081
H	-1.611626	-1.272244	0.733948
H	-0.275073	-1.020835	1.871426
H	-0.059853	-2.109282	0.511793
Cl	3.56998	0.0	0.0
