18

C	-0.466873	0.083981	-1.454503
C	0.0	0.0	0.0
Cl	-0.177562	-1.547916	-2.208283
H	1.094856	0.0	0.0
H	-0.348428	-0.94116	0.435847
C	-1.955768	0.359295	-1.598977
H	-2.187968	1.363156	-1.231751
H	-2.257355	0.297272	-2.647397
H	-2.541604	-0.365765	-1.027732
C	0.373587	1.080607	-2.236823
H	1.432256	0.842552	-2.117743
H	0.106014	1.068534	-3.296783
H	0.202995	2.089219	-1.847327
C	-0.470756	1.170412	0.864373
H	0.023884	1.110158	1.835962
H	-0.191835	2.132687	0.428761
H	-1.551214	1.167343	1.033487
Cl	3.618622	0.0	0.0
