18

C	-0.270984	-0.116048	-1.494764
C	0.0	0.0	0.0
Cl	-1.99029	-0.495964	-1.900684
H	1.094867	0.0	0.0
N	0.010301	1.254625	-2.126512
O	1.084505	1.387884	-2.704142
O	-0.828901	2.1343	-1.971962
C	0.659886	-1.139182	-2.111326
H	0.327005	-2.138894	-1.82994
H	0.657443	-1.061378	-3.198519
H	1.653059	-0.938528	-1.691046
C	-0.367678	-1.271281	0.770244
H	-0.103462	-1.120267	1.818788
H	-1.429842	-1.521688	0.703357
H	0.23627	-2.102972	0.406291
C	-0.593835	1.155532	0.640431
N	-1.066769	2.039538	1.255776
F	2.57361	0.0	0.0
