18

C	-0.209028	-0.022457	-1.498041
C	0.0	0.0	0.0
Cl	-1.951072	-0.09115	-1.996225
H	1.095235	0.0	0.0
N	0.301235	1.287738	-2.125447
O	0.553095	1.264138	-3.326816
O	0.392296	2.273635	-1.40688
C	0.57442	-1.155275	-2.120077
H	0.123481	-2.108177	-1.845056
H	1.582042	-1.068666	-1.693884
H	0.584676	-1.063079	-3.203392
C	-0.388185	-1.329672	0.659509
H	-1.40355	-1.652749	0.408491
H	-0.32001	-1.211965	1.742516
H	0.332938	-2.095722	0.374392
C	-0.641695	1.089444	0.706604
N	-1.192306	1.87969	1.382386
F	2.571994	0.0	0.0
