18

C	-0.543241	0.223593	-1.4094
C	0.0	0.0	0.0
Cl	0.31561	1.580532	-2.180945
H	1.105905	0.0	0.0
N	-0.213966	-1.042386	-2.201323
O	0.924238	-1.197515	-2.615209
O	-1.129782	-1.862279	-2.304966
C	-2.033773	0.48747	-1.505793
H	-2.591865	-0.302205	-1.004073
H	-2.244389	1.441041	-1.022245
H	-2.34999	0.536951	-2.549445
C	-0.346895	-1.37277	0.584765
H	0.027809	-1.39428	1.609955
H	-1.414406	-1.616896	0.588573
H	0.20097	-2.139636	0.034368
C	-0.48619	1.064439	0.852983
N	-0.881524	1.918019	1.561235
F	2.51098	0.0	0.0
