18

C	-0.236154	-0.159314	-1.508195
C	0.0	0.0	0.0
Cl	0.00979	-1.860602	-2.001995
H	1.093248	0.0	0.0
N	-1.688131	0.152532	-1.88045
O	-2.564378	-0.486783	-1.304094
O	-1.893723	1.042588	-2.703825
C	0.737687	0.712364	-2.265939
H	1.718787	0.47346	-1.835869
H	0.516034	1.762767	-2.069047
H	0.687493	0.529493	-3.339329
C	-0.525316	-1.072171	0.947002
H	-0.027743	-2.016675	0.730773
H	-0.253825	-0.78379	1.965103
H	-1.607043	-1.203677	0.886217
C	-0.464288	1.32199	0.386443
N	-0.848842	2.383392	0.718663
F	2.594476	0.0	0.0
