18

C	-0.277803	-0.078218	-1.495023
C	0.0	0.0	0.0
Cl	-1.985916	-0.505124	-1.900984
H	1.10783	0.0	0.0
N	-0.043583	1.319066	-2.086552
O	-0.929442	2.155546	-1.947575
O	1.045489	1.513443	-2.618522
C	0.676156	-1.052567	-2.15153
H	0.662819	-0.93983	-3.236657
H	0.37391	-2.069524	-1.900281
H	1.666566	-0.84121	-1.731355
C	-0.350228	-1.295395	0.738011
H	0.272371	-2.104837	0.355267
H	-1.406397	-1.566148	0.660844
H	-0.092407	-1.166819	1.791562
C	-0.594934	1.136401	0.670776
N	-1.055543	2.014912	1.303838
F	2.570821	0.0	0.0
