18

C	-0.53145	-0.12308	-1.427155
C	0.0	0.0	0.0
Cl	0.361181	0.979702	-2.504948
H	1.105918	0.0	0.0
N	-0.222533	-1.552619	-1.873433
O	-1.160068	-2.351327	-1.80736
O	0.923239	-1.830879	-2.191901
C	-2.014758	0.136862	-1.6032
H	-2.593312	-0.486059	-0.92196
H	-2.324636	-0.07641	-2.627527
H	-2.206778	1.186472	-1.382236
C	-0.35968	-1.190047	0.894778
H	0.195914	-2.066705	0.556304
H	-1.428184	-1.427452	0.937868
H	-0.005134	-0.962452	1.901838
C	-0.488475	1.239847	0.566918
N	-0.887227	2.238819	1.046203
F	2.512851	0.0	0.0
