15

C	0.0	0.0	0.0
C	-0.429246	-0.088494	-1.491683
F	1.383693	0.0	0.0
H	0.277864	0.563411	-2.014871
C	-0.380324	1.330818	0.613638
H	0.059033	1.385147	1.607312
H	0.057145	2.120383	-0.008942
H	-1.46508	1.369297	0.634834
C	-0.499696	-1.161912	0.744538
N	-0.779896	-2.140489	1.335774
C	-1.802911	0.326261	-1.888423
N	-2.5826	0.575738	-2.745445
C	-0.205465	-1.447406	-1.997943
N	0.034164	-2.501467	-2.466179
F	-2.534337	0.0	0.0
