15

C	0.0	0.0	0.0
C	-0.402339	0.024482	-1.489496
F	1.383427	0.0	0.0
H	0.102634	-0.834677	-1.947399
C	-0.383605	1.235091	0.800303
H	-1.465733	1.304474	0.819483
H	0.082896	2.104525	0.330687
H	0.030634	1.125149	1.80655
C	-0.443436	-1.249425	0.639585
N	-0.571408	-2.289262	1.171017
C	0.193589	1.215109	-2.120426
N	0.680902	2.158022	-2.622542
C	-1.837873	-0.05024	-1.871547
N	-2.597032	-0.114892	-2.779272
F	-2.530782	0.0	0.0
