15

C	0.0	0.0	0.0
C	-0.31538	-0.026188	-1.521008
F	1.383749	0.0	0.0
H	0.364434	0.746807	-1.913717
C	-0.396963	1.293584	0.684069
H	0.037109	2.12405	0.125103
H	0.031176	1.287021	1.691713
H	-1.486956	1.313094	0.700547
C	-0.445145	-1.218988	0.689443
N	-0.664146	-2.283807	1.134583
C	-1.655552	0.25988	-2.074996
N	-2.553964	0.255991	-2.832787
C	0.164043	-1.282819	-2.107972
N	0.582244	-2.259664	-2.604337
F	-2.482781	0.0	0.0
