15

C	0.0	0.0	0.0
C	-0.404442	0.16475	-1.481088
F	1.383492	0.0	0.0
H	0.092678	-0.656356	-2.014633
C	-0.372207	1.162604	0.908521
H	-1.453771	1.245038	0.942488
H	0.103895	2.063523	0.510695
H	0.043217	0.962325	1.90065
C	-0.442503	-1.306061	0.512996
N	-0.559922	-2.391088	0.948984
C	0.190531	1.404691	-2.00122
N	0.682541	2.387184	-2.416264
C	-1.84227	0.123345	-1.864511
N	-2.59395	0.118527	-2.780271
F	-2.52741	0.0	0.0
