15

C	0.0	0.0	0.0
C	-0.493117	-0.278248	-1.446811
F	1.383745	0.0	0.0
H	0.422693	-0.35202	-2.055154
C	-0.346219	1.394573	0.52042
H	0.105303	1.495931	1.511101
H	0.109695	2.13423	-0.144802
H	-1.427985	1.481066	0.552942
C	-0.437152	-1.038272	0.944187
N	-0.510605	-1.858951	1.783697
C	-1.290521	0.816594	-2.008376
N	-1.753215	1.711091	-2.612857
C	-1.209861	-1.546122	-1.604617
N	-1.638526	-2.608042	-1.865851
F	-2.450047	0.0	0.0
