18
Coordinates from ORCA-job run
  C   -0.63322085218468     -0.73323135828134     -0.13996837004009
  C   0.52217988437047      0.18941651748380     -0.48436172899976
  F   -0.59093174735696     -1.85998428751985     -0.91389413616134
  H   0.44327038705654      0.34086017066796     -1.56559582560829
  N   -0.69732203957813     -1.12062604695705      1.20524907199603
  H   -1.49540988501974     -1.72226770252954      1.36808384455881
  H   -0.76529463778978     -0.31894825573609      1.81587172539292
  N   -1.93911659073313     -0.02401686405671     -0.62690166820053
  O   -2.74841595584415      0.31328048392012      0.23436226023543
  O   -2.03756015166741      0.17635008044723     -1.83114790866444
  C   1.84879385248662     -0.49354938762239     -0.16607971702679
  H   2.67639240419888      0.12137686273397     -0.52796866521587
  H   1.96576150207371     -0.63658790615408      0.90929296863893
  H   1.91226909091712     -1.47010838527149     -0.64763124120931
  C   0.39542559262571      1.54355277040803      0.21053258700996
  H   0.48827701399316      1.44969396328741      1.29647172910337
  H   1.20239446354610      2.19942661667546     -0.12265742364564
  H   -0.54849233109432      2.04436272850456     -0.01565750216340
