18
Coordinates from ORCA-job run
  C   -0.68990541140646     -0.55241565059455     -0.16981020332441
  C   0.55139881550854      0.21741607255595      0.25600562502763
  F   -0.75563848241176     -0.66562717863570     -1.52124204443555
  H   0.54922737166572      0.21977893685867      1.35199696905037
  N   -0.77777579969439     -1.84560606012735      0.39259196131263
  H   -1.58318142377374     -2.34060028314340      0.02746763609150
  H   -0.84012755908997     -1.78746477454127      1.40032514833629
  N   -1.91651484611856      0.31310694560404      0.22418541560438
  O   -2.57802419906927      0.85376411014168     -0.65067973901479
  O   -2.10003067706474      0.39607476640692      1.43742682560033
  C   0.50350877425249      1.66071462819601     -0.24239065756711
  H   -0.28908277120615      2.23810137584385      0.23760326664839
  H   1.45154877868787      2.15571056606767     -0.02272083193106
  H   0.34607291744989      1.69163003155949     -1.32277873734473
  C   1.79547759047298     -0.50850725741116     -0.25188113376622
  H   2.69163738714658     -0.01126202618304      0.12607271900119
  H   1.83009696969990     -0.48662645876190     -1.34310731117601
  H   1.80931256495107     -1.54918774383591      0.07093509188716
