18
Coordinates from ORCA-job run
  C   -0.70649537084681     -0.61833624399679      0.15603436803591
  C   0.32856262526597      0.48970425612368     -0.03973565180785
  F   -0.06675902214925     -1.79865190579375      0.35811898276914
  H   -0.24580623304446      1.40998243252001     -0.19349861668311
  N   -1.69578633298661     -0.48163500007165      1.17336074572026
  H   -2.19402293805680      0.39227979837878      1.07010865174974
  H   -1.26512279354458     -0.53529150159708      2.08656181531147
  N   -1.48772368958025     -0.73908216309076     -1.14988457499935
  O   -2.21731329395695      0.21933338838563     -1.39207840499480
  O   -1.31424144155364     -1.72408048538992     -1.85014320626763
  C   1.19170309263829      0.23017741846237     -1.27375027708627
  H   1.68154970308618     -0.74331296496052     -1.20625481605619
  H   1.96456827819402      0.99760058603992     -1.35461141138027
  H   0.60617805744602      0.25548897996953     -2.19495409611446
  C   1.18511417320107      0.62982704352196      1.21633144437154
  H   1.75117674035586     -0.28523981822042      1.40274453315698
  H   1.89737263492680      1.44761121165495      1.08929276368345
  H   0.58604581060515      0.85562496806406      2.10135775059143
