18
Coordinates from ORCA-job run
  C   -0.69084476918154     -0.65566774609112      0.17286869305945
  C   0.69397192856631     -0.02601536806625      0.21223339743663
  F   -0.54598027236958     -2.00182528039026     -0.16679944609578
  H   1.16997419444768     -0.57127685583437      1.04056976228525
  N   -1.41442341399042     -0.47682921297658      1.36200297913275
  H   -0.86909889500500     -0.76008152898913      2.16477264068270
  H   -2.29089359745777     -0.98290424577208      1.32713729530451
  N   -1.61086842569940     -0.13661725771830     -0.93516046767242
  O   -1.19747562998723      0.72367809967652     -1.70461011432249
  O   -2.72424283000844     -0.65067356886554     -0.96208703696501
  C   0.67242876589886      1.45785615403527      0.57406296328593
  H   0.25924359169112      2.04875369577753     -0.24294107845574
  H   1.69445942961422      1.79873895850826      0.75732721007331
  H   0.08142296218557      1.64690784198638      1.47047969509533
  C   1.52774029392604     -0.30493557197683     -1.03793031353535
  H   1.50684619547763     -1.36202254676843     -1.30375593133383
  H   2.56608582312035     -0.02675743913169     -0.84231367846588
  H   1.17365464877158      0.27967187259661     -1.88585656950938
