18
Coordinates from ORCA-job run
  C   -0.72561666347465     -0.59426532123693     -0.07753858523359
  C   0.50506876282003      0.17889720280990     -0.50863059985642
  F   -0.77282996419196     -1.79067251552460     -0.80711791774556
  H   0.45215428818770      0.22525549688711     -1.59909246595617
  N   -0.83130392044813     -0.78467913172967      1.30249025315388
  H   -1.71523783673699     -1.20699533683248      1.55378784239477
  H   -0.05715191529612     -1.33175896555265      1.65161290329539
  N   -2.00944385822535      0.09944676178260     -0.55189352737477
  O   -3.00986416874036     -0.02679034574637      0.14714397890816
  O   -1.95775106809878      0.66212265976862     -1.63920506111883
  C   1.76727183668293     -0.58536189953405     -0.10737761807256
  H   2.63773473674872     -0.12583322905316     -0.58014028288943
  H   1.93198000934908     -0.54519890409656      0.97337785187553
  H   1.72455156522300     -1.62875564143259     -0.42463375248642
  C   0.50792940345090      1.59394019239734      0.06145040567843
  H   1.41708285248649      2.11345463202508     -0.25064975681170
  H   0.47937691818326      1.57015117794350      1.15212520220958
  H   -0.34295097791977      2.17604316712492     -0.29570886997027
