18
Coordinates from ORCA-job run
  C   -0.67973130905044     -0.58209520728512     -0.09358448927978
  C   0.54199715335017      0.26459954226838      0.23055055552403
  F   -0.71020860036740     -0.91283470750830     -1.41021527018488
  H   0.51008459746302      0.44653204742621      1.31082910809478
  N   -0.76858702836260     -1.76829095033057      0.66804540978189
  H   -1.56042934927745     -2.32709917459802      0.37238512713881
  H   -0.84929491847651     -1.55140878318102      1.65237142932364
  N   -1.92635945282992      0.31687068118432      0.12642171510086
  O   -2.13287224057374      0.60343462771955      1.30441315508811
  O   -2.57371790376956      0.69579346582031     -0.83927424768537
  C   0.49218657493507      1.60537461178451     -0.49974969444188
  H   1.42682248667947      2.14607998941854     -0.33793235162319
  H   0.36833329796231      1.45527578603612     -1.57453586501803
  H   -0.32184741796502      2.24039377808493     -0.14473515287651
  C   1.80618860494675     -0.51674287021033     -0.12104274207569
  H   2.68765800474582      0.05028446764268      0.18668167031334
  H   1.82461777622456     -1.48843699798493      0.37181752365487
  H   1.86615972436546     -0.67773030628729     -1.19944588083502
