18
Coordinates from ORCA-job run
  C   -0.66714336906219     -0.82614945734953      0.13386475820579
  C   0.68103473753920     -0.10570366448701      0.23943005411984
  F   -0.41368129523489     -2.12611992122595     -0.18689546843502
  H   1.21614077011763     -0.69996826800750      0.99364275562645
  N   -1.54654215824053     -0.80326174986321      1.24818505480273
  H   -1.04260738339420     -1.01395751201354      2.10000837615006
  H   -2.00123723021915      0.09605995194269      1.32449424553254
  N   -1.44975384572039     -0.23551881281619     -1.03859171343933
  O   -1.36541768881658     -0.79932659684805     -2.11952821174612
  O   -2.06575253625332      0.80288057189878     -0.80329809952171
  C   0.55720379954822      1.32778223616304      0.74668423848083
  H   1.55470813446606      1.75205019455947      0.88119337096739
  H   0.04342379383448      1.38054357200976      1.70837367615671
  H   0.01720520235584      1.95597561748396      0.03606835313540
  C   1.46702428419397     -0.17022480712883     -1.06894947278133
  H   1.50362549548313     -1.18446238060073     -1.46632886604382
  H   1.02125314038366      0.47808417918464     -1.82775473359704
  H   2.49051614901906      0.17231684709819     -0.90059831761337
