18
Coordinates from ORCA-job run
  C   -0.72626556992196     -0.59553755666121     -0.07627318603586
  C   0.51048450320033      0.16660240937723     -0.51014212685874
  F   -0.78198059274925     -1.79432566377734     -0.79909287490929
  H   0.46782237507568      0.19380740706086     -1.60177616499068
  N   -0.83329761050752     -0.77875409840625      1.30553606782082
  H   -0.08227756014711     -1.36083841030293      1.64898990751271
  H   -1.73330088773742     -1.16257077850564      1.56161315902025
  N   -1.99907746694609      0.11386382029629     -0.55694164950627
  O   -1.94882191142729      0.61671180133049     -1.67312835784607
  O   -2.98787319228524      0.06508964747677      0.16787989909851
  C   1.76608558011389     -0.59293797505659     -0.08132110083714
  H   1.91572936195117     -0.53564499096279      1.00070976101917
  H   1.72525061575610     -1.64129599177100     -0.38272767626672
  H   2.64352399817094     -0.14318566155025     -0.55054848281909
  C   0.50873057770562      1.59105986342907      0.03582324764432
  H   1.42594075909124      2.10190326397525     -0.26672016751386
  H   -0.33225812956951      2.17110947618779     -0.34787237156502
  H   0.45858515022646      1.58494343786023      1.12599211703301
