18
Coordinates from ORCA-job run
  C   -0.78096583473068     -0.40062391839118     -0.01803826693086
  C   0.52144073334525      0.33315499489416      0.24592236157317
  F   -0.95394257058368     -0.53615385410449     -1.39193700323299
  H   0.49012909291868      0.64222784268179      1.29304245859764
  N   -0.92139735701671     -1.62036790059816      0.66565963511506
  H   -0.16789411362303     -2.25457048069731      0.44100968181526
  H   -1.81051411788399     -2.04762729426140      0.43196253200103
  N   -2.00366640201659      0.41803130975777      0.42044882373540
  O   -1.83113636711596      1.39794066128934      1.13559539380708
  O   -3.08409847011398     -0.01863179639468      0.03793055226430
  C   0.65745059775895      1.56674556118578     -0.64522146542999
  H   0.75694425976764      1.27865736922359     -1.69295649777828
  H   1.55245175107600      2.12293342093106     -0.35769716719175
  H   -0.19484585004374      2.23873268581005     -0.54699272081701
  C   1.70775352612124     -0.61036316994894      0.03634638967217
  H   2.63909581627652     -0.04363787623525      0.09431979704855
  H   1.75888488297288     -1.38859893915862      0.80087201727122
  H   1.66631042289123     -1.07784861598351     -0.95126652152001
