18
Coordinates from ORCA-job run
  C   -0.66245607670246     -0.72867307663905      0.16732750364017
  C   0.69242801447571     -0.03342818806424      0.25129262187675
  F   -0.45881315768759     -2.04677220123529     -0.20345365379121
  H   1.21731592167108     -0.58358940655419      1.04537471407081
  N   -1.42199486450003     -0.61037247078819      1.34175352607463
  H   -2.30524456437515     -1.09994735597080      1.26949939108556
  H   -0.89799590503594     -0.96087941698977      2.13284435705181
  N   -1.47663525256922     -0.12946633458709     -0.98870767273692
  O   -1.37633828469580     -0.67870320341492     -2.08001365785691
  O   -2.12571894295690      0.88196635802535     -0.74239351401746
  C   0.57208976139485      1.43166951379239      0.66211409265248
  H   1.57053978367009      1.84294707831507      0.82938701481978
  H   -0.01521404117636      1.55152029988612      1.57188499891153
  H   0.09309186513001      2.01922373784036     -0.12325863465118
  C   1.49167653730921     -0.19105384904391     -1.04035377222814
  H   2.51012572705953      0.17003797230109     -0.88088893339688
  H   1.05300661273895      0.39729135472412     -1.84950327349033
  H   1.53913686624996     -1.23077081159704     -1.36290510801445
