18
Coordinates from ORCA-job run
  C   -0.65220267999041     -0.83892342112901      0.12145556796581
  C   0.68141134839174     -0.09351057491301      0.23949191653839
  F   -0.37199134026234     -2.13155642642809     -0.20455767485184
  H   1.22839189181080     -0.68919276420537      0.98386992445799
  N   -1.54147218309657     -0.84386481161783      1.22918042571588
  H   -1.04589068006084     -1.09508267013699      2.07510055188525
  H   -1.98219644688386      0.05912397493473      1.33703594050970
  N   -1.43877898199867     -0.25407850983747     -1.05019283509646
  O   -1.35138804691023     -0.81508639862232     -2.13228013363677
  O   -2.06300528246584      0.77835587210082     -0.81085038995128
  C   0.53179883458899      1.32924262278039      0.76911583088382
  H   1.52162641016172      1.76871313652128      0.91143107616127
  H   -0.01874309709384      1.95883865203195      0.06797595141017
  H   0.01718980605943      1.35771720723839      1.73144864160046
  C   1.46734245597683     -0.12323205489595     -1.07036894937650
  H   1.00898610052552      0.52830207777087     -1.81890558784979
  H   2.48445204897436      0.23565519405310     -0.89750547777204
  H   1.52246984227314     -1.13042110564556     -1.48344477859403
