18
Coordinates from ORCA-job run
  C   -0.65098502214703     -0.83862762479782      0.12751995365553
  C   0.68121368416415     -0.08988890487190      0.23997007323686
  F   -0.36853644356541     -2.13303466975866     -0.18896510741657
  H   1.22914762752518     -0.67859754755341      0.98918020017580
  N   -1.54058828605743     -0.83837297473882      1.23519088794411
  H   -1.04644402154501     -1.09408030856257      2.08062071162528
  H   -1.97572375603196      0.06713746086048      1.34411077985000
  N   -1.43895847243234     -0.26311509616141     -1.04758257239549
  O   -2.06236614295956      0.77130308780198     -0.81500084834369
  O   -1.35245029171334     -0.83184320811209     -2.12572318071569
  C   0.52957572440848      1.33681325264424      0.75827263295384
  H   -0.01740005341553      1.96145108188930      0.04995879438092
  H   1.51897007731019      1.77682601875465      0.90195114367653
  H   0.01064321107055      1.37279457360227      1.71803289414214
  C   1.46744350429515     -0.12875826334653     -1.06946936422584
  H   1.00607163322608      0.51284672330366     -1.82467510103526
  H   2.48271166173267      0.23692669067590     -0.90003086010892
  H   1.52767536613528     -1.13978029162928     -1.47236103739955
