13
Coordinates from ORCA-job run
  C   -0.73053127829883     -0.45448996821193     -0.74864117495304
  C   -0.04857087390694      0.40604200460276      0.30486340905418
  F   0.14508774026919     -0.75519710920871     -1.75692719836093
  H   -0.76823702080261      0.83143649621742      1.00453347736296
  H   -1.54339642401602      0.14128752704978     -1.17441042899980
  C   -1.28211107618286     -1.67003775505243     -0.14113580186830
  N   -1.77543099730120     -2.60974200930292      0.35995130684680
  N   0.61328003551417      1.56386588422685     -0.40818354128452
  O   -0.17755246701234      2.30485762479918     -0.97735042479612
  O   1.83014088874648      1.64658422848387     -0.37114858475527
  N   0.98966680977132     -0.30762122358943      1.10692017906583
  O   1.47786888462831     -1.32500166010667      0.62809911743094
  O   1.27078577859134      0.22901596009223      2.17342966525725
