13
Coordinates from ORCA-job run
  C   -0.62857239974988     -0.67444983625490     -0.77054405500941
  C   0.53500176787637      0.20872411124849     -0.33555942275197
  F   -0.10403186738259     -1.89105535148385     -1.13604043231440
  H   1.20443408718872      0.40858320093631     -1.17158699764528
  H   -1.08504730934053     -0.21437282620296     -1.65011205831193
  C   -1.65693458722306     -0.83599417189297      0.26273368127618
  N   -2.54192861586035     -0.92742917236739      1.02811085664035
  N   1.35740483687566     -0.40259497481062      0.75088467078974
  O   0.77860338321521     -1.11304110566131      1.56343178418092
  O   2.54687053754710     -0.10340316757424      0.73067760715528
  N   0.00004157487342      1.53251587646643      0.14331963190203
  O   0.24858463953967      1.88115870722172      1.28714907891028
  O   -0.65442604755972      2.13135871037527     -0.70246434482178
