13
Coordinates from ORCA-job run
  C   -0.96252226656171     -0.34590497250269     -0.48865887342014
  C   0.44818480972761      0.11522875474320     -0.17775825526765
  F   -1.20842227090411     -0.00048280141997     -1.80223072024064
  H   1.19727313483486     -0.29771983665207     -0.85028031894694
  H   -1.67409471719032      0.17702648060406      0.14879820798430
  C   -1.06836075123448     -1.79866104039843     -0.32833752484366
  N   -1.14310143288474     -2.96490862087475     -0.21561974983109
  N   0.82613666552577     -0.20285151540334      1.23198127841839
  O   -0.07097023011283     -0.08924704299105      2.06409064643997
  O   1.99253613816647     -0.52400580553745      1.42937774095748
  N   0.52820747280071      1.61827052816752     -0.31223803201938
  O   -0.43794677233497      2.25887066876263      0.08513319288635
  O   1.57208022016773      2.05338520350234     -0.78425759211700
