13
Coordinates from ORCA-job run
  C   -0.67698577490533     -0.47622383045905     -0.76070317859812
  C   -0.03902266437361      0.32785486475302      0.36563846428689
  F   0.28500362006553     -0.81021102975569     -1.67964292976899
  H   -0.65778205675211      0.36667133188538      1.26189257342793
  H   -1.42743067009309      0.14292227752716     -1.25836809031057
  C   -1.30733931058562     -1.69251502910152     -0.23352494953586
  N   -1.85152973035690     -2.65037127422438      0.17131585567611
  N   0.25066326969579      1.74353478715774     -0.03751246568175
  O   0.64576895923222      2.45775161539165      0.87582934357723
  O   0.07232192555035      2.05985087068199     -1.20821565407757
  N   1.26819122199591     -0.32023203401020      0.74924854094480
  O   2.29289895801070      0.15533063105356      0.28565067379692
  O   1.14624225251617     -1.30436318089964      1.46739181626299
