16

C	-0.296091	0.304005	-1.456433
C	0.0	0.0	0.0
Br	-0.215718	-1.421392	-2.396935
H	1.089848	0.0	0.0
H	-0.439616	-0.924244	0.359177
N	-1.731459	0.768609	-1.675713
O	-2.585443	0.316703	-0.919105
O	-1.944817	1.535716	-2.609694
C	0.717205	1.238387	-2.07426
H	0.643503	1.256381	-3.160281
H	1.691152	0.878723	-1.719671
H	0.550255	2.239964	-1.677708
N	-0.459925	1.069534	0.896292
O	-0.635665	2.201994	0.435901
O	-0.60203	0.777284	2.082182
F	2.574816	0.0	0.0
