16

C	-0.309555	0.107933	-1.471793
C	0.0	0.0	0.0
Br	0.082526	-1.491231	-2.52112
H	1.08974	0.0	0.0
H	-0.345781	0.919854	0.474484
N	-1.78665	0.38436	-1.733922
O	-2.082864	1.004579	-2.752555
O	-2.58959	-0.036233	-0.904383
C	0.554558	1.236369	-2.006294
H	0.232141	2.17962	-1.552841
H	1.571347	1.007836	-1.665312
H	0.483124	1.317583	-3.088613
N	-0.578952	-1.088379	0.794378
O	-0.570367	-2.233915	0.353659
O	-0.985603	-0.783166	1.917872
F	2.571214	0.0	0.0
