14

C	0.0	0.0	0.0
C	-0.437141	0.121402	-1.469119
F	1.389822	0.0	0.0
H	0.072559	1.028099	-1.839504
H	-0.357354	-0.937929	0.429084
C	-0.425333	1.158968	0.798612
N	-0.671695	2.111024	1.438562
N	-1.836177	0.262965	-1.739453
H	-2.418785	-0.429511	-1.27399
H	-2.204362	1.155742	-1.437503
N	0.027659	-1.099684	-2.122791
H	-0.387117	-1.106043	-3.047918
H	1.0371	-1.088476	-2.208534
Br	-4.707867	0.0	0.0
