14

C	0.0	0.0	0.0
C	-0.462129	-0.062956	-1.463515
F	1.38983	0.0	0.0
H	-0.082113	0.857255	-1.938772
H	-0.35347	-0.881813	0.538959
C	-0.434452	1.237009	0.663364
N	-0.695443	2.254395	1.186565
N	-1.874285	-0.123171	-1.682388
H	-2.371503	0.719077	-1.4188
H	-2.326217	-0.859212	-1.149994
N	0.123836	-1.282178	-2.011207
H	1.12502	-1.175663	-2.116293
H	-0.294683	-1.417007	-2.924107
Br	-4.761243	0.0	0.0
