14

C	0.0	0.0	0.0
C	-0.490475	0.182795	-1.437344
F	1.393016	0.0	0.0
H	-1.532202	0.496784	-1.366235
H	-0.359743	-0.938753	0.422526
C	-0.379685	1.125147	0.874006
N	-0.524858	2.031623	1.605353
N	-0.477131	-1.068308	-2.198336
H	0.340397	-1.619354	-1.955084
H	-1.304635	-1.595227	-1.932429
N	0.292898	1.246468	-2.039027
H	-0.069935	1.388692	-2.973156
H	1.255735	0.943076	-2.131221
Br	-3.612314	0.0	0.0
