14

C	0.0	0.0	0.0
C	-0.434508	-0.224299	-1.458529
F	1.387998	0.0	0.0
H	0.115787	0.542294	-2.030763
H	-0.363275	-0.808108	0.637805
C	-0.426785	1.31665	0.494503
N	-0.654622	2.416199	0.8366
N	-1.824515	-0.080697	-1.761784
H	-2.450367	-0.576857	-1.128491
H	-2.127249	0.883891	-1.720697
N	-0.030682	-1.587076	-1.791313
H	-0.475983	-1.810547	-2.672542
H	0.973697	-1.638383	-1.90417
Br	-4.665467	0.0	0.0
