15

C	-0.409494	-0.007804	-1.45151
C	0.0	0.0	0.0
F	-1.820573	-0.083904	-1.559405
H	1.095647	0.0	0.0
H	-0.132387	0.945083	-1.917603
H	-0.332351	-0.940779	0.455271
C	0.192673	-1.159577	-2.222187
H	-0.110356	-1.126527	-3.272059
H	-0.142178	-2.106902	-1.791709
H	1.281737	-1.10927	-2.149717
C	-0.547473	1.192294	0.772785
H	-0.176026	2.127913	0.344932
H	-1.640509	1.214026	0.751261
H	-0.22015	1.159092	1.814613
Cl	3.618005	0.0	0.0
