15

C	-0.523582	0.034456	-1.428411
C	0.0	0.0	0.0
F	0.219784	-0.7304	-2.263021
H	1.090451	0.0	0.0
H	-1.571193	-0.256289	-1.519387
N	-0.47242	1.453685	-1.958972
O	-1.412804	2.176969	-1.618271
O	0.458679	1.783163	-2.680673
N	-0.440006	-1.281689	0.600813
O	-0.187154	-1.458493	1.790963
O	-0.935901	-2.146056	-0.145305
N	-0.319086	1.095072	0.853586
H	-1.06074	1.687984	0.514679
H	0.531062	1.625593	1.020835
H	2.53196	0.0	0.0
