15

C	-0.523304	-0.003403	-1.429635
C	0.0	0.0	0.0
F	0.263656	-0.723876	-2.263234
H	1.09045	0.0	0.0
H	-1.549664	-0.358895	-1.519595
N	-0.561718	1.411801	-1.962555
O	0.351535	1.804758	-2.673304
O	-1.550626	2.069099	-1.629516
N	-0.426788	-1.273189	0.626589
O	-0.864546	-2.173273	-0.112785
O	-0.207386	-1.413395	1.828693
N	-0.314056	1.111535	0.830646
H	0.53372	1.649365	0.979096
H	-1.069916	1.689963	0.498507
H	2.522181	0.0	0.0
