15

C	-0.605675	0.059295	-1.372855
C	0.0	0.0	0.0
F	-1.974197	0.165136	-1.311419
H	1.098813	0.0	0.0
H	-0.206094	0.934733	-1.883717
N	-0.285535	-1.104794	-2.284116
O	0.877807	-1.148064	-2.664246
O	-1.191041	-1.860449	-2.612043
N	-0.392137	-1.225199	0.709492
O	-0.273888	-2.29054	0.092864
O	-0.693731	-1.144066	1.90794
N	-0.338922	1.208397	0.689193
H	0.433837	1.417797	1.315449
H	-1.178755	1.083745	1.238828
H	2.51092	0.0	0.0
