15

C	-0.568172	0.120138	-1.383918
C	0.0	0.0	0.0
F	-1.913854	0.375494	-1.363129
H	1.09723	0.0	0.0
H	-0.059711	0.949719	-1.877605
N	-0.342533	-1.065489	-2.296711
O	-1.316942	-1.590294	-2.821493
O	0.831136	-1.348728	-2.491019
N	-0.41823	-1.217803	0.690616
O	-0.522269	-2.256713	0.02147
O	-0.499424	-1.177751	1.928439
N	-0.29206	1.210003	0.711862
H	-1.151657	1.127911	1.235188
H	0.47539	1.363926	1.358059
H	2.484405	0.0	0.0
