15

C	-0.490425	0.035545	-1.419227
C	0.0	0.0	0.0
F	0.155954	0.983463	-2.134858
H	1.092626	0.0	0.0
H	-0.40855	-0.927598	-1.921141
N	-1.969701	0.39612	-1.445294
O	-2.677632	-0.233069	-0.662233
O	-2.358018	1.241654	-2.24064
N	-0.34905	-1.288635	0.622014
O	-0.20088	-2.309323	-0.061841
O	-0.644261	-1.294881	1.823119
N	-0.411487	1.147124	0.73945
H	0.364711	1.415795	1.335829
H	-1.204567	0.922951	1.326999
H	2.535892	0.0	0.0
