15

C	-0.537205	-0.051768	-1.406319
C	0.0	0.0	0.0
F	0.43459	0.077671	-2.352466
H	1.097449	0.0	0.0
H	-1.112024	-0.949855	-1.604568
N	-1.506932	1.099846	-1.601259
O	-2.561556	0.99306	-0.975226
O	-1.203662	2.022574	-2.342332
N	-0.386829	-1.187679	0.736188
O	-0.518723	-1.098862	1.967827
O	-0.40855	-2.266051	0.112847
N	-0.22138	1.239659	0.6769
H	-1.023596	1.198027	1.290757
H	0.61041	1.401923	1.241494
H	2.412446	0.0	0.0
