15

C	-0.600562	0.072008	-1.375004
C	0.0	0.0	0.0
F	-1.952313	0.300588	-1.322672
H	1.095667	0.0	0.0
H	-0.122899	0.896161	-1.905274
N	-0.382969	-1.13746	-2.255337
O	0.782352	-1.331243	-2.578549
O	-1.358789	-1.781863	-2.615453
N	-0.414463	-1.197358	0.736019
O	-0.562145	-1.09999	1.9636
O	-0.466704	-2.267669	0.11333
N	-0.295689	1.230308	0.675705
H	0.489594	1.419903	1.291215
H	-1.132742	1.142333	1.236478
H	2.499023	0.0	0.0
