13

C	-0.532386	0.013387	-1.417788
C	0.0	0.0	0.0
Cl	-0.198108	1.637715	-2.089799
H	1.091014	0.0	0.0
H	0.049436	-0.677514	-2.032993
H	-0.397855	0.82657	0.584836
N	-1.969781	-0.201063	-1.457075
H	-2.292301	-0.068	-2.408905
H	-2.128367	-1.173844	-1.216819
N	-0.412597	-1.244809	0.6992
O	-0.565786	-2.265605	0.0206
O	-0.539522	-1.197118	1.91827
Cl	3.336438	0.0	0.0
