13

C	-0.423887	0.019058	-1.457479
C	0.0	0.0	0.0
Cl	-0.296326	-1.740879	-2.067562
H	1.088964	0.0	0.0
H	-1.482063	0.237927	-1.58642
H	-0.433254	-0.832247	0.549397
N	0.388354	0.940195	-2.137842
H	0.227863	0.958214	-3.134646
H	1.373939	0.797343	-1.92617
N	-0.522855	1.245358	0.633931
O	-1.752847	1.357586	0.670699
O	0.268877	2.067566	1.078611
Cl	3.396941	0.0	0.0
