13

C	-0.550947	-0.045421	-1.421432
C	0.0	0.0	0.0
Cl	-0.262405	1.578767	-2.125271
H	1.089702	0.0	0.0
H	0.036993	-0.746687	-2.010709
H	-0.396822	0.83945	0.569006
N	-1.947913	-0.377221	-1.566482
H	-2.066142	-1.363335	-1.363261
H	-2.502423	0.159504	-0.909134
N	-0.430811	-1.229194	0.710082
O	-0.87115	-1.11872	1.854896
O	-0.325555	-2.298477	0.102688
Cl	3.321817	0.0	0.0
