13

C	-0.557957	0.002794	-1.406617
C	0.0	0.0	0.0
Cl	-0.034984	1.583984	-2.168058
H	1.088941	0.0	0.0
H	-0.076742	-0.769685	-2.001916
H	-0.390943	0.82824	0.590249
N	-1.969117	-0.180921	-1.409299
H	-2.426523	0.572429	-0.909911
H	-2.330881	-0.212041	-2.353816
N	-0.450672	-1.249236	0.668236
O	-1.071658	-1.147046	1.726788
O	-0.170972	-2.307217	0.115883
Cl	3.364678	0.0	0.0
