13

C	-0.372175	-0.067646	-1.458723
C	0.0	0.0	0.0
Cl	-2.16042	-0.351234	-1.658669
H	1.092787	0.0	0.0
H	-0.214888	0.908459	-1.920505
H	-0.390895	-0.844298	0.561634
N	0.355715	-1.161666	-2.039345
H	0.341271	-1.093219	-3.049246
H	1.322715	-1.10635	-1.722586
N	-0.49067	1.23144	0.652898
O	-0.90713	1.130803	1.806441
O	-0.426827	2.284791	0.021553
Cl	3.306849	0.0	0.0
