14

C	-0.322075	-0.142208	-1.484793
C	0.0	0.0	0.0
Br	-0.229904	1.687496	-2.400625
H	1.103094	0.0	0.0
H	-1.359561	-0.422327	-1.671835
N	0.595889	-1.074266	-1.996791
H	0.537641	-1.189588	-2.998017
H	1.546413	-0.830685	-1.694256
N	-0.501849	-1.227884	0.665264
H	-0.051088	-1.987481	0.156618
H	-0.071344	-1.23806	1.587659
C	-0.573267	1.163207	0.655228
N	-0.989671	2.080244	1.261757
H	2.799107	0.0	0.0
