14

C	-0.568029	0.035089	-1.409754
C	0.0	0.0	0.0
Br	0.261746	-1.513293	-2.450228
H	1.097709	0.0	0.0
H	-0.197114	0.896569	-1.964199
N	-1.976068	-0.037077	-1.393202
H	-2.237777	-0.805364	-0.783672
H	-2.362311	-0.174249	-2.317622
N	-0.499222	-1.211736	0.691056
H	0.249627	-1.894615	0.582319
H	-0.545847	-1.01082	1.685143
C	-0.451459	1.198239	0.697785
N	-0.766322	2.169613	1.281038
H	2.737437	0.0	0.0
