14

C	-0.274973	0.105937	-1.475425
C	0.0	0.0	0.0
Br	-2.240134	0.312481	-1.883768
H	1.105175	0.0	0.0
H	-0.071678	-0.874568	-1.914525
N	0.455438	1.213174	-1.99974
H	1.394	1.163486	-1.586404
H	0.535059	1.142662	-3.00652
N	-0.434796	-1.267076	0.567403
H	0.250117	-1.531977	1.267756
H	-1.335872	-1.17074	1.019329
C	-0.445594	1.1734	0.74732
N	-0.800907	2.061185	1.432225
H	2.70113	0.0	0.0
