14

C	-0.188136	-0.007406	-1.501586
C	0.0	0.0	0.0
Br	-2.128352	0.036594	-2.051096
H	1.099889	0.0	0.0
H	0.110101	-0.998099	-1.864824
N	0.513526	1.098409	-2.065757
H	1.4375	1.103262	-1.61362
H	0.64223	0.966988	-3.062048
N	-0.453651	-1.179143	0.711408
H	-1.305091	-1.539174	0.295255
H	0.278846	-1.876806	0.642163
C	-0.500143	1.223925	0.61334
N	-0.887342	2.201555	1.13809
H	2.697506	0.0	0.0
