15

C	-0.611895	-0.021327	-1.555279
C	0.091584	0.00973	-0.208874
Br	-0.080104	-1.683297	-2.519688
H	1.183577	-0.026408	-0.246893
H	-0.195501	-0.890647	0.344855
N	-2.06812	-0.025157	-1.513061
H	-2.3514	0.869163	-1.121239
H	-2.338873	-0.738623	-0.841563
C	-0.191849	1.090114	-2.417039
N	0.11674	2.00872	-3.081516
C	-0.242031	1.246643	0.620526
H	0.504128	1.142293	1.431218
H	-1.277151	1.267019	0.982487
H	-0.033416	2.168777	0.066542
F	2.054119	0.222034	1.654756
