13

C	0.0	0.0	0.0
C	-0.580807	-0.026279	-1.399912
F	1.391775	0.0	0.0
H	-1.689212	-0.007464	-1.214201
H	-0.324616	0.938693	0.459044
H	-0.292605	0.869451	-1.960526
C	-0.485284	-1.163932	0.828425
H	-1.581274	-1.107416	0.846201
H	-0.158181	-2.107634	0.383091
H	-0.083399	-1.094807	1.843266
C	-0.190448	-1.206042	-2.159201
N	0.119053	-2.153378	-2.78127
H	-3.212155	0.0	0.0
