13

C	-0.55759	-0.051331	-1.384869
C	0.0	0.0	0.0
F	-0.023913	0.967975	-2.148515
H	1.087499	0.0	0.0
H	-0.334408	0.941187	0.449932
H	-0.377973	-0.837345	0.584761
N	-0.166203	-1.332083	-2.128519
O	0.140178	-2.313744	-1.468133
O	-0.280131	-1.292635	-3.352205
N	-1.980075	-0.048584	-1.458796
H	-2.338817	0.690567	-0.869521
H	-2.260915	0.115011	-2.419433
H	3.027041	0.0	0.0
