13

C	-0.596696	0.005991	-1.378214
C	0.0	0.0	0.0
F	-0.212368	1.116213	-2.057077
H	1.091696	0.0	0.0
H	-0.358549	-0.878828	0.540708
H	-0.349734	0.902825	0.512245
N	-0.08685	-1.203545	-2.161591
O	-0.46704	-2.290774	-1.727776
O	0.611457	-1.022844	-3.14248
N	-2.034753	-0.088908	-1.504864
H	-2.429633	0.6684	-0.959222
H	-2.320193	-0.962228	-1.077497
H	2.994543	0.0	0.0
