16

C	-0.443588	-0.004338	-1.451057
C	0.0	0.0	0.0
Cl	-0.440366	1.667889	-2.104127
H	1.107342	0.0	0.0
N	0.327327	-0.820721	-2.277192
H	0.525542	-1.687682	-1.793215
H	-0.162762	-0.995809	-3.145497
N	-1.988195	-0.379309	-1.528329
O	-2.703146	-0.074285	-0.586852
O	-2.354717	-0.922392	-2.566407
N	-0.330925	-1.214586	0.686326
O	-0.283586	-1.207734	1.925719
O	-0.458642	-2.250893	-0.003509
C	-0.402146	1.150153	0.771194
N	-0.632875	2.117071	1.399577
H	2.308375	0.0	0.0
