16

C	-0.246118	0.105289	-1.498569
C	0.0	0.0	0.0
Cl	-0.375331	1.918799	-1.935769
H	1.107587	0.0	0.0
N	0.746197	-0.562709	-2.170255
H	1.652494	-0.428082	-1.698218
H	0.752185	-0.418291	-3.16722
N	-1.637418	-0.388313	-1.936365
O	-2.544673	-0.286331	-1.124021
O	-1.728463	-0.807126	-3.083927
N	-0.356313	-1.323836	0.549691
O	-0.304996	-1.426593	1.775787
O	-0.581452	-2.24728	-0.231965
C	-0.53325	1.038346	0.843856
N	-0.907897	1.893789	1.559058
H	2.461752	0.0	0.0
