16

C	-0.508064	-0.121476	-1.427154
C	0.0	0.0	0.0
Cl	0.629762	-1.180304	-2.40688
H	1.107541	0.0	0.0
N	-1.853549	-0.500739	-1.531427
H	-2.118616	-0.579053	-2.505795
H	-1.955344	-1.390169	-1.057878
N	-0.362389	1.224726	-2.144754
O	0.477704	2.007152	-1.724558
O	-1.071816	1.380424	-3.133912
N	-0.304717	-1.148349	0.806884
O	-0.568688	-2.239698	0.244808
O	-0.068077	-1.035658	2.024198
C	-0.453635	1.193058	0.672969
N	-0.795622	2.172248	1.229374
H	2.27881	0.0	0.0
