16

C	-0.382834	0.090785	-1.473423
C	0.0	0.0	0.0
Cl	-2.087773	0.543462	-1.702713
H	1.090479	0.0	0.0
N	0.470826	1.023917	-2.152299
H	1.418479	0.868603	-1.780933
H	0.186376	1.966046	-1.908358
N	-0.124004	-1.254404	-2.186047
O	1.035235	-1.629189	-2.085298
O	-1.014137	-1.787101	-2.826334
N	-0.487183	-1.140775	0.756316
O	-0.858319	-2.143467	0.131234
O	-0.386462	-1.069033	1.986795
C	-0.340186	1.235016	0.671484
N	-0.553392	2.280714	1.165836
H	2.412503	0.0	0.0
