13

C	-0.247908	-0.03981	-1.495523
C	0.0	0.0	0.0
Cl	-1.989381	-0.373021	-1.929349
H	1.095129	0.0	0.0
H	-0.047619	0.948079	-1.913397
H	-0.345595	-0.925989	0.469694
C	0.672689	-1.067068	-2.124577
H	0.65317	-1.014723	-3.215554
H	0.379862	-2.074403	-1.815348
H	1.670443	-0.850011	-1.72099
C	-0.587864	1.1456	0.661711
N	-1.058098	2.080252	1.197636
F	2.628166	0.0	0.0
