13

C	-0.44055	-0.006757	-1.460495
C	0.0	0.0	0.0
Cl	0.022983	1.571932	-2.194863
H	1.092793	0.0	0.0
H	0.164134	-0.747957	-1.987349
H	-0.371334	0.896435	0.507386
C	-1.921654	-0.227271	-1.707181
H	-2.222544	-1.19695	-1.303238
H	-2.503514	0.552193	-1.208933
H	-2.152996	-0.201203	-2.77503
C	-0.50333	-1.178453	0.679902
N	-0.918494	-2.141465	1.213568
F	2.573106	0.0	0.0
