13

C	-0.195106	-0.024265	-1.502497
C	0.0	0.0	0.0
Cl	-1.943066	-0.040586	-2.024564
H	1.095403	0.0	0.0
H	0.200964	0.918579	-1.884528
H	-0.394118	0.913707	0.449816
C	0.570977	-1.177434	-2.116627
H	1.585472	-1.079597	-1.712029
H	0.142047	-2.134998	-1.80882
H	0.576058	-1.124289	-3.207616
C	-0.538149	-1.167197	0.669589
N	-0.964635	-2.116898	1.216159
F	2.612848	0.0	0.0
