13

C	-0.450351	-0.041185	-1.455984
C	0.0	0.0	0.0
Cl	0.038137	1.505834	-2.240538
H	1.092894	0.0	0.0
H	0.13439	-0.80961	-1.965933
H	-0.366562	0.910499	0.486034
C	-1.93722	-0.238959	-1.68459
H	-2.177682	-0.24213	-2.750497
H	-2.499027	0.567586	-1.207138
H	-2.253783	-1.189064	-1.247044
C	-0.505584	-1.159248	0.710607
N	-0.923317	-2.108445	1.266567
F	2.571683	0.0	0.0
