16

C	-0.484277	0.123056	-1.433246
C	0.0	0.0	0.0
F	-1.842703	0.374562	-1.447789
H	1.090236	0.0	0.0
H	-0.37638	-0.940732	0.422232
C	0.237629	1.175742	-2.225941
H	-0.135656	1.206777	-3.253127
H	1.307851	0.967282	-2.212947
H	0.051781	2.126947	-1.730128
N	-0.333318	-1.237706	-2.100461
O	0.721701	-1.471864	-2.681878
O	-1.264285	-2.025878	-1.956607
N	-0.425867	1.193348	0.728979
H	0.305619	1.443114	1.382888
H	-1.279496	1.019471	1.24495
Br	3.603474	0.0	0.0
