16

C	-0.532305	-0.070771	-1.415193
C	0.0	0.0	0.0
F	-0.074346	-1.209644	-2.018712
H	1.097193	0.0	0.0
H	-0.355606	0.927966	0.449024
C	-2.037809	-0.032417	-1.541268
H	-2.317737	-0.141611	-2.591859
H	-2.439957	-0.858925	-0.958385
H	-2.424137	0.911046	-1.154701
N	0.011537	1.102462	-2.214443
O	0.551248	0.876731	-3.287688
O	-0.202085	2.211683	-1.728631
N	-0.541375	-1.151945	0.740931
H	-0.460321	-0.942121	1.729212
H	0.090941	-1.928792	0.573654
Br	3.640501	0.0	0.0
