16

C	-0.529585	-0.005798	-1.418074
C	0.0	0.0	0.0
F	-0.111258	-1.142126	-2.055214
H	1.100237	0.0	0.0
H	-0.352142	0.909867	0.488488
C	-2.031219	0.092649	-1.548119
H	-2.31211	0.012504	-2.601088
H	-2.468261	-0.727284	-0.980501
H	-2.379973	1.044118	-1.147617
N	0.071462	1.169408	-2.171801
O	-0.154453	2.273246	-1.678917
O	0.676637	0.951668	-3.211766
N	-0.553611	-1.177325	0.688158
H	0.028408	-1.965017	0.423839
H	-0.395764	-1.045802	1.680232
Br	3.640631	0.0	0.0
