16

C	-0.452352	0.089147	-1.452158
C	0.0	0.0	0.0
F	-1.787366	0.447268	-1.503949
H	1.09085	0.0	0.0
H	-0.326868	0.943414	0.453354
C	0.370534	1.036812	-2.282039
H	0.254596	2.040329	-1.866941
H	1.422562	0.755242	-2.222939
H	0.025584	1.038752	-3.318773
N	-0.394005	-1.303379	-2.05512
O	-1.438181	-1.948732	-2.11487
O	0.715686	-1.706335	-2.385404
N	-0.518068	-1.120539	0.763084
H	-1.469782	-1.334917	0.49399
H	0.05845	-1.935157	0.600637
Br	3.637998	0.0	0.0
