16

C	-0.362032	-0.015714	-1.472425
C	0.0	0.0	0.0
F	-0.083591	1.221904	-2.01854
H	1.094064	0.0	0.0
H	-0.3691	0.927283	0.439227
C	0.33448	-1.083041	-2.268787
H	0.007151	-2.073816	-1.947624
H	1.407137	-0.979089	-2.080594
H	0.117612	-0.967857	-3.329338
N	-1.887507	-0.127077	-1.654829
O	-2.310607	-0.590209	-2.713628
O	-2.599946	0.310971	-0.751108
N	-0.453294	-1.143903	0.77135
H	-1.436928	-1.333033	0.633932
H	0.098603	-1.963618	0.558618
Br	3.655423	0.0	0.0
