16

C	-0.481302	0.042806	-1.435278
C	0.0	0.0	0.0
F	-1.763504	0.540604	-1.507231
H	1.094671	0.0	0.0
H	-0.325163	0.951437	0.433393
C	0.428507	0.829946	-2.345285
H	0.45199	1.865903	-2.000152
H	0.045269	0.801476	-3.36859
H	1.443805	0.431489	-2.288774
N	-0.559512	-1.373925	-1.979218
O	0.427785	-2.073462	-1.777092
O	-1.56005	-1.704153	-2.60587
N	-0.604746	-1.117296	0.729675
H	-0.784732	-0.830967	1.682297
H	0.081478	-1.861045	0.772558
Br	3.678302	0.0	0.0
