16

C	-0.412706	0.167079	-1.456901
C	0.0	0.0	0.0
F	-1.775853	0.445657	-1.532843
H	1.091065	0.0	0.0
H	-0.396996	-0.944419	0.376154
C	0.35602	1.223879	-2.195065
H	1.423476	1.006723	-2.13409
H	0.162854	2.18139	-1.709204
H	0.038861	1.279487	-3.236912
N	-0.282632	-1.179505	-2.154472
O	0.56351	-1.305608	-3.035542
O	-1.052589	-2.058534	-1.772575
N	-0.441498	1.105206	0.840845
H	-1.347748	1.445667	0.547965
H	0.231544	1.857784	0.797389
Br	3.601596	0.0	0.0
