15
Coordinates from ORCA-job run
  C   -0.68851660908052     -0.12836313130117      0.13998603347328
  C   0.82914756020881     -0.42404013546289      0.02615663923870
  Br  -1.30830952913630     -0.80845482199255      1.91895164643950
  H   1.00043856998454     -1.50042420740810      0.09201558498531
  N   -0.91864017117263      1.27930626633451      0.15376152759349
  H   -0.73786997064577      1.67333706992603     -0.76367959288395
  H   -1.85733269775111      1.50313531332514      0.45508169667425
  N   -1.30768911427558     -0.81625577943754     -0.94370523692336
  H   -2.29006282711551     -0.57655736817491     -1.00360353217913
  H   -1.21901686119731     -1.82352280145776     -0.86965047293323
  N   1.62356592050190      0.18673253823450      1.15646300136491
  O   1.92766397533426     -0.57835128447337      2.06581313962773
  O   1.89651297343841      1.37621333325129      1.06726430780372
  C   1.32826219711643      0.10584156626040     -1.23815832147166
  N   1.72284658379039      0.53240344237642     -2.25869642080955
