15
Coordinates from ORCA-job run
  C   -0.66222075222784     -0.11483977702869     -0.32760212162886
  C   0.84323616105810     -0.43207464657923     -0.20600975258368
  Br  -1.20436308842166     -1.00867348336420     -2.05323474637091
  H   1.00902737578538     -1.50903417274837     -0.26025467038793
  N   -1.31712372784793     -0.65697588913438      0.80735171143247
  H   -2.30178341865499     -0.42307347623141      0.81101133576361
  H   -1.20690350103608     -1.66090361299158      0.89469659501185
  N   -0.87241943203040      1.27972004480787     -0.53620840974287
  H   -0.63585821502922      1.79550405344268      0.30419020848079
  H   -1.82155009311224      1.47717523846659     -0.82413405225088
  N   1.29377306975289     -0.02840956846727      1.18451485191141
  O   1.31473555685418      1.17104602087334      1.43373594251261
  O   1.56597682251185     -0.94441111026395      1.95030399702431
  C   1.64827908545200      0.26475597047260     -1.19766950949323
  N   2.34819415694594      0.78919440874600     -1.98069137967871
