15
Coordinates from ORCA-job run
  C   -0.67355093342433     -0.25704662661798      0.23111231664189
  C   0.85590741284445     -0.43777447106590      0.06184134414080
  Br  -1.22800550227038     -1.15681224510688      1.88560046858067
  H   1.10039106356039     -1.48845103078458      0.21499264160239
  N   -0.97139380349471      1.13314818460888      0.37923631892154
  H   -0.54862337404341      1.69244859125455     -0.35383791693872
  H   -1.97015704417362      1.29271046139669      0.41242672460759
  N   -1.26548340722298     -1.02550899966082     -0.84958178895135
  H   -1.25664173199831     -0.47217067090993     -1.70117918357711
  H   -2.22153175142054     -1.27674854557614     -0.63125248645754
  N   1.63108821184698      0.35986521112287      1.08177704270680
  O   1.88081711841103      1.52748522865381      0.80466651428402
  O   1.92913233819491     -0.23586359422399      2.10988963619383
  C   1.24405061757709     -0.00089526693692     -1.27609807129814
  N   1.49300078561343      0.34561377384634     -2.37059356045669
