15
Coordinates from ORCA-job run
  C   -0.62354296482660      0.23108997781327     -0.18824881974425
  C   0.81470951691886     -0.32213487961469     -0.05662402312418
  Br  -0.60822220892281      1.97604580902699     -1.06789162449449
  H   0.73419317660534     -1.35727144817916      0.29041551134300
  N   -1.28716460441421     -0.68069606783054     -1.10178552369559
  H   -1.60067620812793     -1.50031897593773     -0.59101635149903
  H   -2.08645067697128     -0.24354773483494     -1.54264842539192
  N   -1.14220257335881      0.43105195539774      1.13422417801186
  H   -2.09468182502880      0.77187191175315      1.10507212390445
  H   -1.08818741677535     -0.41535512448075      1.69100393398639
  N   1.57049703860257      0.39000078249320      1.03696398717726
  O   2.11826370732891      1.44559571122880      0.75181809593601
  O   1.54213129540671     -0.15823897458095      2.13487416857345
  C   1.55822675345558     -0.28200232735799     -1.30522979250932
  N   2.19410699010782     -0.28609061489638     -2.29192743847363
