15
Coordinates from ORCA-job run
  C   -0.70429136970553     -0.10422501344450     -0.02258770987387
  C   0.80208049942808     -0.42195258647470      0.03858402721678
  Br  -1.38464545254601     -0.72150345130846      1.88260411261110
  H   0.92982612014166     -1.49818926230773      0.15719720153816
  N   -0.96275065566290      1.24122915913187     -0.26729380829073
  H   -0.40810298972455      1.85746686163178      0.31182097946331
  H   -1.94599203233426      1.46742147959796     -0.19580613632489
  N   -1.27613697724368     -0.93637049505172     -1.00924429573935
  H   -1.46852606573565     -1.86985664081450     -0.67462256006306
  H   -2.10182001127200     -0.52895233348717     -1.42612066576174
  N   1.50014111544339      0.20033683878368      1.22436727931987
  O   1.38107685920927      1.41514389895212      1.35912818977477
  O   2.14553306120473     -0.55422083979102      1.93834682693252
  C   1.46565651853173      0.04547652955759     -1.17598706142102
  N   2.02895138026569      0.40819585502479     -2.14038637938183
