15
Coordinates from ORCA-job run
  C   -0.65637491400328      0.09023683214444     -0.09175025079740
  C   0.84817121276883     -0.25987089623817      0.02756475039910
  Br  -0.86009295837652      1.78842555003581     -1.11919997815603
  H   0.89843801021459     -1.20360511152422      0.57637862758751
  N   -1.27562874615745     -1.01971422852737     -0.74188119418846
  H   -0.93501377782539     -1.15080019396450     -1.68896156659372
  H   -2.27936751858785     -0.88442733249186     -0.77835061904330
  N   -1.16438071269975      0.35782830224788      1.21991878957057
  H   -1.28757256839381     -0.51548612730424      1.72162425764627
  H   -2.03875395796144      0.86392022836544      1.18437382268686
  N   1.58736526432885      0.73532643743600      0.88347162693464
  O   1.99849381921292      1.75330139177690      0.34123929961015
  O   1.70293867856416      0.42497285833287      2.06329247272923
  C   1.49084229011439     -0.40352948654651     -1.26971984299216
  N   1.97193587880176     -0.57657822374249     -2.32700019539329
