15
Coordinates from ORCA-job run
  C   -0.69092741860734     -0.06435650705920     -0.10289874074073
  C   0.79794073816035     -0.38261698453689     -0.31548193918206
  Br  -1.49615094124500     -0.82782814488290     -1.95209715394288
  H   0.92176255996483     -1.43754351945407     -0.55949927315291
  N   -1.19930147955068     -0.79059623122433      0.97598620551039
  H   -2.17330279628548     -0.58859806146973      1.16051446766432
  H   -1.07150067953610     -1.78783056353304      0.86998455343267
  N   -0.92929580187462      1.30001933639031      0.00786017881722
  H   -0.59908910227914      1.83171603122247     -0.78624984649135
  H   -1.89503894728299      1.52528618177409      0.20521086584433
  N   1.52105040317636     -0.17732750071040      1.00678428720223
  O   1.84929833598477      0.96321947518398      1.29993175237539
  O   1.68810633233185     -1.19554569299476      1.66900019086031
  C   1.39955833696906      0.46427441792701     -1.33364859972018
  N   1.87589046007410      1.16672776336745     -2.14539694847673
