15
Coordinates from ORCA-job run
  C   -0.60540010204090      0.24935160797827     -0.22123386901895
  C   0.79835188077963     -0.36427381061722     -0.01112260497356
  Br  -0.47807032693405      1.93018555265118     -1.20906011530420
  H   0.65611192342957     -1.36839816152710      0.40128859123257
  N   -1.28982082045685     -0.68560744218672     -1.09498743430667
  H   -2.06436828249619     -0.24169650311862     -1.57244780121614
  H   -1.64472486863737     -1.46209464826682     -0.54506016920439
  N   -1.14838272789303      0.56101810402422      1.07007160426342
  H   -1.16252505164580     -0.25265952050830      1.67620984161553
  H   -2.07800854289876      0.95296710030223      0.98958486400584
  N   1.56095182934091      0.38152711019587      1.05473834733075
  O   1.47746971825049     -0.08991458553780      2.18485442872933
  O   2.16744517740761      1.38814767431422      0.71668958839476
  C   1.57515422514978     -0.44611361881998     -1.23718958601516
  N   2.23481596864497     -0.55243885888337     -2.20233568553312
