15
Coordinates from ORCA-job run
  C   -0.67742172281683      0.01972151525593     -0.08620294652165
  C   0.80103639991424     -0.35800816677873      0.15524835410290
  Br  -0.57821863497773      1.89778285086896     -1.02937141865674
  H   0.78446257173313     -1.21860444446117      0.83279838195658
  N   -1.23252635925635     -0.93447430090673     -0.96334632836657
  H   -2.24274360979891     -0.94977071295605     -0.91527885982056
  H   -0.93159892419810     -0.80580790524305     -1.92053253198169
  N   -1.39640811694738      0.08273714512681      1.11499335448476
  H   -2.33430549424964      0.43452111901900      0.96831794510612
  H   -0.92207862920449      0.64577741117434      1.80847976447238
  N   1.57627539947884      0.71948281061877      0.88255538061514
  O   1.12438470102803      1.03470744790698      1.98033502564040
  O   2.58406916416002      1.16676544832782      0.35737039449793
  C   1.47275868945649     -0.70421664382756     -1.08782662277185
  N   1.97331456567871     -1.03061357412534     -2.09853989275711
