15
Coordinates from ORCA-job run
  C   -0.68962490273072     -0.11193020302395      0.14575109399200
  C   0.82174807794923     -0.43836651632840      0.03030336523387
  Br  -1.31031687818744     -0.73933793763774      1.94385017713781
  H   0.97337086364680     -1.51636459115908      0.11524968868004
  N   -0.89411484425083      1.29978131595487      0.12790076203529
  H   -1.82286720344348      1.54894729500891      0.43975120838932
  H   -0.72207741734582      1.66722470635710     -0.80212272120773
  N   -1.32760665712920     -0.81228697212085     -0.91832963076430
  H   -2.30552010838899     -0.55565011063933     -0.97943408644763
  H   -1.25619001049031     -1.81910193001267     -0.82374873009789
  N   1.63404692555064      0.17788982899316      1.14464625885720
  O   1.92714397700231      1.36072501775721      1.03310303157617
  O   1.93092876586692     -0.57675172714691      2.06515886680374
  C   1.32358579093300      0.05837741713203     -1.24637417806863
  N   1.71849362101790      0.45784440686560     -2.27770510611921
