15
Coordinates from ORCA-job run
  C   -0.68274599723871     -0.12305381706154      0.10430616644372
  C   0.82844314029974     -0.33083153079079      0.29697191748537
  Br  -1.40383390353371     -2.04531328879211      0.75502782964899
  H   1.03202730024424     -0.66131465964152      1.31539598525299
  N   -1.15402168380953      0.87905669336248      0.95511408077087
  H   -2.14362594764486      1.05584417040239      0.84137809309171
  H   -0.94973563637238      0.69358215968503      1.92759951011836
  N   -1.01835938722895      0.10178179663100     -1.22601605075991
  H   -1.99990085372277      0.30156994428762     -1.36410567964488
  H   -0.72070272228419     -0.63980747125563     -1.84562633839863
  N   1.51643512435382      1.01835708139260      0.15631299199725
  O   1.73098792439466      1.60177185921580      1.21314964549122
  O   1.76926225304359      1.40942479148323     -0.97384206418560
  C   1.38069046392995     -1.26088213885203     -0.67564573970582
  N   1.81507992556910     -1.99918559006654     -1.47902034760565
