15
Coordinates from ORCA-job run
  C   -0.70198357392839      0.00165142324671     -0.00556598700994
  C   0.69985613843040     -0.41558349982603      0.46688655272165
  Br  -1.84425000299845     -1.68543826151480      0.70054987612080
  H   0.68144612540961     -0.64063960465253      1.53308455169946
  N   -1.11386410085189      1.16521336512608      0.64692697110934
  H   -2.02214072624678      1.48766467679587      0.33956850361468
  H   -1.10610557255418      1.07259926680947      1.65356214782371
  N   -0.78545538579357      0.10326273286041     -1.38923348090938
  H   -0.52088931633793     -0.74598173720796     -1.87017132997935
  H   -1.68790364098837      0.42338245761093     -1.71432647470835
  N   1.62814518111199      0.77981991573856      0.31341669290536
  O   1.79094704271600      1.44280413040512      1.33170985650167
  O   2.10311781423730      0.98703326088490     -0.79370298930161
  C   1.22553404084328     -1.53787742401155     -0.29463998654137
  N   1.65254597695090     -2.43691070226519     -0.91806490404669
