15
Coordinates from ORCA-job run
  C   -0.70555081704347     -0.09606081291135     -0.01621587571502
  C   0.79697432306324     -0.43388603764662      0.03088650161527
  Br  -1.37675993148212     -0.70906368027938      1.89289259980150
  H   0.91108836119806     -1.51201319051114      0.14561255903182
  N   -0.94835387912583      1.25363759708433     -0.25558599053949
  H   -1.92591622802407      1.49487189413782     -0.15910538453508
  H   -0.37096424728749      1.86079442584703      0.31095889439788
  N   -1.29865826189341     -0.91755085037710     -0.99876412807521
  H   -2.10742731537270     -0.48754681015717     -1.42531194033920
  H   -1.51619479173038     -1.84508246440398     -0.66385649549756
  N   1.51447653088063      0.17655246731500      1.21132336654448
  O   1.41117875952227      1.39236642522476      1.35050566355729
  O   2.14805517742357     -0.58928575048801      1.92381249283771
  C   1.45558842826054      0.02747928277878     -1.18879398191843
  N   2.01346389161119      0.38478750438701     -2.15835828116598
