15
Coordinates from ORCA-job run
  C   -0.64349270961543     -0.14604266038731     -0.35038701229948
  C   0.85781107385817     -0.43190827803725     -0.13545115945513
  Br  -1.08977265580427     -1.16120145658518     -2.03589020299734
  H   1.03870853534677     -1.50743614082738     -0.10788656407349
  N   -1.34710142267642     -0.62023272955940      0.78580754794574
  H   -1.22857464627742     -1.61408157434242      0.94674474160677
  H   -2.33364755433963     -0.40264536511887      0.72495486299437
  N   -0.85963922387211      1.22846063376832     -0.66266534999005
  H   -0.67757264150417      1.80135621976995      0.15403824123299
  H   -1.79421837675612      1.39011859043931     -1.01371164232404
  N   1.23444572485920      0.07084951593927      1.24466192900384
  O   1.47804668606386     -0.78765133601694      2.08331931238968
  O   1.22992100372193      1.28451526127449      1.41290325270640
  C   1.70214179761471      0.20921487650566     -1.13190703449055
  N   2.43294440938094      0.68868444317776     -1.91553092224974
