15
Coordinates from ORCA-job run
  C   -0.73258042679045     -0.30390843994335      0.29724793033663
  C   0.81920372491069     -0.33222382624044      0.27297136932091
  Br  -1.21388407203987     -2.14087205332918      0.83196366672883
  H   1.18519112273582     -0.52021629381706      1.28587843543394
  N   -1.14744711512403      0.56467024357165      1.36205034665243
  H   -2.15060001075419      0.47385734083017      1.47659283552901
  H   -0.93867551145359      1.52350922142865      1.10624448357038
  N   -1.38490970357721     -0.05653634055673     -0.95550170140425
  H   -1.18375909513559      0.88542699216101     -1.26961546398351
  H   -1.13314256190942     -0.72945528342417     -1.66993985146279
  N   1.43387825654207      1.01488955017186     -0.11504966509035
  O   2.65059706186319      1.02519059366047     -0.22594762053725
  O   0.68615505596407      1.97814609964457     -0.26477851161141
  C   1.34977421264657     -1.30796284846947     -0.67122432555667
  N   1.76019906212195     -2.07551495568799     -1.45989192792589
