15

C	-0.464012	0.031144	-1.482088
C	0.0	0.0	0.0
Br	0.067888	-1.610408	-2.410627
H	1.090783	0.0	0.0
C	-1.911878	0.202805	-1.640981
N	-3.056099	0.422266	-1.801766
C	0.182909	1.168629	-2.139362
N	0.640896	2.1103	-2.673859
N	-0.537524	-1.259507	0.627041
O	0.247308	-2.024325	1.170167
O	-1.762751	-1.395757	0.579103
N	-0.461295	1.104755	0.764287
H	-1.377899	1.450686	0.519841
H	0.237259	1.831858	0.805016
Cl	3.232405	0.0	0.0
