15

C	-0.456146	0.031798	-1.488076
C	0.0	0.0	0.0
Br	-2.437291	-0.17627	-1.573735
H	1.094475	0.0	0.0
C	-0.176735	1.369983	-2.01072
N	0.044808	2.452688	-2.417957
C	0.130928	-0.96477	-2.383367
N	0.630611	-1.699224	-3.157535
N	-0.454125	-1.324986	0.581977
O	-1.01537	-1.329419	1.669863
O	-0.205734	-2.315487	-0.101229
N	-0.444655	1.079674	0.783332
H	-1.395596	1.381418	0.61324
H	0.2201	1.842781	0.769894
Cl	3.177137	0.0	0.0
