15

C	-0.51224	0.026216	-1.455966
C	0.0	0.0	0.0
Br	-0.045792	-1.642805	-2.374477
H	1.090786	0.0	0.0
C	-1.961307	0.225559	-1.554557
N	-3.113705	0.43845	-1.649449
C	0.137172	1.133256	-2.160286
N	0.574038	2.047401	-2.755905
N	-0.493858	-1.266049	0.666848
O	-1.714412	-1.456711	0.624144
O	0.316235	-1.970631	1.256043
N	-0.474328	1.164909	0.665608
H	0.169813	1.441323	1.394271
H	-1.42	1.06414	1.012836
Cl	3.236183	0.0	0.0
