15
Coordinates from ORCA-job run
  C   0.74861715792190     -0.03262436277064     -0.33492180406577
  C   -0.62076605242293      0.68137770563433     -0.45667386511742
  Br  1.44108929766791     -0.15207187894931     -2.16888844061636
  H   -0.49009069661761      1.64433861072431     -0.95369359685287
  C   0.66536331993644     -1.43183086924390      0.26320089537037
  H   0.29076508543145     -1.37941243845977      1.28671827796537
  H   1.65884690825123     -1.88084757045590      0.26923627256177
  H   -0.00355783364209     -2.05466040298660     -0.33222204206346
  C   1.66214645619570      0.81343796314686      0.42681402013099
  N   2.39778131682802      1.46693530543534      1.07100556172389
  N   -1.13969976175834      1.00757296923912      0.93381593931912
  O   -1.67872182305184      0.09864744783335      1.55530211261371
  O   -0.93823979022319      2.15421550302966      1.31730249788080
  C   -1.60106944598944     -0.13930588099942     -1.15387751049220
  N   -2.39146413852719     -0.79577210117743     -1.72311831835793
