15
Coordinates from ORCA-job run
  C   0.62121013143965     -0.23219638827306     -0.28986317076941
  C   -0.60133101471949      0.68636102022905     -0.03757838599178
  Br  0.31882969606223     -1.34080154076524     -1.87241729029693
  H   -0.37007830765604      1.31778884640001      0.82574541943820
  C   0.93849274852052     -1.12849735623024      0.90514994242683
  H   1.86835657327366     -1.66386630835760      0.71293307517855
  H   1.05304314236497     -0.52121863969302      1.80640682044482
  H   0.14206421437881     -1.85416088226279      1.06448176688326
  C   1.74740260438583      0.65410827353313     -0.57458836049682
  N   2.65718290183588      1.37762976159963     -0.75357663851386
  N   -1.79928467030053     -0.13628784746204      0.38731141436354
  O   -1.86110402332363     -0.37852892916591      1.58922804171356
  O   -2.57385614334536     -0.50769836417611     -0.48420440426455
  C   -0.94118983175154      1.51094746627448     -1.18764143198728
  N   -1.19973802116497      2.21542088834972     -2.09138679812813
