15
Coordinates from ORCA-job run
  C   0.75124846538650     -0.00159841759933     -0.33790026458273
  C   -0.65797705699933      0.62351392263178     -0.40436096769087
  Br  1.34685089002539     -0.06745403605821     -2.21556172948741
  H   -0.61691676759893      1.57656319559053     -0.93869417173327
  C   0.79946086660279     -1.41269620191727      0.23528095895741
  H   0.14972574082111     -2.07062059979933     -0.34396146135967
  H   1.82029550185267     -1.79145716466390      0.17836627042884
  H   0.48129439604921     -1.39850749403044      1.27721561362960
  C   1.65223400633199      0.91111286452234      0.35895271811786
  N   2.38658737118282      1.64441918431905      0.91151656610836
  N   -1.22356134082432      0.98800275527513      0.97039845316857
  O   -2.24665682787677      1.65584808579190      0.93293090862052
  O   -0.62613305831058      0.60051970348664      1.96600159545672
  C   -1.62318459598753     -0.26230712585030     -1.04524119549856
  N   -2.39426759065502     -0.99433867169861     -1.54494329413536
