19

C	-0.53027	-0.004233	-1.434311
C	0.0	0.0	0.0
Cl	0.360161	-1.284297	-2.310457
H	1.08907	0.0	0.0
C	-2.011627	-0.241518	-1.620213
H	-2.577851	0.55105	-1.133323
H	-2.245765	-0.250807	-2.682549
H	-2.276548	-1.208397	-1.192293
N	-0.128125	1.295216	-2.144106
O	0.830742	1.904026	-1.696113
O	-0.778351	1.597511	-3.142051
C	-0.470395	-1.192782	0.82186
H	-1.544101	-1.151768	1.026766
H	-0.233809	-2.118727	0.298107
H	0.075117	-1.187527	1.764646
N	-0.442933	1.230473	0.732264
O	-1.246925	1.996295	0.192866
O	0.005105	1.378926	1.862918
Cl	3.31211	0.0	0.0
