19

C	-0.361948	-0.008874	-1.48648
C	0.0	0.0	0.0
Cl	0.140433	1.531902	-2.19681
H	1.091688	0.0	0.0
C	0.378488	-1.13204	-2.192564
H	1.444846	-1.013973	-1.98354
H	0.033065	-2.098742	-1.827996
H	0.200411	-1.069059	-3.267967
N	-1.862549	-0.206581	-1.740781
O	-2.292289	-1.296433	-1.364107
O	-2.519008	0.654837	-2.304938
C	-0.465821	-1.173288	0.848953
H	-0.011187	-1.054255	1.835425
H	-0.101331	-2.110869	0.431145
H	-1.550448	-1.214466	0.9396
N	-0.522862	1.234243	0.653692
O	-1.708908	1.501489	0.440299
O	0.222353	1.860645	1.397914
Cl	3.331121	0.0	0.0
