19

C	-0.446731	0.067072	-1.472434
C	0.0	0.0	0.0
Cl	-2.173653	0.487904	-1.602232
H	1.090696	0.0	0.0
C	0.388223	0.986149	-2.3387
H	0.167652	2.018662	-2.079751
H	0.150143	0.814964	-3.391057
H	1.443637	0.789338	-2.142481
N	-0.271769	-1.365399	-2.003026
O	-1.241985	-2.11258	-2.055832
O	0.881587	-1.663533	-2.292232
C	-0.520482	-1.194209	0.767892
H	-0.040129	-2.095154	0.384304
H	-0.234913	-1.090985	1.814077
H	-1.604218	-1.294345	0.703351
N	-0.417544	1.279232	0.662877
O	-1.246075	1.22292	1.572213
O	0.095687	2.317811	0.252619
Cl	3.29266	0.0	0.0
