19

C	-0.39375	-0.019093	-1.476192
C	0.0	0.0	0.0
Cl	0.198864	1.467533	-2.230373
H	1.091637	0.0	0.0
C	0.237224	-1.211016	-2.173685
H	-0.181685	-2.138195	-1.784401
H	0.04197	-1.15285	-3.24639
H	1.313833	-1.176943	-1.989989
N	-1.914741	-0.108156	-1.686889
O	-2.522087	0.804176	-2.225444
O	-2.412543	-1.164247	-1.298987
C	-0.478764	-1.150445	0.87153
H	-0.123949	-2.100376	0.472843
H	-1.563449	-1.175873	0.964222
H	-0.022493	-1.018846	1.855742
N	-0.49023	1.258866	0.639966
O	-1.696675	1.494806	0.522491
O	0.306029	1.941721	1.273306
Cl	3.331542	0.0	0.0
