13

C	-0.518464	0.025618	-1.41651
C	0.0	0.0	0.0
F	-0.080873	1.159174	-2.096165
H	1.093729	0.0	0.0
H	-1.617414	0.065535	-1.458549
H	-0.347281	-0.936835	0.456192
C	-0.102368	-1.163576	-2.189775
N	0.159315	-2.115341	-2.826735
C	-0.504797	1.205255	0.783381
H	-0.10353	1.168476	1.799554
H	-1.600842	1.268313	0.844649
H	-0.130076	2.121271	0.324302
F	2.676693	0.0	0.0
