13

C	-0.484403	0.002988	-1.456014
C	0.0	0.0	0.0
Br	-2.475403	0.091069	-1.477639
H	1.097712	0.0	0.0
H	-0.343611	0.936217	0.453984
C	-0.023077	1.177988	-2.192011
N	0.327228	2.135437	-2.776205
C	-0.12161	-1.22528	-2.158286
N	0.146139	-2.205722	-2.747672
N	-0.474844	-1.199241	0.664608
H	0.306348	-1.642167	1.127729
H	-1.188662	-0.993425	1.347551
Cl	3.339606	0.0	0.0
