13

C	-0.520678	-0.058977	-1.453262
C	0.0	0.0	0.0
Br	0.216578	1.42486	-2.500429
H	1.097718	0.0	0.0
H	-0.345224	-0.923325	0.482346
C	-0.152787	-1.313467	-2.108769
N	0.095447	-2.347273	-2.610297
C	-1.979897	0.072878	-1.468658
N	-3.153942	0.134135	-1.463449
N	-0.509377	1.198968	0.641897
H	0.270307	1.73392	1.000651
H	-1.130242	0.975879	1.405732
Cl	3.374179	0.0	0.0
