13

C	-0.500473	-0.092443	-1.459584
C	0.0	0.0	0.0
Br	0.177132	-1.722122	-2.311778
H	1.104006	0.0	0.0
H	-0.338063	0.976379	0.371676
C	-1.962981	-0.150444	-1.49279
N	-3.138479	-0.147957	-1.498354
C	-0.056639	1.054109	-2.248733
N	0.269993	2.005745	-2.856961
N	-0.525759	-1.111828	0.768494
H	0.243385	-1.602883	1.20219
H	-1.166162	-0.8014	1.482947
Cl	3.372023	0.0	0.0
