14

C	-0.602867	-0.106119	-1.393165
C	0.0	0.0	0.0
F	-0.074549	-1.24316	-1.995713
H	1.0969	0.0	0.0
H	-0.358949	0.936892	0.441972
N	-2.039935	-0.255819	-1.406668
H	-2.253727	-0.769586	-0.553194
H	-2.478156	0.655383	-1.357699
C	-0.245263	1.059379	-2.230456
N	0.004495	2.010915	-2.86958
N	-0.535028	-1.13608	0.7797
H	0.096087	-1.911869	0.59853
H	-0.40502	-0.912083	1.759634
H	2.977509	0.0	0.0
