14

C	-0.5127	-0.0696	-1.419845
C	0.0	0.0	0.0
F	-0.210952	-1.350253	-1.927729
H	1.098496	0.0	0.0
H	-0.379765	-0.900278	0.503947
N	-1.91709	0.187435	-1.48997
H	-2.394552	-0.390024	-0.807115
H	-2.267668	-0.010608	-2.420735
C	0.142989	0.894783	-2.335352
N	0.576592	1.685537	-3.087807
N	-0.468407	1.22287	0.682963
H	0.369451	1.6412	1.085681
H	-0.81772	1.888462	4.9e-05
H	2.916237	0.0	0.0
