14

C	-0.575245	0.012785	-1.405766
C	0.0	0.0	0.0
F	-0.006789	-1.060399	-2.126974
H	1.096445	0.0	0.0
H	-0.367201	0.892763	0.514049
N	-1.99255	-0.111622	-1.361655
H	-2.173359	-0.869779	-0.708321
H	-2.350041	-0.342732	-2.28056
C	-0.22165	1.236669	-2.156435
N	-0.013119	2.211232	-2.775648
N	-0.514955	-1.213369	0.669776
H	-0.565431	-1.021053	1.662689
H	0.211864	-1.915821	0.563136
H	2.971237	0.0	0.0
