16

C	0.0	0.0	0.0
C	-0.477484	-0.217968	-1.419866
F	1.411637	0.0	0.0
H	-1.57085	-0.189401	-1.367178
H	-0.308559	1.002746	0.303268
C	-0.490901	-1.038653	0.973891
H	-0.132577	-2.025552	0.679564
H	-0.136782	-0.802689	1.981559
H	-1.58329	-1.027234	0.963256
N	-0.069657	-1.550155	-1.86993
H	0.937089	-1.557856	-1.993171
H	-0.50037	-1.747608	-2.764723
N	-0.024041	0.913309	-2.233244
H	0.987366	0.877722	-2.298798
H	-0.402851	0.82554	-3.16876
Cl	-3.898453	0.0	0.0
