16

C	0.0	0.0	0.0
C	-0.503186	0.124465	-1.437291
F	1.396456	0.0	0.0
H	-1.55504	0.422498	-1.365796
H	-0.306036	0.906588	0.534724
C	-0.485843	-1.229415	0.723752
H	-0.080698	-2.11586	0.231553
H	-1.57833	-1.241835	0.705149
H	-0.143065	-1.218585	1.761632
N	-0.330008	-1.146079	-2.148068
H	-1.08572	-1.761553	-1.863491
H	-0.485939	-0.929502	-3.126561
N	0.220559	1.137345	-2.201074
H	1.207026	1.025744	-1.99264
H	-0.05898	2.053779	-1.871454
Cl	-3.838734	0.0	0.0
