16

C	0.0	0.0	0.0
C	-0.34511	-0.161496	-1.486386
F	1.404301	0.0	0.0
H	0.145283	-1.10656	-1.786813
H	-0.318474	0.992107	0.333729
C	-0.550359	-1.081449	0.886694
H	-0.277843	-2.071604	0.509871
H	-0.168693	-0.97595	1.905214
H	-1.639898	-0.986646	0.907027
N	0.207412	0.99964	-2.184378
H	1.215583	0.999712	-2.094698
H	-0.040857	0.901073	-3.161137
N	-1.728948	-0.257213	-1.86542
H	-2.158997	-1.101558	-1.510267
H	-2.282604	0.489203	-1.455939
Cl	-4.381939	0.0	0.0
