16

C	0.0	0.0	0.0
C	-0.335389	0.026568	-1.498442
F	1.405918	0.0	0.0
H	0.148387	-0.881306	-1.902759
H	-0.313041	0.944234	0.455323
C	-0.578081	-1.177827	0.728281
H	-1.666364	-1.069426	0.70721
H	-0.244643	-1.198389	1.768518
H	-0.292225	-2.116192	0.24547
N	0.240164	1.254199	-2.05093
H	1.24744	1.226525	-1.958994
H	-0.000564	1.270701	-3.033682
N	-1.713229	-0.001882	-1.909109
H	-2.176214	-0.85749	-1.632829
H	-2.25388	0.725628	-1.450644
Cl	-4.330324	0.0	0.0
