14

C	-0.372043	0.166488	-1.472649
C	0.0	0.0	0.0
Br	-0.391296	-1.608831	-2.357012
H	1.093848	0.0	0.0
H	-1.394211	0.534883	-1.609449
H	-0.428932	-0.910394	0.429777
C	0.668786	1.048763	-2.140533
H	0.572807	1.076245	-3.228438
H	1.654076	0.699959	-1.81536
H	0.532737	2.059179	-1.741869
N	-0.427961	1.229711	0.70191
H	0.385802	1.569266	1.199737
H	-1.143681	1.021564	1.386524
F	2.757661	0.0	0.0
