14

C	-0.543106	-0.029731	-1.417198
C	0.0	0.0	0.0
Br	-0.145952	1.683317	-2.311741
H	1.092268	0.0	0.0
H	0.028622	-0.768254	-1.987674
H	-0.393343	0.881525	0.526078
C	-2.036453	-0.286763	-1.520091
H	-2.246708	-1.245817	-1.038578
H	-2.373475	-0.323812	-2.558429
H	-2.597409	0.502059	-1.005342
N	-0.383236	-1.27152	0.653267
H	0.457479	-1.610983	1.110374
H	-1.087442	-1.119875	1.366255
F	2.722342	0.0	0.0
