14

C	-0.236798	-0.054728	-1.485986
C	0.0	0.0	0.0
Br	-2.18515	-0.208205	-1.962057
H	1.099231	0.0	0.0
H	0.045893	0.904332	-1.926166
H	-0.404089	0.927819	0.426977
C	0.556822	-1.179368	-2.112178
H	0.520667	-1.158765	-3.203569
H	1.578376	-1.022727	-1.742895
H	0.193765	-2.13959	-1.745791
N	-0.444798	-1.218228	0.679194
H	0.256529	-1.448049	1.371068
H	-1.32751	-1.072166	1.151295
F	2.723289	0.0	0.0
