14

C	-0.166667	-0.041942	-1.503123
C	0.0	0.0	0.0
Br	-2.084622	-0.275708	-2.089625
H	1.097191	0.0	0.0
H	0.091268	0.936976	-1.913522
H	-0.43399	0.912455	0.418734
C	0.704391	-1.114268	-2.124421
H	1.69956	-0.932411	-1.689415
H	0.724686	-1.052619	-3.214803
H	0.36236	-2.111744	-1.838011
N	-0.447911	-1.179412	0.735086
H	-1.281545	-1.573952	0.311683
H	0.291289	-1.868865	0.692303
F	2.729666	0.0	0.0
