17

C	-0.454579	0.101808	-1.439536
C	0.0	0.0	0.0
Br	-2.431948	0.31091	-1.606405
H	1.105576	0.0	0.0
C	0.236009	1.249633	-2.1353
H	0.03778	1.238217	-3.208321
H	1.309528	1.148486	-1.940573
H	-0.120472	2.190689	-1.714556
N	-0.094315	-1.213245	-2.125529
O	-0.891106	-2.141032	-2.103644
O	1.03046	-1.245362	-2.618227
N	-0.362866	-1.23714	0.653682
H	-1.222811	-1.161607	1.180398
H	0.403412	-1.488621	1.270837
C	-0.389419	1.205173	0.725786
N	-0.673264	2.15373	1.363213
H	2.588251	0.0	0.0
