17

C	-0.602343	0.045461	-1.398475
C	0.0	0.0	0.0
Br	0.343252	-1.240811	-2.545508
H	1.109087	0.0	0.0
C	-2.080977	-0.256704	-1.450766
H	-2.624236	0.521455	-0.904449
H	-2.234688	-1.220376	-0.965206
H	-2.439931	-0.289066	-2.478075
N	-0.343843	1.404847	-2.031618
O	-1.057938	1.724957	-2.98115
O	0.572831	2.077976	-1.571892
N	-0.306989	-1.29838	0.618191
H	0.591352	-1.655824	0.943588
H	-0.917575	-1.188054	1.417958
C	-0.505755	1.107811	0.790881
N	-0.937312	1.962776	1.478107
H	2.568296	0.0	0.0
