17

C	-0.356112	-0.059704	-1.47375
C	0.0	0.0	0.0
F	-1.725746	-0.388786	-1.653637
H	1.101329	0.0	0.0
C	-0.189655	1.260432	-2.113741
N	-0.100918	2.271269	-2.704953
C	0.521309	-1.089263	-2.156778
H	1.548669	-0.867549	-1.846821
H	0.245105	-2.068807	-1.766681
H	0.405005	-1.063596	-3.242661
N	-0.394048	-1.272642	0.606979
H	0.226285	-1.438709	1.389688
H	-1.349328	-1.228407	0.945762
N	-0.501139	1.219536	0.616451
H	-1.453021	1.095234	0.94672
H	0.088904	1.437678	1.409925
F	2.676836	0.0	0.0
