17

C	-0.336964	0.020995	-1.48955
C	0.0	0.0	0.0
F	-0.13277	-1.270448	-2.017954
H	1.101327	0.0	0.0
C	-1.758569	0.336123	-1.743445
N	-2.887251	0.591896	-1.946512
C	0.622322	0.96536	-2.188613
H	0.56125	0.834927	-3.271551
H	0.376498	1.993228	-1.922179
H	1.618135	0.723871	-1.795637
N	-0.635784	-1.153576	0.651454
H	-0.452446	-1.962823	0.066505
H	-0.10169	-1.314597	1.502076
N	-0.449075	1.257712	0.573479
H	0.234584	1.555372	1.257201
H	-1.340997	1.105579	1.032243
F	2.721585	0.0	0.0
