17

C	-0.594774	-0.016729	-1.407569
C	0.0	0.0	0.0
F	-0.035044	1.020181	-2.146832
H	1.101302	0.0	0.0
C	-0.253513	-1.275898	-2.105333
N	-0.034003	-2.284446	-2.665585
C	-2.100703	0.17515	-1.422584
H	-2.30287	1.132721	-0.942777
H	-2.47529	0.187209	-2.448749
H	-2.585112	-0.623308	-0.85865
N	-0.509733	-1.17978	0.744602
H	0.129997	-1.259486	1.531716
H	-0.313794	-2.011588	0.192628
N	-0.431718	1.220964	0.672545
H	-1.115288	0.978389	1.38085
H	0.389829	1.605425	1.123687
F	2.662601	0.0	0.0
