17

C	-0.356368	-0.083399	-1.472356
C	0.0	0.0	0.0
F	-1.725638	-0.419211	-1.643892
H	1.094993	0.0	0.0
C	-0.193991	1.227121	-2.13291
N	-0.087638	2.219291	-2.751693
C	0.522728	-1.120409	-2.140656
H	0.245503	-2.09488	-1.738396
H	0.408014	-1.108747	-3.227056
H	1.549654	-0.894417	-1.831663
N	-0.391352	-1.263714	0.626514
H	-1.348648	-1.219502	0.960085
H	0.227113	-1.415266	1.413988
N	-0.505816	1.227369	0.596259
H	0.079459	1.458069	1.389735
H	-1.458978	1.105144	0.923036
F	2.676844	0.0	0.0
