13
Coordinates from ORCA-job run
  C   -0.30773565055459     -0.27473786510517     -0.49379947841212
  C   0.58071273855658      0.28096842351174      0.59456835427202
  F   0.06538386426093      0.34168249477471     -1.68679745419384
  H   0.34372053156668     -0.16705405633819      1.56136331651661
  H   -0.11256043198695     -1.34231096905043     -0.61387827647253
  H   0.51805120457949      1.36674737576590      0.64369418715015
  C   -1.77025708722658      0.00196126650529     -0.23416453880945
  H   -1.94258090875461      1.07420547659661     -0.12171904185242
  H   -2.36441213073234     -0.35429618838263     -1.07650432689263
  H   -2.10964201625107     -0.50967392457311      0.66910995348193
  N   2.01110629887540     -0.05180109924996      0.31650558483690
  O   2.27153735494747     -1.23751165756164      0.13048506500970
  O   2.81767623271958      0.87282072310688      0.31013665536569
