13
Coordinates from ORCA-job run
  C   -0.32772559673118     -0.08279062734713     -0.54756679974634
  C   0.60425357862326      0.05552192090394      0.63343208661964
  F   -0.00332990068801      0.92787616412435     -1.45084258068590
  H   0.54417679731242      1.04947905808971      1.07357738029696
  H   -0.13760154898512     -1.03200539064114     -1.05264607249129
  H   0.40631771847230     -0.71423898912298      1.38166997693342
  C   -1.77843837801051      0.06053904224345     -0.15037078920013
  H   -1.94568723894879      1.01888817311409      0.34527050137899
  H   -2.08049244088582     -0.74532168501405      0.52208615276060
  H   -2.40679906169127      0.02072376482482     -1.04088759595641
  N   2.02208868454328     -0.13347850829864      0.19996200681969
  O   2.27497855615890     -1.16877483816060     -0.41033205855800
  O   2.82725883083054      0.74358191528418      0.49664779182878
