13
Coordinates from ORCA-job run
  C   -0.49024923928662     -0.75053209792826     -0.19606844498501
  C   0.72064633035830     -0.52461693509610      0.69534439036112
  F   -0.05595043438165     -1.26898436967727     -1.41029624690683
  H   1.39002144138717     -1.38208732887859      0.63927043174444
  H   -1.09724410358459     -1.52753403750342      0.28142534444755
  H   0.41247492004936     -0.32669143358246      1.72111086427990
  C   -1.31399865905329      0.48744369813282     -0.46301730420073
  H   -0.73247555989057      1.21276029403258     -1.03342320896645
  H   -1.63411270806552      0.95640936750841      0.46907769048928
  H   -2.19452603169887      0.21764543579156     -1.04704768161693
  N   1.48755657424167      0.66589031971193      0.23956036132296
  O   1.22144006678215      1.73912625380059      0.78051354134042
  O   2.28741740314247      0.50017083368821     -0.67744973730973
