13
Coordinates from ORCA-job run
  C   -0.42051487642258     -0.73002177287897     -0.26117136797622
  C   1.03032362140086     -0.26842022129183     -0.27868252612830
  F   -0.58882590683410     -1.47620193280177     -1.42612770447256
  H   1.70185886195077     -1.12666876081299     -0.26808772927336
  H   -0.57694911087977     -1.40625498357048      0.58232737859962
  H   1.22552756296488      0.37174238484489     -1.13692500150336
  C   -1.41277665221771      0.40664080151089     -0.24976358005749
  H   -1.34058587604326      0.98073573296184      0.67601595529062
  H   -2.42533736736978      0.00833788267694     -0.32759111399858
  H   -1.23396982739852      1.07586170176483     -1.09367293989471
  N   1.29583288831888      0.52481596583496      0.94916029664493
  O   1.24660621012030     -0.08972689609101      2.01362340963477
  O   1.49981047241002      1.73016009785269      0.82289492313464
