16
Coordinates from ORCA-job run
  C   -0.40101367502291     -0.44456120887704     -0.16210884706479
  C   0.75534847599388      0.51983459730110      0.10642322599595
  H   -0.13864061131658     -1.12840764607595     -0.97244883841876
  H   0.49277917654706      1.09932621839807      0.99658686050616
  C   -1.73259536558414      0.23924166250737     -0.40868759599829
  H   -2.52366190367238     -0.50516379155604     -0.51806426634826
  H   -1.98146873740585      0.89474148781038      0.42761675415550
  H   -1.68861268068181      0.82984242661207     -1.32519940798949
  N   -0.51547545115363     -1.31349820777131      1.05536322858464
  O   -0.69301983215004     -0.73739532794710      2.12488643180790
  O   -0.45154957895495     -2.52713634551436      0.88976355699691
  C   0.88443429282751      1.44857101617282     -1.03312591490158
  N   1.02927510122575      2.15801249672860     -1.95869134875895
  N   1.95749925617389     -0.24046660440119      0.40349286413809
  H   2.34179200024776     -0.64777266964029     -0.44106418068048
  H   2.66490953292642      0.35483189625287      0.81525747797546
