16
Coordinates from ORCA-job run
  C   -0.54874026095221     -0.36064549304772     -0.34891574311883
  C   0.69912238653531      0.50984515105026     -0.53134744375904
  H   -0.81002871915099     -0.81484471557078     -1.30801320907198
  H   0.42899868874875      1.21893437873921     -1.32318768355537
  C   -1.72952308735219      0.40329640215990      0.22624334537272
  H   -2.60045757027337     -0.25053233810681      0.28530573890784
  H   -1.96739707544886      1.24839414350378     -0.42297333415370
  H   -1.48372457983624      0.79249577879838      1.21309492739491
  N   -0.27143516123010     -1.53500768243860      0.54878453756897
  O   0.66015848706613     -1.45033283037033      1.34892446935840
  O   -1.03658633595175     -2.48755886676710      0.44356416263173
  C   1.81063166593901     -0.30767425472978     -1.06501701595064
  N   2.70844444196527     -0.93029487016341     -1.49662975198312
  N   1.02132125473119      1.28694728988415      0.65210921711328
  H   1.41681355406805      0.67757533918442      1.35653487716601
  H   1.70240231114200      1.99940256787444      0.42152290607882
