16
Coordinates from ORCA-job run
  C   -0.55939863235002     -0.38589043487907     -0.30295011368610
  C   0.67532557921755      0.47414613867763     -0.59196493250527
  H   -0.85333441597464     -0.90621368544613     -1.21801513755257
  H   0.37189717682766      1.12512927720185     -1.42088046549273
  C   -1.72223886149123      0.41146848845176      0.26292412672562
  H   -1.44333180642458      0.86491534859423      1.21284091583872
  H   -1.98659583903948      1.21186175535831     -0.43118412371815
  H   -2.58798985008798     -0.23849795601605      0.39569417639259
  N   -0.24121989061738     -1.49471676007566      0.66200657410609
  O   -1.00111717889800     -2.45714044560835      0.64848003595550
  O   0.71650352722674     -1.34952258160879      1.42175355957912
  C   1.77158809886270     -0.37467145135618     -1.10843352389267
  N   2.66006375326978     -1.02366485883584     -1.51989646540703
  N   1.03654037148677      1.33323465801502      0.52129932843922
  H   1.70301182182519      2.03116029805626      0.21617606628329
  H   1.46229614616694      0.77640220947103      1.25114997893436
