16
Coordinates from ORCA-job run
  C   -0.59086780017829     -0.30951619717701     -0.37366543590335
  C   0.84487532833249      0.21738750889331     -0.51477369039819
  H   -1.07449572601310     -0.15290149617445     -1.34039297064157
  H   1.30080222824007     -0.31252414125044     -1.35482957977007
  C   -1.37504821765963      0.31339128359682      0.75674444088982
  H   -2.36505748670823     -0.13658113157859      0.82911159095070
  H   -1.50180236947765      1.37886219330955      0.55543158374518
  H   -0.87120740759103      0.17642603885881      1.71438699819949
  N   -0.49246636584336     -1.80670708634582     -0.22588959411946
  O   0.00416492628814     -2.40280778420689     -1.18025721714289
  O   -0.88477882656847     -2.32386334811285      0.81596098438151
  C   1.62405505141583     -0.09957822686030      0.69986654689103
  N   2.23816743940864     -0.29042937240854      1.68343133937428
  N   0.80198507189304      1.63736660828934     -0.83545706621108
  H   0.65450090889778      2.18531623832965      0.00372947324566
  H   1.68717324556376      1.92615891283742     -1.23339740349107
