14

C	-0.626169	-0.086389	-1.367572
C	0.0	0.0	0.0
F	-1.984698	-0.161309	-1.262177
H	1.089886	0.0	0.0
H	-0.336565	-0.865557	0.572312
N	-0.308281	1.121509	-2.272087
O	0.880054	1.296543	-2.478162
O	-1.258822	1.741098	-2.719652
C	-0.14094	-1.268072	-2.089418
N	0.184165	-2.227964	-2.682196
N	-0.483474	1.193288	0.735911
O	-0.617556	2.238644	0.102541
O	-0.67882	1.057414	1.93991
Br	3.371908	0.0	0.0
