14

C	-0.484968	0.045969	-1.428476
C	0.0	0.0	0.0
F	0.136982	-0.829227	-2.234915
H	1.092515	0.0	0.0
H	-0.36327	0.850829	0.570902
N	-2.001557	-0.254396	-1.503776
O	-2.680957	0.315191	-0.660289
O	-2.385589	-0.985152	-2.398271
C	-0.350084	1.408711	-1.966627
N	-0.265461	2.497781	-2.398365
N	-0.464206	-1.222413	0.698948
O	-0.870953	-2.163697	0.017191
O	-0.377786	-1.208324	1.920431
Br	3.359629	0.0	0.0
