14

C	-0.624356	-0.00598	-1.371458
C	0.0	0.0	0.0
F	-1.984997	-0.051874	-1.27493
H	1.101448	0.0	0.0
H	-0.338382	-0.894417	0.524477
N	-0.271365	1.23591	-2.214426
O	-1.203275	1.900881	-2.633729
O	0.921101	1.391711	-2.406484
C	-0.167419	-1.166206	-2.14399
N	0.117	-2.122195	-2.763913
N	-0.477913	1.154081	0.797503
O	-0.579013	2.236963	0.223877
O	-0.701519	0.951221	1.987314
Br	3.366807	0.0	0.0
