14

C	-0.559222	-0.111708	-1.395876
C	0.0	0.0	0.0
F	-0.133298	0.978716	-2.100955
H	1.088662	0.0	0.0
H	-0.329612	0.948922	0.428476
N	-0.028238	-1.322149	-2.172396
O	0.860354	-1.987551	-1.663896
O	-0.526953	-1.456278	-3.287806
C	-2.027732	-0.150465	-1.458843
N	-3.200519	-0.094008	-1.494132
N	-0.509397	-1.072838	0.88328
O	-0.293112	-0.941323	2.081567
O	-1.107491	-2.016618	0.359807
Br	3.389176	0.0	0.0
