14

C	-0.564936	0.01204	-1.39662
C	0.0	0.0	0.0
F	0.03216	1.024568	-2.082716
H	1.094573	0.0	0.0
H	-0.315747	0.920973	0.498919
N	-0.221285	-1.271603	-2.163704
O	0.451618	-2.113821	-1.594661
O	-0.646079	-1.30368	-3.313048
C	-2.020698	0.211562	-1.48363
N	-3.165114	0.468526	-1.541367
N	-0.539544	-1.119797	0.808153
O	-1.546701	-1.699534	0.393101
O	0.029199	-1.354802	1.863411
Br	3.379731	0.0	0.0
