14

C	-0.474209	-0.425519	-1.367199
C	0.0	0.0	0.0
F	0.166877	-1.5018	-1.849253
H	1.108708	0.0	0.0
H	-0.36293	0.991506	0.259064
N	-1.986064	-0.761607	-1.342609
O	-2.353921	-1.745573	-1.958698
O	-2.679132	0.037642	-0.72619
C	-0.360137	0.694581	-2.314955
N	-0.31138	1.587944	-3.075676
N	-0.463601	-0.926703	1.057394
O	-0.428457	-0.500281	2.206067
O	-0.816288	-2.057463	0.720666
Br	3.358384	0.0	0.0
