11
Coordinates from ORCA-job run
  C   0.69510398097476      0.05950826087354     -0.42935612411733
  C   -0.33881682438050     -0.09705463955266      0.39686025358615
  H   0.65733603262176      0.43143868344264     -1.44527742914229
  H   -0.13772103196030     -0.48401839492924      1.39255369700535
  N   2.05649746505372     -0.27678487406564     -0.01376747757183
  O   2.24470446995015     -0.71320586367285      1.11754426362955
  O   2.93020080476991     -0.08773292124895     -0.86118511317003
  C   -1.74740129400671      0.23102881585138      0.02361691141394
  H   -1.82154832750395      0.60891152653541     -0.99715882487810
  H   -2.15590646531486      0.98422988245287      0.70283733049981
  H   -2.38144881020397     -0.65532047568650      0.11233251274477
