11
Coordinates from ORCA-job run
  C   0.70678164762463      0.05096627478429     -0.41071509625884
  C   -0.35386761178753     -0.11331728722031      0.37912986703646
  H   0.72030825037937      0.53646096567711     -1.37817601354853
  H   -0.20546028898796     -0.62469540168858      1.32677220484204
  N   2.02810999278146     -0.43840403635121     -0.01851319391891
  O   2.93231679520542     -0.22654159198247     -0.82760214875979
  O   2.15633952967736     -1.01227755063079      1.05853963080795
  C   -1.72382424058518      0.36691070047550      0.02748762663024
  H   -2.08847556870083      1.06683531480093      0.78418409324059
  H   -2.42641810468078     -0.47053561196333      0.00305644645525
  H   -1.74481040092595      0.86459822409886     -0.94316341652647
