11
Coordinates from ORCA-job run
  C   0.95300950648016      0.59265994510861      0.02484592245719
  C   -0.35967843961621      0.80800990274359      0.16943025495767
  H   1.70467546391639      1.36963567265496      0.06749823471914
  H   -0.61837422654190      1.84649759298479      0.36503505659632
  N   1.54468251509990     -0.70831281999423     -0.25687866167350
  O   0.84595059306351     -1.71657461654008     -0.15841667780539
  O   2.73381781903555     -0.69599212499073     -0.57697625632404
  C   -1.48596206239944     -0.17800660473923      0.09998964456324
  H   -1.46182247839212     -0.85243237285591      0.95871199663960
  H   -2.44334469982493      0.34265325065088      0.09136598149998
  H   -1.41095399082092     -0.80913782502266     -0.78560549563021
