11
Coordinates from ORCA-job run
  C   0.70626996437705      0.12276186842114     -0.39699578996020
  C   -0.35108449149221     -0.16772451958561      0.36060045871657
  H   0.70720445148427      0.71491170783726     -1.30320663585329
  H   -0.18803424270799     -0.77901631053101      1.24454968860604
  N   2.04197443253301     -0.36473195791355     -0.05406281764945
  O   2.18697064003308     -1.05109201281019      0.95278558606932
  O   2.94044826616877     -0.03567042976021     -0.82983350293399
  C   -1.73582725341951      0.30292133359147      0.05724361254897
  H   -2.40958090152197     -0.54958223288337     -0.06459113285082
  H   -1.77224112274366      0.90560765801473     -0.85143544805251
  H   -2.12509974271085      0.90061489561932      0.88594598135935
