11
Coordinates from ORCA-job run
  C   0.95559872018330      0.36560142594753      0.46154378766996
  C   -0.34544959559204      0.31261489299449      0.77008718989898
  H   1.71960363085992      0.76448393519304      1.11548193966074
  H   -0.58451291299039      0.73472247700179      1.74397467456219
  N   1.52603188129419     -0.14380332579402     -0.77830135282478
  O   2.75601041597750     -0.19184190237352     -0.82010901914806
  O   0.77090076352726     -0.48437447776005     -1.68839781825587
  C   -1.48174248700239     -0.23620789905076     -0.03790774232390
  H   -1.26335716989752     -1.23939936156868     -0.40453967079662
  H   -2.39232964253447     -0.26232585169350      0.56026094332496
  H   -1.65975360382537      0.37953008710369     -0.92209293176761
