11
Coordinates from ORCA-job run
  C   0.75778416368252      0.25390046086199     -0.18055721620946
  C   -0.40112208485410     -0.30059783476203      0.17370413885322
  H   0.89363434277744      1.22142107454539     -0.64669183398223
  H   -0.37166231449481     -1.28466409014570      0.63451105596039
  N   2.02825343577507     -0.43600859713408      0.04173052715893
  O   3.03294670668903      0.17453504456602     -0.32584925420768
  O   2.02136816969164     -1.54639991331237      0.56398679730395
  C   -1.72567555346156      0.35895040042372     -0.02999507950383
  H   -2.36822353947733     -0.26315304240777     -0.65899844771674
  H   -1.62583169974382      1.33871135496582     -0.49941686679945
  H   -2.24047162658408      0.48330514239901      0.92657617914290
