11
Coordinates from ORCA-job run
  C   0.73634515416546      0.10045652913156     -0.34514544846336
  C   -0.38321109758856     -0.16757896362857      0.32642694647002
  H   0.83149155023981      0.75049957552564     -1.20551613810284
  H   -0.31527790431891     -0.84397813105181      1.17464482449440
  N   2.01497607884553     -0.49402279994241      0.04350200466424
  O   2.05163630210946     -1.25510831395952      1.00536471235953
  O   2.98086743718309     -0.17094951287867     -0.64925341254406
  C   -1.71384808081946      0.41185551797385     -0.02666466141101
  H   -1.65418064662923      1.07355577870428     -0.89203060181874
  H   -2.11812421744352      0.97882209876947      0.81631540873954
  H   -2.42967457574369     -0.38455177864382     -0.24764363438771
