11
Coordinates from ORCA-job run
  C   0.70452532910980      0.08245442035014     -0.40993313204650
  C   -0.35141621698999     -0.14005384573432      0.37205588498121
  H   0.71081261994159      0.62898549364502     -1.34432895291604
  H   -0.19463484001367     -0.70946757156318      1.28461853026801
  N   2.03145889275035     -0.41938078503292     -0.05368792530691
  O   2.93120588946542     -0.14663765795165     -0.84946434007421
  O   2.16832753324451     -1.06196560116500      0.98267800256873
  C   -1.72680764768790      0.34978647924435      0.05681754532857
  H   -2.42388853292077     -0.48974002981381     -0.01202538549544
  H   -1.75729855486838      0.90311832495496     -0.88295880623393
  H   -2.09128447203094      1.00190077306642      0.85522857892651
