11
Coordinates from ORCA-job run
  C   0.63155061868161     -0.25778353962372     -0.45332137581254
  C   -0.28987015634218      0.15135162237821      0.41827955580885
  H   0.49695695426048     -0.39043609783685     -1.51921783025049
  H   0.00231055500910      0.23500800686328      1.46193968290076
  N   1.99157707960578     -0.58231515136178     -0.02356675610668
  O   2.28380414185489     -0.47702737170508      1.16350273435776
  O   2.75605947495444     -0.94621876959805     -0.91815759431280
  C   -1.69099284879991      0.49684083035373      0.03282479649839
  H   -1.86213565969154      0.37197966440130     -1.03739888217758
  H   -1.91566826172695      1.53264171853411      0.30144725627246
  H   -2.40159189780572     -0.13404091240515      0.57366841282188
