15

C	0.0	0.0	0.0
C	-0.572467	-0.397775	-1.339367
F	1.358743	0.0	0.0
H	-1.661517	-0.47185	-1.200107
H	-0.15915	-1.36313	-1.643715
C	-0.514548	1.28257	0.585549
H	-0.04667	1.419407	1.561617
H	-0.230294	2.113612	-0.065543
H	-1.600018	1.230133	0.672948
N	-0.311025	-1.152714	0.993609
O	0.43252	-1.219415	1.972026
O	-1.212768	-1.931596	0.718469
C	-0.207814	0.617905	-2.32304
N	0.136395	1.444811	-3.082972
Br	-3.828104	0.0	0.0
