15

C	0.0	0.0	0.0
C	-0.476242	-0.313851	-1.421645
F	1.358462	0.0	0.0
H	-0.185809	0.563359	-2.018857
H	-1.585101	-0.398626	-1.465092
C	-0.412556	1.31041	0.652926
H	0.096264	1.365062	1.619711
H	-0.033415	2.105742	0.001601
H	-1.496741	1.396264	0.770747
N	-0.191386	-1.236524	1.033891
O	-1.156754	-1.959703	0.992199
O	0.762532	-1.363534	1.779812
C	0.182394	-1.487187	-1.971695
N	0.765347	-2.368779	-2.476619
Br	-3.575848	0.0	0.0
