15

C	0.0	0.0	0.0
C	-0.557926	-0.376108	-1.358919
F	1.358486	0.0	0.0
H	-0.48244	0.504326	-2.003665
H	-1.628821	-0.591916	-1.228468
C	-0.523943	1.313003	0.50587
H	-1.616492	1.275884	0.521482
H	-0.131415	1.496761	1.504886
H	-0.185544	2.102093	-0.170021
N	-0.335813	-1.109082	1.009788
O	-0.085251	-0.852802	2.184285
O	-0.743593	-2.181783	0.578464
C	0.15471	-1.477038	-1.997881
N	0.741013	-2.325154	-2.558206
Br	-3.859861	0.0	0.0
