15

C	0.0	0.0	0.0
C	-0.558848	-0.115287	-1.404439
F	1.358568	0.0	0.0
H	-0.446709	0.86071	-1.885149
H	-1.637506	-0.318048	-1.315953
C	-0.530379	1.188144	0.747939
H	-0.204498	2.095591	0.234287
H	-0.131061	1.181166	1.761594
H	-1.623149	1.139452	0.76272
N	-0.328219	-1.280836	0.78951
O	-0.827374	-2.229111	0.196444
O	0.010485	-1.267289	1.971246
C	0.125185	-1.111356	-2.220548
N	0.689071	-1.874147	-2.91223
Br	-3.868112	0.0	0.0
