15

C	0.0	0.0	0.0
C	-0.553285	-0.123146	-1.406168
F	1.358719	0.0	0.0
H	-1.652982	-0.128789	-1.320737
H	-0.228251	-1.065429	-1.848678
C	-0.501413	1.195744	0.756389
H	-0.221753	2.092835	0.19986
H	-1.588831	1.141802	0.842562
H	-0.039885	1.221337	1.741913
N	-0.339533	-1.29181	0.760006
O	-0.447427	-2.323508	0.1035
O	-0.357201	-1.222641	1.98383
C	-0.099683	0.986927	-2.234341
N	0.276802	1.874915	-2.904077
Br	-3.834788	0.0	0.0
