16

C	0.0	0.0	0.0
C	-0.555296	-0.543175	-1.339673
Br	1.92825	0.0	0.0
H	0.125205	-0.16869	-2.112164
H	-0.358179	-0.532511	0.879894
N	-0.40539	1.435142	0.193615
O	-0.916805	1.726842	1.269378
O	-0.190961	2.202527	-0.739798
N	-1.881	-0.115706	-1.682253
H	-1.935509	0.8819	-1.833655
H	-2.626225	-0.370286	-1.030811
C	-0.503504	-2.065747	-1.298676
H	0.499605	-2.438083	-1.073101
H	-0.821171	-2.448079	-2.269587
H	-1.204424	-2.43998	-0.546537
Br	-4.793424	0.0	0.0
