16

C	0.0	0.0	0.0
C	-0.529609	-0.05436	-1.473962
Br	1.928455	0.0	0.0
H	0.294688	0.3135	-2.093065
H	-0.365635	-0.802284	0.637908
N	-0.391525	1.277184	0.691971
O	-0.131848	2.329073	0.11305
O	-0.931692	1.170406	1.78963
N	-1.690174	0.726642	-1.786611
H	-2.5266	0.430013	-1.275793
H	-1.535941	1.70981	-1.612336
C	-0.815766	-1.518647	-1.784558
H	0.010276	-2.173417	-1.492964
H	-1.722071	-1.813583	-1.24973
H	-1.002742	-1.631826	-2.852956
Br	-4.438249	0.0	0.0
