16

C	0.0	0.0	0.0
C	-0.510365	-0.222921	-1.414187
F	1.397194	0.0	0.0
H	-1.602658	-0.283464	-1.268145
H	-0.108249	-1.191796	-1.739262
C	-0.395698	1.341583	0.486385
N	-0.541226	2.430799	0.900504
C	-0.511887	-1.062052	0.949457
H	-0.165382	-2.041802	0.604794
H	-1.609237	-0.964852	0.882291
H	-0.136535	-0.882243	1.960954
C	-0.106206	0.880539	-2.385034
H	0.968204	1.08173	-2.349075
H	-0.363787	0.602891	-3.41186
H	-0.636576	1.806072	-2.150517
F	-2.87736	0.0	0.0
