16

C	0.0	0.0	0.0
C	-0.518223	-0.236825	-1.410002
F	1.397386	0.0	0.0
H	-1.605676	-0.084528	-1.292735
H	-0.07711	0.530762	-2.057615
C	-0.38592	1.36607	0.425629
N	-0.539373	2.470131	0.794029
C	-0.514581	-1.005771	1.006558
H	-0.133656	-2.000174	0.759545
H	-0.173842	-0.737363	2.010353
H	-1.61259	-0.933614	0.908523
C	-0.195117	-1.629526	-1.939049
H	-0.808137	-2.382757	-1.440637
H	0.859876	-1.887471	-1.800853
H	-0.417201	-1.685261	-3.009341
F	-2.881748	0.0	0.0
