16

C	0.0	0.0	0.0
C	-0.51647	-0.16235	-1.421445
F	1.397965	0.0	0.0
H	-1.605094	-0.026198	-1.295702
H	-0.084615	0.645791	-2.024411
C	-0.388039	1.341092	0.49468
N	-0.535491	2.432327	0.901558
C	-0.51458	-1.059062	0.949892
H	-0.17409	-0.845843	1.966871
H	-0.134645	-2.038762	0.648849
H	-1.612338	-0.98094	0.855383
C	-0.175637	-1.518674	-2.028605
H	-0.395113	-1.516371	-3.100865
H	0.882479	-1.770131	-1.903136
H	-0.779083	-2.308268	-1.575918
F	-2.880614	0.0	0.0
