16

C	0.0	0.0	0.0
C	-0.242887	0.07242	-1.598355
Br	1.930735	0.0	0.0
H	0.491367	-0.614707	-2.010949
C	-0.498376	1.045775	0.870201
N	-0.65477	1.92694	1.634282
N	-0.444507	-1.36315	0.502741
O	-0.478738	-2.260279	-0.329333
O	-0.63273	-1.479254	1.702374
N	0.263026	1.439793	-2.041278
O	-0.245471	2.432519	-1.529308
O	1.085359	1.452496	-2.957571
N	-1.502825	-0.107172	-2.185669
H	-1.578722	-1.076663	-2.463155
H	-2.198161	0.054128	-1.395659
F	-2.498899	0.0	0.0
