14

C	0.0	0.0	0.0
C	-0.556869	0.16891	-1.408994
F	1.393078	0.0	0.0
H	-0.134483	1.061571	-1.873385
H	-1.652645	0.203076	-1.328807
C	-0.371746	1.201017	0.784952
N	-0.503764	2.191335	1.401485
N	-0.510258	-1.155396	0.608208
H	-0.38876	-1.995437	0.063594
H	-0.211807	-1.267768	1.564218
N	-0.179622	-0.978226	-2.290757
O	1.018453	-1.243686	-2.403949
O	-1.087435	-1.568585	-2.873724
Br	-3.844279	0.0	0.0
