18

C	0.0	0.0	0.0
C	-0.347861	0.037948	-1.529438
Br	1.969425	0.0	0.0
H	0.30995	-0.698623	-2.005673
C	-0.534226	1.197143	0.758048
H	-0.15522	2.135741	0.350004
H	-1.627996	1.179323	0.688412
H	-0.256252	1.134621	1.813023
C	-0.490618	-1.303174	0.605932
H	-0.139834	-2.165602	0.031537
H	-0.130077	-1.402058	1.632267
H	-1.584683	-1.286701	0.6189
C	0.036027	1.346547	-2.094974
N	0.335166	2.379974	-2.565987
N	-1.698172	-0.274226	-1.93042
H	-1.869287	-1.262192	-1.792534
H	-2.417503	0.194707	-1.375933
Cl	-4.19541	0.0	0.0
