18

C	0.0	0.0	0.0
C	-0.347234	0.040927	-1.528721
Br	1.969423	0.0	0.0
H	0.302242	-0.702957	-2.005338
C	-0.532787	1.198186	0.757708
H	-0.150091	2.135773	0.350505
H	-0.256582	1.134422	1.813022
H	-1.626332	1.184517	0.687024
C	-0.494962	-1.301926	0.603756
H	-0.145456	-2.164771	0.029524
H	-0.136896	-1.402607	1.631087
H	-1.58893	-1.282173	0.61444
C	0.048617	1.34587	-2.094985
N	0.355696	2.376073	-2.567725
N	-1.701231	-0.255966	-1.928447
H	-1.883991	-1.243295	-1.802194
H	-2.416229	0.215407	-1.371229
Cl	-4.203333	0.0	0.0
