18

C	0.0	0.0	0.0
C	-0.347162	-0.001386	-1.530222
Br	1.969327	0.0	0.0
H	0.306935	-0.75414	-1.985988
C	-0.534532	1.217126	0.72546
H	-0.257591	1.18255	1.781981
H	-1.628275	1.197653	0.65533
H	-0.15481	2.144432	0.292973
C	-0.492613	-1.286158	0.6393
H	-1.586779	-1.2675	0.650719
H	-0.133415	-1.358738	1.668388
H	-0.142477	-2.163863	0.088159
C	0.043361	1.289833	-2.130292
N	0.347814	2.308169	-2.629856
N	-1.699092	-0.316254	-1.922898
H	-2.41557	0.174107	-1.384008
H	-1.878795	-1.298218	-1.755983
Cl	-4.196369	0.0	0.0
