18

C	0.0	0.0	0.0
C	-0.520229	-0.194412	-1.442277
Br	1.969905	0.0	0.0
H	-1.613497	-0.270952	-1.315079
C	-0.475688	1.331082	0.555296
H	-1.570746	1.327209	0.526175
H	-0.086026	2.173281	-0.019533
H	-0.144298	1.443259	1.590033
C	-0.461114	-1.150801	0.880598
H	-0.098119	-1.014061	1.90209
H	-0.095735	-2.109763	0.507746
H	-1.555921	-1.144949	0.881614
C	-0.043042	-1.466176	-2.006999
N	0.346078	-2.476764	-2.461161
N	-0.253867	0.874685	-2.393139
H	-0.886279	1.640748	-2.201551
H	0.700978	1.19915	-2.285444
Cl	-3.773316	0.0	0.0
