16
Coordinates from ORCA-job run
  C   -0.87593590520954      0.30683490295196      0.27469722246811
  C   0.58457564591174      0.32568192479315     -0.20932534935393
  Br  -0.99880803180528      1.83901143379226      1.61913647989213
  H   0.78985593185227      1.31811933348999     -0.61478086168143
  N   -1.75988817029649      0.44186458142898     -0.80958507325897
  H   -1.57230531193104      1.26517348430692     -1.36864057225358
  H   -2.73350675484717      0.40535400662351     -0.53800677218877
  C   -1.19923372648749     -0.88913081719610      1.04944251660485
  N   -1.47265720113328     -1.84349390429682      1.67853968880158
  N   0.64933248947310     -0.59613535540657     -1.39922789456291
  O   0.59745706148653     -1.80008591228019     -1.17178719906413
  O   0.73947903096478     -0.06609780301680     -2.50378511074183
  C   1.61636697802328     -0.09968593965347      0.81310884885691
  H   2.60694498995575     -0.08861105568658      0.35404444490303
  H   1.40946468415857     -1.10920963384090      1.16835967027650
  H   1.61885828988429      0.58941075399066      1.65680996130243
