16
Coordinates from ORCA-job run
  C   -1.01206823686926     -0.22763108958183     -0.00315212386061
  C   0.45746046822446     -0.43006122943192     -0.43701308716037
  Br  -2.03613743244141     -1.88910536739167     -0.28574551260073
  H   0.46381970136330     -1.01596224157715     -1.35632652126919
  N   -1.10277774370405      0.10233214840030      1.38703306613805
  H   -0.45314976280568      0.83571912963854      1.64429422771502
  H   -2.04641208118186      0.36356003745702      1.64340590971160
  C   -1.62162558843882      0.75519799732257     -0.91514055447223
  N   -2.09742805787421      1.58866102385138     -1.59587179802292
  N   1.13958812412264     -1.29086216241386      0.58938930458442
  O   1.14167391774763     -2.50114532101421      0.38504440129671
  O   1.64199059185605     -0.71784410586046      1.55306586405177
  C   1.22794474761988      0.86787545440827     -0.61260251777914
  H   2.27163450659414      0.63952866874676     -0.83549059279886
  H   1.21130981628921      1.48486515555050      0.28517472628606
  H   0.81417702949799      1.43487190189577     -1.44706479181958
