16
Coordinates from ORCA-job run
  C   -0.92706139959512     -0.03266302176625      0.12914839390642
  C   0.51461514580925     -0.06597756474407     -0.42079086581132
  Br  -0.97605410161136     -1.04057002690364      1.88066550618125
  H   0.43705725542063      0.24630773207055     -1.46625859038223
  N   -1.34163659035443      1.32022558876862      0.25204888934403
  H   -0.83125622341456      1.79836887829872      0.98428899384182
  H   -2.33425545948607      1.38531336753892      0.44302023883707
  C   -1.87414251583971     -0.73304852457160     -0.73902603233124
  N   -2.69747594068556     -1.21723252766604     -1.42394431615266
  N   0.99464655577351     -1.49197048313029     -0.48757161073343
  O   0.43123429798682     -2.20480756278985     -1.31492522433214
  O   1.89305865213980     -1.83799766073793      0.27259488722021
  C   1.48844807226646      0.80532307464923      0.33993801404699
  H   2.49629183800926      0.64809723931074     -0.04346022149815
  H   1.49324990654486      0.56449266577850      1.40283486187734
  H   1.23328050703621      1.85513882589439      0.18943707598604
