16
Coordinates from ORCA-job run
  C   -1.02311343401344     -0.02450819175908     -0.17384523152470
  C   0.45577042803477     -0.26117273967474     -0.55448707909674
  Br  -2.19382915605857     -1.18251784772196     -1.26028967859343
  H   0.51664814744145     -0.36863948900326     -1.63762163103836
  N   -1.26338657097864     -0.33902011316814      1.20192127171366
  H   -0.56657960884068      0.07226520994531      1.81122493544457
  H   -2.19204249597348     -0.05661175377180      1.48856175509552
  C   -1.37671169205032      1.35003786467712     -0.56644424249885
  N   -1.64092937223842      2.46795922055344     -0.82139576599186
  N   0.87986237636077     -1.59257162580806      0.00132574285614
  O   1.30932191784952     -1.60459789623840      1.15237272661955
  O   0.76612957395627     -2.56468638637628     -0.73920604944163
  C   1.39703640244015      0.82440075668205     -0.05992465488246
  H   1.33292547349661      0.96860731858214      1.01806126016281
  H   1.17471293163895      1.76591811885563     -0.56301170285463
  H   2.42518507893514      0.54313755422600     -0.29424165596957
