13

C	-0.543164	-0.07769	-1.425946
C	0.0	0.0	0.0
Cl	-0.150669	1.416043	-2.32894
H	1.089516	0.0	0.0
H	-0.063526	-0.904138	-1.950136
H	-1.631839	-0.178055	-1.445673
N	-0.512327	-1.277286	0.617532
O	0.206014	-2.270582	0.553166
O	-1.657012	-1.261644	1.110401
N	-0.452632	1.104471	0.791181
H	-1.35354	1.452954	0.537047
H	0.229061	1.829774	0.709205
F	2.614075	0.0	0.0
