13

C	-0.459637	-0.172504	-1.409217
C	0.0	0.0	0.0
Cl	-2.269312	-0.11364	-1.573615
H	1.102826	0.0	0.0
H	-0.070702	0.65783	-1.992595
H	-0.140859	-1.12642	-1.816617
N	-0.407119	-1.201445	0.806077
O	-0.29626	-2.311477	0.283356
O	-0.781592	-1.027287	1.969768
N	-0.410686	1.2339	0.590151
H	0.265895	1.46816	1.304665
H	-1.320991	1.156146	1.026198
F	2.54189	0.0	0.0
