13

C	-0.394841	0.014371	-1.441493
C	0.0	0.0	0.0
Cl	-2.196191	-0.00609	-1.68692
H	1.093874	0.0	0.0
H	-0.032701	0.94044	-1.879785
H	0.002956	-0.850963	-1.961184
N	-0.396848	-1.330052	0.593051
O	-0.890961	-1.344493	1.724721
O	-0.159983	-2.344481	-0.062664
N	-0.500042	1.110818	0.736032
H	-1.466133	0.967693	1.004524
H	0.051955	1.210858	1.576986
F	2.547139	0.0	0.0
