13

C	-0.547086	0.06143	-1.407551
C	0.0	0.0	0.0
Cl	-0.267332	-1.440844	-2.342454
H	1.089403	0.0	0.0
H	-0.020086	0.862771	-1.924545
H	-1.626272	0.23254	-1.409841
N	-0.627889	-1.180632	0.686786
O	0.090014	-2.033268	1.198165
O	-1.864561	-1.209147	0.708241
N	-0.382416	1.170804	0.754291
H	0.425275	1.77524	0.800832
H	-1.186792	1.657822	0.382519
F	2.592159	0.0	0.0
