13

C	-0.545227	-0.05476	-1.411229
C	0.0	0.0	0.0
Cl	-0.158313	1.460877	-2.291716
H	1.098694	0.0	0.0
H	-1.63302	-0.152135	-1.419441
H	-0.074723	-0.864468	-1.959007
N	-0.395448	-1.25217	0.680073
O	-0.505653	-2.280198	0.001129
O	-0.514185	-1.232676	1.906619
N	-0.568182	1.118568	0.754729
H	-0.100211	1.94099	0.381057
H	-0.213259	1.015661	1.699895
F	2.566004	0.0	0.0
