15

C	0.0	0.0	0.0
C	-0.558442	0.324353	-1.385352
Br	1.961069	0.0	0.0
H	-1.611528	0.020644	-1.341139
H	-0.025273	-0.300444	-2.10931
C	-0.358114	1.046853	0.96261
N	-0.591629	1.89459	1.742464
C	-0.489393	-1.362927	0.474347
H	-0.068252	-1.610389	1.449893
H	-0.18835	-2.124749	-0.249223
H	-1.581167	-1.316114	0.530984
N	-0.379071	1.734792	-1.71977
H	-0.534511	1.850019	-2.713172
H	-1.126364	2.244031	-1.258352
Cl	-3.762192	0.0	0.0
