15

C	0.0	0.0	0.0
C	-0.508993	0.469473	-1.35933
Br	1.973314	0.0	0.0
H	-0.185844	-0.280317	-2.097033
H	-1.601339	0.419965	-1.27409
C	-0.3552	0.951856	1.054165
N	-0.597091	1.694633	1.931297
C	-0.505234	-1.39475	0.326134
H	-0.123736	-1.73516	1.289797
H	-0.183032	-2.093486	-0.450545
H	-1.598792	-1.338188	0.351923
N	-0.087673	1.826308	-1.666121
H	-0.828654	2.309209	-2.155397
H	0.739707	1.828264	-2.245815
Cl	-3.750819	0.0	0.0
