15

C	0.0	0.0	0.0
C	-0.539233	-0.382655	-1.379561
Br	1.973914	0.0	0.0
H	-0.194317	0.359171	-2.110961
H	-1.627281	-0.287199	-1.271075
C	-0.341808	1.396324	0.284715
N	-0.552855	2.528207	0.518713
C	-0.505788	-0.928211	1.089017
H	-0.109178	-0.637844	2.063121
H	-0.20443	-1.946108	0.845731
H	-1.59814	-0.850683	1.089113
N	-0.187898	-1.754296	-1.718908
H	0.611955	-1.777804	-2.335967
H	-0.970327	-2.195872	-2.18156
Cl	-3.816208	0.0	0.0
