15

C	0.0	0.0	0.0
C	-0.518154	-0.352456	-1.396282
Br	1.973801	0.0	0.0
H	-0.192502	0.426436	-2.097771
H	-1.609543	-0.297494	-1.296081
C	-0.354971	1.384157	0.320837
N	-0.576014	2.507589	0.585131
C	-0.500403	-0.965508	1.058863
H	-0.119224	-0.693107	2.044382
H	-0.175132	-1.970866	0.792785
H	-1.594187	-0.908325	1.049221
N	-0.112127	-1.698011	-1.777738
H	-0.858177	-2.142037	-2.294138
H	0.715274	-1.67085	-2.357945
Cl	-3.787351	0.0	0.0
