15

C	0.0	0.0	0.0
C	-0.554065	0.313567	-1.388725
Br	1.961009	0.0	0.0
H	-0.051298	-0.347897	-2.10066
H	-1.618714	0.052293	-1.334057
C	-0.360626	1.061746	0.94406
N	-0.598931	1.922667	1.707957
C	-0.499855	-1.352224	0.490843
H	-0.085513	-1.585833	1.473169
H	-1.592273	-1.299416	0.544344
H	-0.197117	-2.127263	-0.217582
N	-0.318144	1.705245	-1.760445
H	-1.029707	2.263302	-1.30044
H	-0.48091	1.804144	-2.754479
Cl	-3.793689	0.0	0.0
