14

C	-0.646872	-0.047123	-1.492312
C	0.04692	-0.175036	-0.111467
Cl	0.277945	1.141828	-2.485974
H	1.132378	-0.255966	-0.237895
H	-0.345367	-1.111136	0.316336
C	-0.624061	-1.326125	-2.208014
N	-0.618005	-2.384994	-2.717254
N	-2.00898	0.429454	-1.382707
H	-1.922292	1.101224	-0.609183
H	-2.577664	-0.34391	-1.046817
N	-0.27119	0.998144	0.67339
H	0.722515	1.443436	0.807983
H	-0.584382	0.694607	1.587508
F	2.152706	1.554971	0.846537
