14

C	-0.639735	-0.043294	-1.505727
C	0.014903	-0.158687	-0.107563
Cl	0.445649	1.018084	-2.56953
H	1.089244	-0.306915	-0.220818
H	-0.438638	-1.053284	0.341537
C	-0.689374	-1.335222	-2.19698
N	-0.736897	-2.38959	-2.713394
N	-1.936825	0.496014	-1.34653
H	-2.307833	0.848469	-2.218905
H	-1.801628	1.245174	-0.658883
N	-0.234592	1.058663	0.632403
H	-0.64011	0.810236	1.526455
H	0.786876	1.414756	0.823632
F	2.21073	1.411564	0.952715
