15

C	-0.432302	-0.055515	-1.458495
C	0.0	0.0	0.0
F	0.152485	-1.109078	-2.065011
H	1.09998	0.0	0.0
C	-1.890571	-0.153468	-1.640937
N	-3.05689	-0.250052	-1.742286
N	0.024904	1.204959	-2.199006
O	0.967467	1.097685	-2.964814
O	-0.609966	2.221529	-1.936747
N	-0.397289	-1.264226	0.615255
H	0.426231	-1.634385	1.073277
H	-1.136414	-1.143146	1.29375
C	-0.52621	1.158413	0.698171
N	-0.977112	2.038668	1.336774
F	2.490559	0.0	0.0
