16

C	0.0	0.0	0.0
C	-0.356556	-0.316684	-1.445619
Cl	1.837898	0.0	0.0
H	0.208426	-1.208098	-1.717589
H	0.061681	0.515872	-2.019043
N	-0.55563	1.175063	0.500484
H	-1.559976	1.167118	0.317273
H	-0.411186	1.237656	1.501409
N	-0.290052	-1.231433	0.920251
O	-0.26937	-2.34581	0.414053
O	-0.475734	-0.982243	2.106584
C	-1.825867	-0.509982	-1.77655
H	-2.439161	0.368485	-1.592253
H	-2.283811	-1.313416	-1.203969
H	-1.903996	-0.757677	-2.839923
Cl	-4.529806	0.0	0.0
