16

C	0.0	0.0	0.0
C	-0.464504	0.164776	-1.43091
Cl	1.840129	0.0	0.0
H	0.071364	-0.568757	-2.034485
H	-1.526453	-0.094655	-1.442095
N	-0.519741	0.923413	0.894899
H	-1.539999	0.934838	0.753515
H	-0.327087	0.627821	1.846143
N	-0.271164	-1.480046	0.464002
O	-0.394714	-1.648682	1.671849
O	-0.294932	-2.358562	-0.387762
C	-0.255958	1.579687	-1.960629
H	-0.863941	2.291258	-1.402522
H	0.78845	1.898538	-1.899307
H	-0.559034	1.626462	-3.011181
Cl	-3.592809	0.0	0.0
