16

C	0.0	0.0	0.0
C	-0.492613	0.020509	-1.428301
Cl	1.841203	0.0	0.0
H	0.021725	-0.765754	-1.979278
H	-1.557228	-0.226598	-1.379331
N	-0.526392	1.012724	0.793061
H	-1.548064	0.97338	0.670618
H	-0.307183	0.840912	1.767422
N	-0.254888	-1.427265	0.610928
O	-0.257501	-2.387452	-0.147092
O	-0.382714	-1.474382	1.829168
C	-0.302945	1.382717	-2.082513
H	-0.901834	2.137117	-1.573567
H	-0.628559	1.335514	-3.125172
H	0.742918	1.697862	-2.061625
Cl	-3.588839	0.0	0.0
