16

C	0.0	0.0	0.0
C	-0.552666	-0.535884	-1.312008
Cl	1.772963	0.0	0.0
H	-1.622068	-0.689446	-1.134611
H	-0.468303	0.315547	-1.994317
N	-0.523673	1.27303	0.273234
H	-1.543051	1.197281	0.165969
H	-0.32165	1.523113	1.234869
N	-0.303821	-0.99107	1.186112
O	-0.3492	-0.485839	2.302064
O	-0.414534	-2.185417	0.945588
C	0.091802	-1.760328	-1.94839
H	-0.029043	-2.645518	-1.32829
H	1.155985	-1.607882	-2.141066
H	-0.39794	-1.944487	-2.908609
Cl	-3.658032	0.0	0.0
