15

C	-0.566704	-0.009507	-1.410103
C	0.0	0.0	0.0
F	-0.219318	-1.152006	-2.058978
H	1.094225	0.0	0.0
C	-2.030172	0.136731	-1.444886
N	-3.20306	0.202961	-1.400607
N	0.038044	1.158573	-2.196354
O	-0.60819	2.199982	-2.222956
O	1.12838	0.945667	-2.703942
C	-0.461727	-1.191812	0.694797
N	-0.839125	-2.139122	1.283041
N	-0.320657	1.252739	0.65689
H	-1.045005	1.16053	1.353386
H	0.539822	1.578468	1.090897
H	2.551649	0.0	0.0
