15

C	-0.562071	0.042428	-1.410499
C	0.0	0.0	0.0
F	-0.220038	-1.080992	-2.097403
H	1.094193	0.0	0.0
C	-2.02545	0.198418	-1.448398
N	-3.198157	0.277376	-1.414832
N	0.052601	1.232005	-2.153275
O	-0.587927	2.277054	-2.145721
O	1.145838	1.031187	-2.659417
C	-0.46389	-1.216358	0.649614
N	-0.84112	-2.18677	1.199038
N	-0.314331	1.229214	0.699685
H	0.538637	1.518582	1.173255
H	-1.067548	1.12977	1.365941
H	2.551743	0.0	0.0
