15

C	-0.552128	0.081954	-1.414799
C	0.0	0.0	0.0
F	-0.500202	-1.126202	-2.03458
H	1.094228	0.0	0.0
C	-1.93206	0.586706	-1.46275
N	-3.064116	0.903148	-1.471803
N	0.324555	1.039253	-2.238626
O	1.213397	0.524921	-2.898496
O	0.068503	2.232132	-2.126924
C	-0.482059	-1.214028	0.636073
N	-0.856655	-2.172447	1.208268
N	-0.303944	1.221758	0.721342
H	0.556405	1.514691	1.179361
H	-1.037905	1.100746	1.4054
H	2.538778	0.0	0.0
