15

C	-0.44981	-0.048189	-1.444672
C	0.0	0.0	0.0
F	0.186876	0.903582	-2.159145
H	1.101942	0.0	0.0
C	-0.256766	-1.359073	-2.078647
N	-0.086906	-2.399736	-2.596744
N	-1.952938	0.272403	-1.541022
O	-2.698473	-0.579099	-1.065141
O	-2.278764	1.343582	-2.029259
C	-0.464194	-1.137644	0.768377
N	-0.765793	-2.046449	1.453396
N	-0.346617	1.296103	0.564119
H	0.523891	1.692891	0.914237
H	-0.999174	1.207441	1.330978
H	2.533834	0.0	0.0
