15

C	-0.463759	0.001131	-1.440481
C	0.0	0.0	0.0
F	0.263207	0.870562	-2.17131
H	1.09571	0.0	0.0
C	-0.453108	-1.319937	-2.083488
N	-0.453806	-2.375776	-2.598991
N	-1.926699	0.499938	-1.516503
O	-2.161439	1.462025	-2.229192
O	-2.726835	-0.125849	-0.830276
C	-0.466344	-1.152581	0.751546
N	-0.802692	-2.051381	1.433574
N	-0.337447	1.287913	0.590427
H	-1.041693	1.19405	1.306249
H	0.519083	1.654226	0.999263
H	2.547944	0.0	0.0
