15

C	-0.560912	0.047377	-1.413145
C	0.0	0.0	0.0
F	-0.404743	-1.148481	-2.038787
H	1.09417	0.0	0.0
C	-1.980829	0.428217	-1.451063
N	-3.13261	0.66394	-1.429613
N	0.22416	1.081069	-2.232798
O	1.181266	0.65438	-2.858645
O	-0.170004	2.240383	-2.163738
C	-0.477493	-1.205056	0.656476
N	-0.862496	-2.158699	1.229484
N	-0.314208	1.232432	0.701076
H	-1.021134	1.109777	1.411418
H	0.55299	1.550607	1.126428
H	2.54649	0.0	0.0
