16
Coordinates from ORCA-job run
  C   0.95137058532637      0.24852747560863     -0.06185981682130
  C   -0.56775219857294      0.40260692111564     -0.05750096268486
  Cl  1.63796174047165      1.51566260894846     -1.10230543049479
  H   -0.80338839881913      1.43143402774224      0.21635082474628
  C   1.40808998381589     -1.05303960788411     -0.52118910982485
  N   1.74149414149569     -2.08360199546114     -0.97799188598197
  N   1.51067589203453      0.52173505051872      1.34859515867078
  O   0.90660604907191      1.36514225524787      1.99356969887174
  O   2.52287589088338     -0.08119483713517      1.66208705169271
  N   -1.15231871633222     -0.44186673906007      1.04350705869196
  O   -0.43817155182406     -1.30980290946963      1.54108684212281
  O   -2.31861521555665     -0.20510157097047      1.32919434427189
  C   -1.22413928634593     -0.00587075976614     -1.36477346019734
  H   -0.83185934631219      0.58769843095729     -2.19027306682800
  H   -1.04738313442568     -1.06334943020711     -1.57158389675337
  H   -2.29744643491062      0.16802107981499     -1.28891334948169
