16
Coordinates from ORCA-job run
  C   0.85070493667056      0.39503481151991      0.23194140471300
  C   -0.53196831451697      0.00852616367571     -0.32997665513733
  Cl  0.78073423821612      0.86252845474195      1.91750631096312
  H   -0.40518515002874     -0.13010421081872     -1.40566744512990
  C   1.52262670849812      1.42572468443175     -0.54822838717402
  N   2.10563201446417      2.25006918418552     -1.15099853706485
  N   1.69882129452016     -0.90294087407775      0.06187711723421
  O   2.02831988654821     -1.51902197300008      1.05724732536677
  O   1.89840945599643     -1.19570481931233     -1.10915645801875
  N   -1.42204483525534      1.21788066868348     -0.19641634104812
  O   -2.25546375363490      1.21902291402680      0.70332075914467
  O   -1.22146802741979      2.11818528606985     -1.00846543979983
  C   -1.14141398993303     -1.20691774408588      0.33059588766042
  H   -1.19490561615105     -1.09392604688281      1.41164014042626
  H   -0.55891141638832     -2.09624593581331      0.08440323666600
  H   -2.15288743158564     -1.35211056334410     -0.04962291880164
