16
Coordinates from ORCA-job run
  C   0.93686748465219      0.30366362034365     -0.03222297037121
  C   -0.58836135776100      0.37260785140933     -0.05296360903088
  Cl  1.57016731904325      1.64896031085311     -1.00572526747419
  H   -0.88670065863161      1.37458343303848      0.25701644900717
  C   1.47419181873184     -0.95068571166230     -0.53388423925363
  N   1.87311159054940     -1.94162015998636     -1.02454043827034
  N   1.45402862011381      0.54857633715920      1.39965409291690
  O   0.79099855424613      1.32832609579708      2.06634087483713
  O   2.49381258609810     -0.00819574760307      1.70815245087730
  N   -1.14443804106140     -0.54770698732782      1.00103392166234
  O   -2.32726241143812     -0.38804931051404      1.27191381284766
  O   -0.39166190301749     -1.39428830265583      1.47801031812984
  C   -1.19645997590703     -0.01713942395071     -1.38897874636262
  H   -0.95675669001266     -1.05371941143321     -1.63468150807336
  H   -2.27906095480044      0.09363344786814     -1.32888034809240
  H   -0.82247598080495      0.63105395866435     -2.18124479334970
