16
Coordinates from ORCA-job run
  C   0.82706405740764      0.43302172707959      0.25435235907428
  C   -0.49586809648302     -0.04302367628105     -0.37875419047596
  Cl  0.59303534164906      1.14552585433268      1.83643673159900
  H   -0.26532629861859     -0.33331712239902     -1.40582005712210
  C   1.57889364564888      1.34152026233785     -0.60115844118918
  N   2.21786810425972      2.07157847856907     -1.26541771904509
  N   1.67793151988380     -0.86964109174822      0.36469257919497
  O   1.89995546046722     -1.32971957616880      1.46826248089680
  O   1.99268464263187     -1.33042425879324     -0.72411108482798
  N   -1.38874367797405      1.16493661265896     -0.50750191863189
  O   -2.30490275498548      1.28814370735954      0.29845269942207
  O   -1.10766777416568      1.93989908384874     -1.41893783034242
  C   -1.17333861100547     -1.15667247428210      0.38647812731958
  H   -2.14493524778075     -1.36153873048726     -0.06374719350403
  H   -1.32891148273680     -0.89262919528095      1.43074840779874
  H   -0.57573882819835     -2.06765960074580      0.32502504983322
