16
Coordinates from ORCA-job run
  C   0.79885403419615      0.35864693966044      0.40966609555289
  C   -0.49584322290995      0.06836322825578     -0.37590115218961
  Cl  0.53312767323981      0.41697327932144      2.13937381556232
  H   -0.25443359750213      0.19275111335861     -1.43349383394821
  C   1.48280518296829      1.56561797074013     -0.03542435081120
  N   2.06761019324944      2.52823056820101     -0.37302293459387
  N   1.73401005339518     -0.83459673081559      0.04285928418787
  O   1.99757545920343     -1.65477276714783      0.90122678166284
  O   2.06754753295687     -0.83834265188040     -1.13429864449347
  N   -1.46538515202884      1.17976284334340     -0.06419618530766
  O   -1.24024585693372      2.25347777433293     -0.61775526911474
  O   -2.38280302495644      0.93809595419640      0.71307075016288
  C   -1.09358787604282     -1.28950832799401     -0.08652922467963
  H   -0.43954092190008     -2.07364335648338     -0.47151963035674
  H   -1.25588073971411     -1.44012310664182      0.97905008668534
  H   -2.05480973722108     -1.37393273044711     -0.59410558831899
