16
Coordinates from ORCA-job run
  C   0.92281719906160      0.52883370337253      0.10864677328412
  C   -0.56572883473336      0.42655527692051     -0.27625851220970
  Cl  1.25059453825964      2.09543010719843      0.83369962938256
  H   -0.76496121490671      1.28129400256458     -0.92548681130502
  C   1.73343251596506      0.35263035388734     -1.08921303379106
  N   2.35442162420063      0.23870401393249     -2.08114563513718
  N   1.33455933746183     -0.60865303518042      1.09184632233694
  O   1.56493879026824     -0.32131403611760      2.24858035796209
  O   1.37557696264772     -1.71027780021710      0.56158057347864
  N   -1.40187887352376      0.66652057688348      0.94693017658876
  O   -2.16465690772433      1.62686213887101      0.92190204259788
  O   -1.27202755386991     -0.14504493995027      1.85980890898047
  C   -1.00315107556830     -0.87347235464992     -0.92479311055526
  H   -0.90987095074678     -1.71004744866507     -0.23604817109578
  H   -0.40601331023802     -1.07672500657831     -1.81451187631839
  H   -2.04805224655355     -0.77029555227167     -1.22553763419909
