16
Coordinates from ORCA-job run
  C   0.83183371863915      0.32203165826748      0.37405065702387
  C   -0.51818154716305      0.09747665578249     -0.33602539877522
  Cl  0.68527321659198      0.28183791972592      2.11818445896330
  H   -0.34720670755489      0.28022676535150     -1.39889724653403
  C   1.50610264838187      1.54312697833043     -0.04654188019300
  N   2.08488575258876      2.51584101779037     -0.36502762298892
  N   1.71749634469350     -0.86071293379102     -0.12515451473009
  O   2.02282222012929     -1.73443410684129      0.66383610247867
  O   1.97044803549609     -0.79957876083064     -1.32069556907902
  N   -1.44346889492263      1.20344821222086      0.10443233521416
  O   -1.23749904740573      2.30362882661370     -0.40297419928076
  O   -2.30979447116984      0.93078229846000      0.92867829434980
  C   -1.12119765188532     -1.26571850884589     -0.08463859365624
  H   -0.50920056851709     -2.03611994353172     -0.55667790424002
  H   -2.11526733801894     -1.30569330760741     -0.53075861486931
  H   -1.21504570988314     -1.47514277109477      0.97920969631678
