16

C	0.0	0.0	0.0
C	-0.559842	-0.10029	-1.423997
Br	1.957276	0.0	0.0
H	-1.661837	-0.191577	-1.178971
N	-0.579887	1.152483	0.604133
H	-0.374574	1.145312	1.599344
H	-1.620727	0.937692	0.498471
C	-0.308318	-1.258912	0.728057
N	-0.48647	-2.23649	1.358415
C	-0.109821	-1.294807	-2.118532
N	0.249426	-2.233107	-2.728392
C	-0.325785	1.153542	-2.258299
H	-0.718304	2.015818	-1.721434
H	-0.848929	1.05507	-3.212457
H	0.73799	1.308425	-2.45459
H	-2.903603	0.0	0.0
