16

C	0.0	0.0	0.0
C	-0.209168	-0.046568	-1.563822
Br	2.023019	0.0	0.0
H	0.560265	-0.739369	-1.925553
N	-0.233948	1.290944	0.639435
H	0.310328	1.320199	1.496546
H	-1.229168	1.301114	0.844263
C	-0.545642	-1.193928	0.628148
N	-0.586953	-2.252355	1.165441
C	0.128152	1.260853	-2.135395
N	0.345213	2.266656	-2.702613
C	-1.51502	-0.543099	-2.199705
H	-2.325872	0.168415	-2.079785
H	-1.818802	-1.481905	-1.738217
H	-1.312112	-0.710789	-3.268161
H	-2.098428	0.0	0.0
