16

C	0.0	0.0	0.0
C	-0.556679	-0.054619	-1.428668
Br	1.957314	0.0	0.0
H	-1.659775	-0.160185	-1.191703
N	-0.579401	1.132933	0.64259
H	-0.370721	1.09275	1.636844
H	-1.62067	0.923825	0.531274
C	-0.305414	-1.282083	0.685305
N	-0.493442	-2.274309	1.289549
C	-0.097008	-1.22617	-2.159167
N	0.229747	-2.159804	-2.79615
C	-0.321732	1.228742	-2.219923
H	-0.720275	2.072494	-1.656307
H	0.744325	1.392454	-2.405494
H	-0.841313	1.161487	-3.17969
H	-2.910252	0.0	0.0
