17

C	-0.302293	-0.098081	-1.506596
C	0.0	0.0	0.0
Br	-0.136538	1.725281	-2.331287
H	1.104258	0.0	0.0
N	0.639857	-0.946043	-2.186452
H	1.55524	-0.798092	-1.74071
H	0.369458	-1.916302	-2.07591
C	-1.680423	-0.510729	-1.786905
N	-2.769062	-0.912618	-1.97647
C	-0.452776	-1.273641	0.698638
H	-0.00214	-1.29859	1.696174
H	-1.542955	-1.309628	0.7949
H	-0.105372	-2.166584	0.175955
N	-0.64004	1.144243	0.642114
H	-0.556801	1.00674	1.644571
H	-0.084564	1.966334	0.428456
H	2.929207	0.0	0.0
