17

C	-0.577499	0.026506	-1.408725
C	0.0	0.0	0.0
Br	0.323959	-1.446106	-2.518213
H	1.097314	0.0	0.0
N	-1.994311	-0.140169	-1.426783
H	-2.347819	-0.102188	-2.376283
H	-2.230428	-1.042028	-1.031085
C	-0.239234	1.261925	-2.119692
N	-0.024845	2.220149	-2.764979
C	-0.446842	-1.217013	0.797791
H	0.166633	-1.256965	1.701914
H	-0.280469	-2.148914	0.250755
H	-1.500992	-1.156905	1.100017
N	-0.36108	1.273593	0.616013
H	-1.166045	1.186848	1.222948
H	0.442403	1.591636	1.149258
H	2.812822	0.0	0.0
