17

C	-0.584792	0.03082	-1.419573
C	0.0	0.0	0.0
Br	0.025833	-1.529886	-2.452588
H	1.099423	0.0	0.0
N	-2.043186	0.056177	-1.488963
H	-2.303777	0.769397	-0.807965
H	-2.378504	-0.835718	-1.139244
C	-0.092123	1.217412	-2.133105
N	0.269616	2.188291	-2.687255
C	-0.487006	-1.17893	0.818628
H	0.094654	-1.203811	1.744505
H	-0.314312	-2.125056	0.304484
H	-1.550323	-1.096864	1.074796
N	-0.470774	1.267148	0.609036
H	0.30628	1.920822	0.534916
H	-0.603876	1.111183	1.602362
H	2.873638	0.0	0.0
