17

C	-0.58252	0.041178	-1.406592
C	0.0	0.0	0.0
Br	0.313853	-1.420384	-2.534548
H	1.093652	0.0	0.0
N	-1.999422	-0.125106	-1.419671
H	-2.357819	-0.08033	-2.366594
H	-2.234094	-1.028954	-1.028468
C	-0.245971	1.284416	-2.105607
N	-0.009493	2.245526	-2.738541
C	-0.445713	-1.225161	0.786079
H	-0.283906	-2.151275	0.228484
H	-1.498435	-1.166036	1.09321
H	0.171503	-1.276472	1.686831
N	-0.359996	1.266793	0.630997
H	-1.154912	1.169674	1.249595
H	0.449877	1.583503	1.155562
H	2.813244	0.0	0.0
