12

C	0.0	0.0	0.0
C	-0.565439	-0.053306	-1.417765
Cl	1.785971	0.0	0.0
H	-1.52384	0.46839	-1.39141
H	-0.347085	-0.864377	0.564455
H	0.123078	0.467545	-2.089426
C	-0.380268	1.229841	0.706948
N	-0.570704	2.228921	1.292384
N	-0.70617	-1.455045	-1.808136
H	-0.744867	-1.513083	-2.818189
H	-1.621989	-1.740358	-1.466324
Cl	-3.497144	0.0	0.0
