12

C	0.0	0.0	0.0
C	-0.490278	-0.2954	-1.447205
Cl	1.789981	0.0	0.0
H	0.168796	0.274788	-2.109667
H	-0.346884	-0.750404	0.711059
H	-0.290426	-1.355985	-1.631742
C	-0.418674	1.331398	0.430777
N	-0.695516	2.433064	0.726679
N	-1.851685	0.011399	-1.762834
H	-2.552911	-0.455478	-1.188017
H	-2.047405	0.998411	-1.658195
Cl	-4.545018	0.0	0.0
