12

C	0.0	0.0	0.0
C	-0.475392	0.101194	-1.4758
Cl	1.786314	0.0	0.0
H	0.113629	0.906736	-1.926759
H	-0.344921	-0.919202	0.473866
H	-0.159952	-0.828914	-1.961878
C	-0.436488	1.156526	0.777144
N	-0.757182	2.113985	1.376173
N	-1.864483	0.343654	-1.717648
H	-2.166662	1.23995	-1.357554
H	-2.504079	-0.322515	-1.292211
Cl	-4.576132	0.0	0.0
