16

C	0.0	0.0	0.0
C	-0.44488	-0.000527	-1.473759
F	1.37982	0.0	0.0
H	-0.392111	1.049294	-1.790876
H	0.342727	-0.539263	-2.009834
C	-0.584231	1.075884	0.856448
H	-1.676441	0.955823	0.837637
H	-0.312788	2.042563	0.425468
H	-0.213688	1.009738	1.879266
N	-0.292451	-1.378341	0.604676
O	-0.676076	-1.447545	1.768035
O	-0.022295	-2.345175	-0.107306
N	-1.732803	-0.547457	-1.820476
H	-1.699522	-1.551599	-1.689543
H	-2.493281	-0.215134	-1.183529
H	-3.647073	0.0	0.0
