16

C	0.0	0.0	0.0
C	-0.503627	0.033684	-1.446043
F	1.368517	0.0	0.0
H	0.370803	0.335932	-2.034745
H	-0.755226	-0.991658	-1.739262
C	-0.518033	1.096772	0.879871
H	-1.598206	0.962452	0.993347
H	-0.015589	1.061509	1.846416
H	-0.337413	2.046439	0.377241
N	-0.290436	-1.367198	0.658171
O	-0.202571	-2.367201	-0.050278
O	-0.453927	-1.38739	1.874158
N	-1.575859	1.006989	-1.623457
H	-2.390217	0.667339	-1.050102
H	-1.880752	0.941002	-2.590537
H	-3.468017	0.0	0.0
