13
Coordinates from ORCA-job run
  C   -0.52886589339224     -0.01724944752974     -0.52297834696250
  C   0.91461417924167     -0.44576524049806     -0.26293422386535
  Cl  -0.96811640866230     -0.87986044937878     -2.10120218338555
  H   0.97250643726986     -1.53112511670225     -0.19908052841099
  H   1.57871004275461     -0.05974418270843     -1.03394849503053
  C   -0.64706578193614      1.41422470323397     -0.81233799352495
  N   -0.77477416743039      2.55622898020929     -1.05485059697469
  N   -1.34425735482082     -0.34958070584979      0.57571739400219
  H   -2.30649143523621     -0.06244291408883      0.45674191985155
  H   -1.28785517751404     -1.32955367578686      0.82261962709320
  N   1.36079031673896      0.09809224509688      1.05221016618129
  O   1.63738024986069      1.29348066158543      1.08459391158400
  O   1.39342499312638     -0.68770485758284      1.99544934944233
