13
Coordinates from ORCA-job run
  C   -0.48120144342350      0.28489505073840     -0.44131064626822
  C   0.77174171744412      0.44118770475058      0.42839985524588
  Cl  -0.08228433314010      0.55578969400863     -2.16668116651721
  H   1.33932177030911      1.31821582492874      0.12418749533589
  H   0.48692618348308      0.49827943616330      1.47934019486443
  C   -1.41032645284015      1.36360477017715     -0.04749992632481
  N   -2.17426995515389      2.17802441498169      0.32084546041647
  N   -1.01062413140258     -1.03982665154016     -0.31038620460362
  H   -1.88544174871922     -1.13609016655996     -0.81019192783565
  H   -1.13046173170548     -1.30060476418529      0.66166145168966
  N   1.64753678362029     -0.75508861837121      0.28859777736414
  O   1.47271767233578     -1.65531655189058      1.10720223517557
  O   2.45636566919251     -0.75307014320131     -0.63316459854254
