13
Coordinates from ORCA-job run
  C   -0.57431590572622      0.03600510440012     -0.25374550826405
  C   0.71285963202853     -0.48045047563365      0.38397797526680
  Cl  -0.21206066054767      0.38195053499842     -2.01686720007979
  H   0.56828252811157     -0.55825909369588      1.46254855753032
  H   0.97458204561822     -1.44528470868354     -0.04751709057582
  C   -1.05045478873162      1.29016177410796      0.33611455467285
  N   -1.52120109231237      2.25561406070479      0.81096739830521
  N   -1.57042345893211     -0.96207905784235     -0.06183839339998
  H   -2.48288225316039     -0.64084814912552     -0.36091368362694
  H   -1.33510397679258     -1.81222294509080     -0.56033298894436
  N   1.87481363664233      0.42195735946272      0.15253018262573
  O   2.87347523297320     -0.07532948699727     -0.35914642716046
  O   1.74342906082911      1.58678508339500      0.51522262365050
