13
Coordinates from ORCA-job run
  C   -0.52629617395003     -0.08696047728430     -0.51878102671136
  C   0.93978229222364     -0.40806700025452     -0.23320611473933
  Cl  -0.91032857247062     -1.08697700383077     -2.03007219628477
  H   1.06248274890011     -1.48051178118276     -0.09104651606258
  H   1.58060835625148     -0.04005399297747     -1.03218963100278
  C   -0.73060083117348      1.30965864622268     -0.91195792077288
  N   -0.92862287886125      2.42150333754478     -1.23431935213930
  N   -1.32143545174487     -0.38688439078380      0.60290546348886
  H   -2.29966885112428     -0.16999697491215      0.46737170178552
  H   -1.20291360005920     -1.33848054933234      0.92630135727560
  N   1.35150293616811      0.25633858686812      1.03728750844033
  O   1.55647255239800      1.46511354378014      0.98104758370923
  O   1.42901747344240     -0.45468194385762      2.03565914301347
