13
Coordinates from ORCA-job run
  C   -0.55666490863810      0.08981857636706     -0.48566556171928
  C   0.95462072826951     -0.12386856400740     -0.41989152265430
  Cl  -0.95910832495578     -0.14493305892086     -2.27741089770765
  H   1.48010354673619      0.65142562699387     -0.97404261956878
  H   1.20435230994034     -1.11487630711752     -0.79504638060632
  C   -0.94499957164936      1.46774553655656     -0.17310144768989
  N   -1.29026930360103      2.56374208243633      0.06906717395573
  N   -1.21555275418714     -0.79824251130161      0.38647270053654
  H   -0.96929485838912     -1.76567250375771      0.21883956068381
  H   -2.21996440172252     -0.67861286647203      0.38875966442581
  N   1.40083690956728     -0.06422235278067      1.00174721352230
  O   1.64057062524669     -1.13456744900585      1.55412097790309
  O   1.47437000338306      1.05226379100985      1.50615113891894
