14
Coordinates from ORCA-job run
  C   0.99684985487759      0.04872412220061     -0.11228617194601
  C   -0.49181336808674     -0.05713124833354     -0.44051790148338
  Cl  1.90442495628618     -0.22615313763613     -1.67105776397872
  H   -0.71635189436816     -1.02610788579291     -0.88877061329842
  H   1.22834406320028      1.07580851400992      0.17387275224041
  N   1.35069838334248     -0.82685497472642      0.93988910525670
  H   2.30564737533140     -0.68749409666787      1.23904882090273
  H   1.21518399995674     -1.79881807705023      0.69141463022961
  N   -0.92959486944461      1.00178473976040     -1.27210056826392
  H   -0.88062686559923      1.88556751179981     -0.78093178181923
  H   -1.87254493535974      0.85278229604013     -1.60380954047522
  N   -1.20145124129775     -0.08114566666798      0.91347700561865
  O   -1.63006412822610     -1.15796848983997      1.31313102302549
  O   -1.27970133061234      0.99700639290417      1.49664100399130
