14
Coordinates from ORCA-job run
  C   0.92415685361077      0.09770450670026     -0.13519538168405
  C   -0.56934260848142     -0.08977866136323     -0.39848793992449
  Cl  1.72979051874475      0.13979715466209     -1.72728496731869
  H   -0.71940931267679     -1.00583854752333     -0.96815821620774
  H   1.09232850972974      1.08441006889013      0.31099139357740
  N   1.43513007146820     -1.01983204186042      0.62606946114111
  H   1.22135070393283     -0.87232321385624      1.60663067763406
  H   2.44158009930911     -1.07436780041568      0.53334773935265
  N   -1.26959299048722      1.00367456508298     -0.99653529646522
  H   -0.92811348422107      1.89450572275058     -0.65926689391752
  H   -1.20149363356317      0.97140672958298     -2.00291934805869
  N   -1.21780268011648     -0.33676364461046      0.94067952953304
  O   -0.93949332400896      0.47911859796267      1.82282585602389
  O   -1.99708872324028     -1.27371343600234      1.04630338631424
