14
Coordinates from ORCA-job run
  C   0.99225175630133      0.04598049644263     -0.15411055257467
  C   -0.50920316425294     -0.05355391843707     -0.42124184170772
  Cl  1.83204101500494     -0.23703526056611     -1.74997341857781
  H   -0.75501981800352     -1.01884286049435     -0.86610297155084
  H   1.24034809690350      1.07313119152181      0.11744132711673
  N   1.38673526323573     -0.82756802618080      0.88455203994069
  H   1.23088839094265     -1.79968398491016      0.64915458209258
  H   2.35507439546009     -0.69474069417984      1.14023603143449
  N   -0.97605437444968      1.01234573729157     -1.22773807291686
  H   -1.93012309440769      0.86566092224374     -1.52716918290859
  H   -0.91038049868321      1.89152169131946     -0.73018038113625
  N   -1.16362929358147     -0.08399401736355      0.96035185351454
  O   -1.56904991908434     -1.16433775471436      1.37452229613290
  O   -1.22287875538540      0.99211647802702      1.54925829114079
