14
Coordinates from ORCA-job run
  C   0.77227403864829     -0.44510982652770      0.33154314993094
  C   -0.52013422816149      0.02147971898976     -0.33716024578679
  Cl  0.63668508521549     -0.30803378173798      2.09953938269119
  H   -0.43595884670464     -0.22180837700368     -1.40890182761097
  H   0.90401498030211     -1.50877369377313      0.12444098571343
  N   1.84866238407396      0.41748187441618     -0.11928637305192
  H   2.06571846124495      0.19887206194104     -1.08668485619026
  H   2.68020071430559      0.24529342614773      0.43262684337151
  N   -0.81540573148961      1.36452077502222     -0.01103442259458
  H   0.04834588779910      1.88791629342162      0.05578321697394
  H   -1.45060679406604      1.79582525997523     -0.66515066152347
  N   -1.64234951620297     -0.91209382496138      0.10628800921229
  O   -2.66970309063316     -0.42572065993660      0.55355575804793
  O   -1.42274334433156     -2.10784924597332     -0.07655895918324
