14
Coordinates from ORCA-job run
  C   0.86322682761334     -0.59652861908197      0.05069395062341
  C   -0.46041839355742      0.09885330694878     -0.26365885368897
  Cl  1.00943283512049     -0.66041992092267      1.87324822175393
  H   -0.62702978510756      0.01076105068487     -1.34074926494333
  H   0.80458379076000     -1.63943195462992     -0.25291989101676
  N   1.96010264685357      0.05903011476755     -0.54326938764708
  H   2.37482691056606     -0.43419860267921     -1.31545865549698
  H   1.78968027440604      1.03631772853240     -0.72498215264191
  N   -0.44532611876828      1.45605229955180      0.12798343527830
  H   -0.36847296489578      1.53895359112789      1.13393972475945
  H   -1.27576611014365      1.94379385539802     -0.17754790661303
  N   -1.60029563564631     -0.73213656089129      0.34062987665395
  O   -1.66545848882159     -1.89703860135459     -0.04057549647189
  O   -2.35808578837890     -0.18300768745172      1.13166639945089
