14
Coordinates from ORCA-job run
  C   0.89338789562350     -0.32140785623942     -0.52821379154645
  C   -0.56422449108481      0.12839516591742     -0.53603815353149
  Cl  0.91923092211956     -2.12334556683333     -0.85237305991254
  H   -1.04130865552677     -0.16273830670563     -1.47141873450224
  H   1.35816653749991      0.12449062752268     -1.40687459493260
  N   1.58383915564296      0.09079226510943      0.63425050089403
  H   1.23109815046138     -0.36532739487701      1.46516110484829
  H   2.57953669282779     -0.05644560456849      0.54752194505123
  N   -0.61945945030083      1.52941149237811     -0.33793039258390
  H   -0.12845128550312      1.79351812133545      0.50578764940696
  H   -1.56444476504562      1.88801541323277     -0.34537516338998
  N   -1.34867325099414     -0.66302447714023      0.51478215275190
  O   -0.98980561073497     -0.54101091470929      1.68678098958796
  O   -2.30889184498487     -1.32032296442247      0.12593954785885
