14
Coordinates from ORCA-job run
  C   0.95295152622178      0.01029143669720     -0.23589418128729
  C   -0.57713958057470     -0.06971933949299     -0.33556950407491
  Cl  1.54907104000104     -0.09437972804488     -1.97138640665567
  H   -0.86543651956212     -1.04930950228486     -0.71984107751596
  H   1.23816807188576      1.01290958112212      0.08593024971836
  N   1.52007876537449     -0.96676311823284      0.59253699605483
  H   2.03639288481078     -0.63577320368410      1.38724071152616
  H   0.97316082882669     -1.79231312945411      0.77204003607197
  N   -1.26628390960495      0.95693563193042     -1.05005336994746
  H   -0.89660611536882      1.87043712083179     -0.81930072146213
  H   -1.18584969388005      0.80458938321641     -2.04537631093777
  N   -1.05903018021149     -0.02896018724375      1.09047295855949
  O   -1.45086458469994     -1.07640008222138      1.59729339335410
  O   -0.96961253321843      1.05945513686093      1.65190722659627
