14
Coordinates from ORCA-job run
  C   0.81772606968306     -0.61098317654458      0.02211293532643
  C   -0.47410693594652      0.09350636972824     -0.36564954905012
  Cl  0.91147703661456     -0.60043724667774      1.87043932056199
  H   -0.58312032936667     -0.00298345814347     -1.44830378429547
  H   0.75986178354640     -1.66765634314575     -0.22725342075373
  N   1.89296452191908      0.01699614714161     -0.63009665354349
  H   2.78171066864570     -0.41067176147910     -0.41140907857700
  H   1.90961965868279      1.00882247268699     -0.43049724853662
  N   -0.46901466412548      1.45322337288719      0.02043882193466
  H   -0.52483096450125      1.54028040363336      1.02733409288710
  H   -1.23925692589897      1.95977691649068     -0.39286594589928
  N   -1.64458901751188     -0.72563735382707      0.19580690017751
  O   -2.44183043495576     -0.15587783936154      0.93188868358349
  O   -1.69461046678506     -1.89835850338883     -0.16094507381546
