14
Coordinates from ORCA-job run
  C   0.76492917741197     -0.56555016133279     -0.01598473844297
  C   -0.60656040090282      0.05458005220500     -0.29884920206568
  Cl  1.02415015607552     -0.56652946464434      1.79791862331588
  H   -0.78394488496539     -0.06632115988607     -1.36910271337065
  H   0.75624304688405     -1.61633297201234     -0.29942813754677
  N   1.75485643658468      0.13834804759641     -0.74413318600126
  H   2.65264336290180     -0.32383921003947     -0.68915588032593
  H   1.85554255349097      1.08487673218341     -0.39999285960507
  N   -0.81332726506790      1.40293911471043      0.07767264848014
  H   -0.49334011146092      2.05665149416489     -0.61884831987521
  H   -0.47194886155329      1.62343265196351      1.00165404825306
  N   -1.63829497691749     -0.84315019765128      0.36380566100759
  O   -2.30034481253570     -0.39486699389255      1.28813679539321
  O   -1.69960341994555     -1.98323793336478     -0.09269273921635
