14
Coordinates from ORCA-job run
  C   0.86947469843640     -0.57985158261426      0.10471373900966
  C   -0.45429786233675      0.07802327795359     -0.28097772443244
  Cl  0.96491231040052     -0.54868140148539      1.93175421036028
  H   -0.58982712082460     -0.06672449864037     -1.35631271013379
  H   0.83407380716399     -1.63770322987709     -0.14619297645759
  N   1.97301276663374      0.06162665884139     -0.49184691456719
  H   1.79401286601771      1.02528415898188     -0.72931619882769
  H   2.41893257534028     -0.46446349452430     -1.22384789093907
  N   -0.46916987960260      1.45360571695004      0.04067734623266
  H   -0.42103810085833      1.58892901513149      1.04273426072693
  H   -1.29798560565063      1.91184390382336     -0.31140887131444
  N   -1.59909462211744     -0.73845966581574      0.33368647091431
  O   -2.38725086713678     -0.16104620422299      1.07327360360919
  O   -1.63675496546553     -1.92238265450163      0.01206365581919
