14
Coordinates from ORCA-job run
  C   0.80921410856717     -0.59870165185999      0.16996795965401
  C   -0.46375169222238      0.01919652458689     -0.38944673214225
  Cl  0.85713702361456     -0.20753191390492      1.97778613239226
  H   -0.54669577789407     -0.29794841608893     -1.43150494580434
  H   0.74464320660929     -1.68371634905598      0.14199776054245
  N   1.90792239649195     -0.12629104514519     -0.56900689806749
  H   2.78557711047620     -0.50565692555528     -0.24270514907952
  H   1.93173457271210      0.88528907557875     -0.57686142648833
  N   -0.45205178617338      1.42932007219616     -0.29208649802492
  H   -0.53386880467283      1.72294781151442      0.67311709764719
  H   -1.20448760587019      1.84462675983175     -0.82315324939814
  N   -1.65795749404457     -0.65855353088272      0.29662477260094
  O   -2.46550848536766      0.05618706225608      0.87896420370068
  O   -1.71390677222616     -1.87916747347103      0.18730697246747
