14
Coordinates from ORCA-job run
  C   0.87185884222588     -0.53432877725922      0.27472138963375
  C   -0.43817434279436      0.00785045621614     -0.30088969128992
  Cl  0.92593421927361     -0.05696371020062      2.02549878527892
  H   -0.53220608987982     -0.37971032954154     -1.31900390835481
  H   0.84006263180701     -1.62207347540421      0.27754236301123
  N   2.01496092289183     -0.06179766877573     -0.41949730072634
  H   1.86123709453685      0.86239841078322     -0.79892957521905
  H   2.33487129549171     -0.70993119755685     -1.12287424269992
  N   -0.47036497067088      1.42031445036812     -0.30242128896561
  H   -1.27594754883899      1.77552017490138     -0.79817331703855
  H   -0.48290487450731      1.78173209473710      0.64291009161506
  N   -1.60308645813212     -0.65951301180142      0.44219734715089
  O   -2.40726339027426      0.06133940844819      1.02156410376225
  O   -1.63997733112907     -1.88483682491461      0.37635524384212
