14
Coordinates from ORCA-job run
  C   0.96863936545014     -0.05612171080528     -0.28682720103135
  C   -0.55878183903062      0.02689191469302     -0.29774807288350
  Cl  1.48255107591431     -0.27938438509740     -2.00602420124968
  H   -0.98080887632694     -0.92217239046493     -0.64050242924791
  H   1.36458283023662      0.90980397929697      0.02930451707631
  N   1.51260767506161     -1.07537409844907      0.53855941370614
  H   1.69348350696232     -0.75268965111204      1.47689335437493
  H   0.97306261391583     -1.92946400931311      0.54122968063479
  N   -1.08476387085300      1.17655058438401     -0.94666176308667
  H   -1.87290901357554      0.95756498748784     -1.53602302604237
  H   -0.39045848623096      1.67533727186923     -1.48202687149733
  N   -0.94653855797559      0.07994731649381      1.17627611885415
  O   -1.67519080884125     -0.81696310308507      1.59626868674875
  O   -0.48447561470693      1.00407329410201      1.83628179364372
