14
Coordinates from ORCA-job run
  C   0.97872697460428     -0.42020485093448     -0.46117420195715
  C   -0.50263392314565     -0.02028495014725     -0.55771166703792
  Cl  1.07508956521690     -2.20999122783903     -0.58474125357756
  H   -0.93033079308015     -0.38435401324882     -1.49147237713824
  H   1.44425308421063     -0.02395746848210     -1.36443700881359
  N   1.70821351046158      0.04592768056363      0.66856775014649
  H   1.20142652710549     -0.07045083191462      1.53499930694305
  H   2.02673857952206      0.99575911367858      0.54672570042634
  N   -0.60803193189235      1.39639046660699     -0.45800550930090
  H   -1.54027048905476      1.71671288487542     -0.68633893851315
  H   -0.37314006301489      1.69994967559910      0.47851282935558
  N   -1.29753577973125     -0.74029346650702      0.52096196324113
  O   -1.05668000415192     -0.40859450668361      1.68428147246615
  O   -2.12482525704998     -1.57460850556678      0.17083193375976
