15

C	-0.548533	0.04795	-1.413234
C	0.0	0.0	0.0
Cl	-2.342824	0.091289	-1.4654
H	1.094079	0.0	0.0
N	-0.001858	1.335901	-2.060756
O	1.155465	1.23904	-2.44621
O	-0.712747	2.326713	-2.080806
C	-0.097464	-1.079197	-2.222137
N	0.261309	-1.97746	-2.889277
C	-0.446796	-1.223708	0.647486
N	-0.808527	-2.189148	1.216125
N	-0.297906	1.21885	0.71432
H	-1.104079	1.139136	1.31943
H	0.534361	1.452471	1.256426
H	2.52525	0.0	0.0
