15

C	-0.577377	0.015733	-1.407813
C	0.0	0.0	0.0
Cl	0.287752	1.19927	-2.419072
H	1.09258	0.0	0.0
N	-0.40396	-1.342996	-2.093049
O	-1.19827	-1.612067	-2.991011
O	0.548136	-2.01711	-1.725274
C	-2.000672	0.342735	-1.413022
N	-3.140194	0.625155	-1.343242
C	-0.509234	-1.144313	0.736769
N	-0.930384	-2.042263	1.372053
N	-0.304482	1.278866	0.63093
H	-1.014983	1.194866	1.344518
H	0.566082	1.599351	1.05069
H	2.535511	0.0	0.0
