15

C	-0.57456	0.015668	-1.409319
C	0.0	0.0	0.0
Cl	0.28169	1.207132	-2.417897
H	1.09271	0.0	0.0
N	-0.387512	-1.343082	-2.089814
O	-1.230238	-1.66859	-2.92211
O	0.620123	-1.962687	-1.781583
C	-2.000036	0.333064	-1.41493
N	-3.138212	0.621524	-1.349787
C	-0.495788	-1.16595	0.715656
N	-0.907115	-2.092166	1.315915
N	-0.318658	1.264642	0.642712
H	-1.083556	1.184091	1.299235
H	0.525421	1.564274	1.12517
H	2.539672	0.0	0.0
