15

C	-0.568816	0.050442	-1.402766
C	0.0	0.0	0.0
Cl	-2.356764	0.222187	-1.424971
H	1.094012	0.0	0.0
N	0.052118	1.274434	-2.10408
O	1.175787	1.071666	-2.546156
O	-0.573713	2.321547	-2.113232
C	-0.218183	-1.128977	-2.18599
N	0.055499	-2.086281	-2.810352
C	-0.450937	-1.212022	0.664027
N	-0.79383	-2.170305	1.256165
N	-0.281341	1.227637	0.712127
H	0.571027	1.472078	1.212133
H	-1.05393	1.142518	1.356742
H	2.512357	0.0	0.0
