15

C	-0.540494	-0.0121	-1.41775
C	0.0	0.0	0.0
Cl	-2.334111	-0.030777	-1.489457
H	1.094069	0.0	0.0
N	-0.035012	1.273195	-2.105204
O	-0.782399	2.234773	-2.164039
O	1.127736	1.205687	-2.482844
C	-0.043281	-1.147566	-2.186855
N	0.354537	-2.057958	-2.814566
C	-0.442994	-1.197592	0.695729
N	-0.803603	-2.14242	1.29858
N	-0.309016	1.246127	0.661162
H	0.524778	1.516112	1.178017
H	-1.105289	1.182726	1.279628
H	2.520936	0.0	0.0
