15

C	-0.239247	0.155209	-1.502796
C	0.0	0.0	0.0
F	-0.266178	-1.167536	-2.103362
H	1.101706	0.0	0.0
H	-1.218615	0.569381	-1.766731
N	0.83172	0.920701	-2.000646
H	1.704305	0.640581	-1.527421
H	0.89896	0.873844	-3.007812
N	-0.619048	-1.219974	0.531289
H	-0.47159	-1.948456	-0.158133
H	-0.062833	-1.484756	1.339862
N	-0.497356	1.180544	0.698697
H	0.218582	1.481749	1.347111
H	-1.315482	0.894024	1.225009
F	2.78004	0.0	0.0
