15

C	-0.218175	-0.201476	-1.492879
C	0.0	0.0	0.0
F	-1.446633	-0.889063	-1.755373
H	1.10343	0.0	0.0
H	-0.366777	0.764361	-1.987855
N	0.868393	-0.981584	-1.991912
H	1.036506	-0.795355	-2.9695
H	1.713947	-0.74988	-1.44458
N	-0.418971	-1.177709	0.77479
H	0.412559	-1.733077	0.940877
H	-1.037761	-1.739219	0.204511
N	-0.581732	1.247501	0.467343
H	-0.080891	1.498085	1.311016
H	-1.53435	1.047779	0.759076
F	2.750266	0.0	0.0
