15

C	-0.520344	0.044454	-1.424414
C	0.0	0.0	0.0
F	-0.263619	1.298419	-1.990572
H	1.099508	0.0	0.0
H	0.042927	-0.667186	-2.042482
N	-1.949885	-0.152311	-1.446561
H	-2.2549	-0.400558	-2.380107
H	-2.108837	-0.94421	-0.830097
N	-0.461083	-1.29015	0.585764
H	-0.826357	-1.038232	1.497397
H	0.386769	-1.824145	0.756022
N	-0.505524	1.117622	0.792313
H	0.259223	1.775396	0.881391
H	-1.25857	1.577763	0.293918
F	2.714451	0.0	0.0
