15

C	-0.526242	0.158624	-1.40666
C	0.0	0.0	0.0
F	-1.891817	0.676275	-1.350325
H	1.098514	0.0	0.0
H	0.015968	0.94694	-1.93378
N	-0.502363	-1.056357	-2.114118
H	-1.054074	-0.999914	-2.95877
H	-0.843891	-1.773062	-1.482213
N	-0.49069	-1.263862	0.576925
H	0.310765	-1.681553	1.036998
H	-1.158557	-1.019308	1.298623
N	-0.37194	1.152084	0.833728
H	0.483658	1.661922	1.025643
H	-1.018023	1.757181	0.347126
F	2.690629	0.0	0.0
