15

C	-0.533367	-0.200351	-1.405947
C	0.0	0.0	0.0
F	-1.874356	-0.4603	-1.403858
H	1.096629	0.0	0.0
H	-0.015822	-0.998083	-1.942914
N	-0.315172	1.049469	-2.216791
O	0.835395	1.227784	-2.595362
O	-1.278425	1.774827	-2.426835
N	-0.48204	-1.138038	0.815844
H	0.093608	-1.12251	1.653593
H	-0.22745	-2.0045	0.345912
N	-0.462248	1.261673	0.525546
H	-1.363604	1.129771	0.967985
H	0.205341	1.607808	1.201001
Br	3.568497	0.0	0.0
