15

C	-0.568639	-0.103184	-1.401654
C	0.0	0.0	0.0
F	-1.932643	-0.149561	-1.374776
H	1.096602	0.0	0.0
H	-0.191781	-0.966146	-1.953793
N	-0.171493	1.101429	-2.214032
O	0.98745	1.095272	-2.611239
O	-1.011872	1.969182	-2.414427
N	-0.482523	-1.192774	0.738412
H	-0.090282	-1.100294	1.671573
H	-0.011465	-2.005406	0.344224
N	-0.460205	1.228232	0.597892
H	-1.390348	1.099344	0.978182
H	0.1796	1.513239	1.327274
Br	3.607739	0.0	0.0
