15

C	-0.605291	-0.009024	-1.384474
C	0.0	0.0	0.0
F	0.05098	0.820561	-2.239929
H	1.096947	0.0	0.0
H	-1.658794	0.270996	-1.348181
N	-0.592285	-1.369029	-2.041079
O	0.381354	-2.094372	-1.855728
O	-1.5531	-1.631325	-2.767258
N	-0.558265	-1.147909	0.73735
H	-0.060173	-1.978074	0.428439
H	-0.278012	-1.01505	1.703883
N	-0.422984	1.257681	0.595642
H	0.316162	1.609473	1.188835
H	-1.262975	1.10941	1.142986
Br	3.595562	0.0	0.0
