15

C	-0.555291	-0.064563	-1.40564
C	0.0	0.0	0.0
F	-1.90819	-0.305756	-1.362202
H	1.092135	0.0	0.0
H	-0.068757	-0.832246	-2.004595
N	-0.357242	1.243071	-2.121171
O	0.787013	1.451303	-2.504407
O	-1.321301	1.985613	-2.258049
N	-0.381218	-1.266924	0.624592
H	0.249094	-1.445818	1.396501
H	-1.331606	-1.218955	0.97414
N	-0.43207	1.24131	0.620679
H	-1.400002	1.189389	0.91117
H	0.150694	1.432848	1.422947
Br	3.558186	0.0	0.0
