15

C	-0.447329	0.041192	-1.453917
C	0.0	0.0	0.0
F	0.304456	-0.789546	-2.205226
H	1.099681	0.0	0.0
H	-0.428919	1.044312	-1.888935
N	-1.881234	-0.42003	-1.575932
O	-2.725529	0.365743	-1.148046
O	-2.100874	-1.52203	-2.059388
N	-0.437586	-1.242933	0.60228
H	-1.254804	-1.060087	1.172
H	0.30444	-1.618781	1.176555
N	-0.532363	1.154377	0.739001
H	0.026435	1.212379	1.585127
H	-0.323396	2.006355	0.225512
Br	3.560993	0.0	0.0
