15

C	-0.516649	-0.048911	-1.425646
C	0.0	0.0	0.0
F	-1.884933	-0.170036	-1.420399
H	1.092826	0.0	0.0
H	-0.0761	-0.865374	-1.991643
N	-0.200835	1.212067	-2.17657
O	-1.007079	2.140211	-2.099942
O	0.860008	1.224606	-2.790551
N	-0.424222	-1.266548	0.587945
H	-1.354037	-1.134648	0.976421
H	0.203887	-1.453775	1.365176
N	-0.4513	1.177234	0.730084
H	-1.276382	1.585459	0.308035
H	0.286421	1.872725	0.737963
Br	3.540948	0.0	0.0
