15

C	0.0	0.0	0.0
C	-0.440159	0.086144	-1.489705
F	1.387056	0.0	0.0
H	0.140354	0.946038	-1.865448
C	-0.419953	1.20264	0.737728
N	-0.630311	2.206103	1.310077
C	-0.454993	-1.227565	0.663595
N	-0.731495	-2.213084	1.23877
N	-1.818907	0.330454	-1.739057
H	-2.071825	1.292392	-1.559667
H	-2.481239	-0.218632	-1.184607
N	-0.055498	-1.17841	-2.093511
H	0.930747	-1.195243	-2.31321
H	-0.595473	-1.268057	-2.943991
Cl	-4.409173	0.0	0.0
