15

C	0.0	0.0	0.0
C	-0.43127	0.050005	-1.494922
F	1.386776	0.0	0.0
H	0.139081	0.911792	-1.882787
C	-0.422727	1.21997	0.706749
N	-0.631316	2.231626	1.265721
C	-0.455368	-1.212895	0.688392
N	-0.723688	-2.193363	1.275679
N	-1.811176	0.268339	-1.765435
H	-2.465769	-0.288457	-1.209876
H	-2.083735	1.227692	-1.593186
N	-0.023855	-1.22184	-2.068013
H	-0.528213	-1.322009	-2.939475
H	0.97124	-1.239302	-2.247103
Cl	-4.407842	0.0	0.0
