15

C	0.0	0.0	0.0
C	-0.4418	-0.04109	-1.492167
F	1.386814	0.0	0.0
H	0.074462	-0.933321	-1.883068
C	-0.457444	1.213943	0.686227
N	-0.735428	2.196337	1.266072
C	-0.428546	-1.217651	0.705923
N	-0.652354	-2.229277	1.258781
N	0.025395	1.204397	-2.077208
H	-0.493142	1.332791	-2.935795
H	1.015086	1.164557	-2.278751
N	-1.835422	-0.181174	-1.743839
H	-2.443744	0.434849	-1.203263
H	-2.178207	-1.111076	-1.544431
Cl	-4.474546	0.0	0.0
