15

C	0.0	0.0	0.0
C	-0.500502	0.00467	-1.441443
F	1.391699	0.0	0.0
H	-1.592701	0.004797	-1.346082
C	-0.401283	1.213353	0.735798
N	-0.541614	2.188889	1.372825
C	-0.405469	-1.213227	0.730831
N	-0.553856	-2.193298	1.359976
N	-0.074237	-1.242465	-2.056311
H	0.886239	-1.176288	-2.370482
H	-0.666685	-1.451879	-2.848095
N	-0.073224	1.255881	-2.047012
H	0.890411	1.195078	-2.354014
H	-0.660818	1.468259	-2.84196
Cl	-3.467076	0.0	0.0
