15

C	0.0	0.0	0.0
C	-0.520305	-0.128875	-1.451393
F	1.376009	0.0	0.0
H	-1.480616	-0.64042	-1.384823
C	-0.409163	1.235021	0.695918
N	-0.521859	2.239112	1.292511
C	-0.399353	-1.181832	0.791938
N	-0.548991	-2.175578	1.39843
N	0.417539	-0.967101	-2.162373
H	1.232164	-0.421322	-2.417517
H	-0.021	-1.325309	-3.000261
N	-0.641848	1.218037	-2.008616
H	-1.467393	1.632634	-1.575912
H	-0.871452	1.106892	-2.991149
Cl	-3.321206	0.0	0.0
