13

C	0.0	0.0	0.0
C	-0.345627	0.066581	-1.511051
Cl	1.830403	0.0	0.0
H	0.477804	-0.439483	-2.029039
H	-0.306829	-0.975146	0.387101
N	-0.456198	1.145598	0.711007
H	-0.155822	1.059725	1.694397
H	-1.506256	0.993077	0.648168
C	-0.299217	1.458635	-1.99071
N	-0.235251	2.52902	-2.46611
C	-1.557956	-0.597824	-2.033678
N	-2.377624	-1.110141	-2.698991
H	-2.61654	0.0	0.0
