15

C	0.0	0.0	0.0
C	-0.477066	0.087359	-1.451118
Cl	1.797549	0.0	0.0
H	-1.569703	0.113191	-1.436601
H	-0.086262	-0.762871	-2.00181
N	-0.424582	1.171366	0.719701
H	-1.443515	1.204	0.642155
H	-0.187534	1.05526	1.699254
N	-0.444461	-1.29973	0.461214
H	-1.467528	-1.247751	0.462779
H	-0.143387	-1.416951	1.423434
N	-0.006723	1.307866	-2.1525
O	0.969637	1.189545	-2.89878
O	-0.625248	2.352897	-1.966961
Cl	-3.561127	0.0	0.0
