15

C	0.0	0.0	0.0
C	-0.11671	-0.116747	-1.557165
Cl	1.858126	0.0	0.0
H	0.306914	-1.074993	-1.847348
H	0.449804	0.70216	-1.994118
N	-0.466088	1.196469	0.608854
H	-0.202285	2.009644	0.064529
H	-1.490923	1.129151	0.627755
N	-0.490381	-1.184402	0.614243
H	-0.433663	-1.047636	1.617982
H	-1.489142	-1.224406	0.386639
N	-1.442729	-0.035865	-2.237191
O	-1.857638	1.091474	-2.496823
O	-1.96041	-1.094549	-2.581269
Cl	-3.547163	0.0	0.0
