15

C	0.0	0.0	0.0
C	-0.467789	-0.193685	-1.443203
Cl	1.819029	0.0	0.0
H	-1.559998	-0.241502	-1.430073
H	-0.094312	0.628198	-2.046408
N	-0.435218	1.331369	0.364223
H	-0.129314	1.521463	1.313233
H	-1.458818	1.285876	0.370618
N	-0.418353	-1.112615	0.806144
H	-0.191263	-0.916354	1.775247
H	-1.43621	-1.161002	0.723587
N	0.032887	-1.445028	-2.065196
O	-0.536787	-2.496096	-1.783937
O	0.981404	-1.344141	-2.848434
Cl	-3.5566	0.0	0.0
