15

C	0.0	0.0	0.0
C	-0.106621	0.364726	-1.518203
Cl	1.8575	0.0	0.0
H	0.27388	1.372958	-1.657769
H	0.491928	-0.347911	-2.08019
N	-0.474884	0.950344	0.940838
H	-0.13369	1.879652	0.728323
H	-1.499943	0.926962	0.870285
N	-0.506526	-1.287853	0.262691
H	-1.052318	-1.26403	1.111818
H	-1.123438	-1.588395	-0.482134
N	-1.427924	0.326911	-2.210921
O	-1.943512	1.39896	-2.51066
O	-1.83582	-0.786747	-2.533753
Cl	-3.565384	0.0	0.0
