15

C	-0.47462	0.00118	-1.431084
C	0.0	0.0	0.0
F	-0.061903	-1.100112	-2.105099
H	1.095162	0.0	0.0
H	-0.340506	0.930902	0.459174
C	-1.943181	0.094303	-1.555068
N	-3.113773	0.133999	-1.633322
N	0.083588	1.230042	-2.164322
O	-0.273979	2.305173	-1.697292
O	0.802143	1.03739	-3.128937
C	-0.519581	-1.218534	0.753519
H	-0.109794	-1.206308	1.764804
H	-1.611846	-1.238198	0.822508
H	-0.178029	-2.137029	0.274463
Cl	3.405218	0.0	0.0
