15

C	-0.55189	-0.032524	-1.401267
C	0.0	0.0	0.0
F	-1.920161	0.092323	-1.390866
H	1.094386	0.0	0.0
H	-0.32164	0.964702	0.408368
C	-0.020781	1.009841	-2.288049
N	0.298649	1.894997	-2.990275
N	-0.257572	-1.387344	-2.052466
O	-1.125706	-2.244189	-1.94239
O	0.837589	-1.503145	-2.582811
C	-0.515933	-1.148925	0.861027
H	-0.204872	-0.971984	1.892138
H	-0.074935	-2.097827	0.551385
H	-1.603591	-1.240793	0.830265
Cl	3.398699	0.0	0.0
