15

C	-0.480582	0.039215	-1.427981
C	0.0	0.0	0.0
F	-0.092087	-1.053681	-2.129972
H	1.102377	0.0	0.0
H	-0.33564	0.920571	0.482583
C	-1.948603	0.163872	-1.538316
N	-3.119559	0.242936	-1.589735
N	0.089718	1.274198	-2.142091
O	0.765168	1.091497	-3.138899
O	-0.222168	2.344275	-1.633425
C	-0.52113	-1.233773	0.72655
H	-0.108223	-1.246661	1.736492
H	-1.613365	-1.250931	0.798891
H	-0.185033	-2.142363	0.22531
Cl	3.407217	0.0	0.0
