15

C	-0.547534	0.019781	-1.404096
C	0.0	0.0	0.0
F	-1.916768	0.136647	-1.394002
H	1.093277	0.0	0.0
H	-0.321713	0.949948	0.441494
C	-0.017234	1.103917	-2.240693
N	0.317868	2.025422	-2.886507
N	-0.244973	-1.303889	-2.11413
O	0.833889	-1.382992	-2.682462
O	-1.095001	-2.178316	-2.01252
C	-0.517644	-1.177718	0.819896
H	-1.604747	-1.272691	0.777351
H	-0.216104	-1.03143	1.858907
H	-0.070644	-2.114681	0.484331
Cl	3.3919	0.0	0.0
