15

C	-0.552133	0.239004	-1.380146
C	0.0	0.0	0.0
F	-1.921559	0.352951	-1.345513
H	1.100362	0.0	0.0
H	-0.31978	0.868663	0.586139
C	-0.027456	1.439694	-2.04397
N	0.286095	2.45092	-2.552403
N	-0.2545	-0.959351	-2.286293
O	-1.10353	-1.842209	-2.312062
O	0.820679	-0.946146	-2.867551
C	-0.516107	-1.291862	0.626037
H	-0.21515	-1.308149	1.675158
H	-1.60295	-1.380778	0.568531
H	-0.067053	-2.16474	0.149684
Cl	3.399664	0.0	0.0
