15
Coordinates from ORCA-job run
  C   0.60318107387702      0.38889259939509     -0.73502378696263
  C   -0.81689755196424      0.28746981049208     -0.20242997991217
  Br  0.57233137197246     -0.31763705401297     -2.55577756747940
  H   -1.52124844041195      0.82035949891123     -0.84211714476124
  H   0.80496162260584      1.45402665462293     -0.84638221442559
  C   1.69904601027028     -0.27417871995892      0.07833822754490
  H   1.68684302274492      0.10462943025584      1.10260426348799
  H   1.58957581236022     -1.35578455620316      0.09995047123969
  H   2.66366981646260     -0.02575814166437     -0.36620695526702
  N   -0.93725010100705      0.92294425615696      1.16865027440698
  O   -0.23904473310628      1.91352442512622      1.35416852381595
  O   -1.76422338708547      0.45111023010166      1.93595773731817
  N   -1.32245959710590     -1.11423202548938     -0.09085522177043
  O   -2.31836845226408     -1.38822650174631     -0.75295578697816
  O   -0.69911646734837     -1.86513990598691      0.65207915974295
