15
Coordinates from ORCA-job run
  C   0.56861839627417      0.06473576592362     -0.72166645048792
  C   -0.58017780576090     -0.42172722772502      0.12894584907315
  Br  0.81719135294360     -1.25396206751830     -2.13502905173118
  H   -0.44801690630989     -1.42680152367673      0.52267978353496
  H   0.26694404116246      0.98752555089301     -1.21674555083180
  C   1.84334240465109      0.23380369009022      0.08481634263871
  H   2.10486727430600     -0.68561665313088      0.61219176075338
  H   1.72297871534263      1.04021028661130      0.81292455076242
  H   2.66752434554640      0.49818670508267     -0.57764349127336
  N   -1.89616937823453     -0.40600654494124     -0.60015376300516
  O   -2.70539230806582     -1.25439017518098     -0.23331181406162
  O   -2.06396191225258      0.45464370505439     -1.45524958481158
  N   -0.74267345220076      0.49728695390496      1.30911022227241
  O   -1.03223216694334      1.66273367672980      1.05737357183661
  O   -0.52284260045852      0.00837785788317      2.41275762533098
