15
Coordinates from ORCA-job run
  C   0.82192504616067      0.44005634598144     -0.13585504976441
  C   -0.57059704833373      0.16810695124156      0.39826105559406
  Br  0.80759297541959      1.10440813271496     -1.96393606634339
  H   -0.53170942336774      0.03196805387993      1.48055032023772
  H   1.19140637753909      1.28082091144888      0.45437042048611
  C   1.74035940164233     -0.76168697164555      0.01035217183675
  H   1.71872806776837     -1.12673825914135      1.04245578585583
  H   1.44288469376938     -1.56612361302078     -0.66069116174029
  H   2.76401241028682     -0.47272189481382     -0.22836198973804
  N   -1.26249441960914     -1.04803733698570     -0.13423438074297
  O   -0.97177515976304     -1.44542340438440     -1.25605766861068
  O   -2.09890496366640     -1.53102606588452      0.62519415707892
  N   -1.47895774135174      1.35074549475272      0.17179224623300
  O   -2.44811162783396      1.20877583695686     -0.55888524689507
  O   -1.12335858866051      2.36687581889975      0.75504540651246
