15
Coordinates from ORCA-job run
  C   0.56159942640463      0.02706126538873     -0.73035797627810
  C   -0.60456576858897     -0.38231049866541      0.13678054639129
  Br  0.70322131560240     -1.30502192660551     -2.14557606922712
  H   -0.53248820814487     -1.39366115509235      0.53012938462126
  H   0.31550312449950      0.96818648621184     -1.22159792195732
  C   1.85563536297355      0.11059628045319      0.05894370009880
  H   2.68673488195217      0.31916833162650     -0.61471651229701
  H   2.06209489355159     -0.82430436653771      0.58354757139876
  H   1.79965104930528      0.92323576384807      0.78790472137927
  N   -1.92787186514877     -0.27995735827689     -0.57243090421221
  O   -2.78692465390239     -1.06970231192219     -0.18876073395300
  O   -2.04951645342539      0.58696486341963     -1.42892295086332
  N   -0.69006099888896      0.54633067106069      1.31778619962874
  O   -0.49238624087936      0.04484727996131      2.41991604190759
  O   -0.90262586531040      1.72856667513008      1.06735490336236
