15
Coordinates from ORCA-job run
  C   0.52163984292855      0.44473235991684     -0.76251823010091
  C   -0.83431415273190      0.29782117515755     -0.09006917738687
  Br  0.29824839294223     -0.13417874106921     -2.61305205660922
  H   -1.59051269538115      0.90622847695683     -0.58672343186987
  H   0.70663808616779      1.51729368000987     -0.82021065981829
  C   1.69940331534112     -0.25710817449704     -0.11267162091056
  H   1.79535234422723      0.06014197425279      0.92870528512661
  H   2.61149207236995      0.02789853779148     -0.63874419659431
  H   1.59521771697656     -1.33852976382596     -0.14506107519483
  N   -0.77437169080589      0.79136951061000      1.34149766241404
  O   -1.37304115162843      0.15515507725442      2.19677156583033
  O   -0.16365049280643      1.84326054283714      1.49448403182137
  N   -1.36452236714827     -1.09887368833621     -0.07005575918406
  O   -2.48545416800955     -1.25726294131757     -0.54426441654268
  O   -0.64312505244180     -1.95994802574092      0.42091207901925
