15
Coordinates from ORCA-job run
  C   0.67227546253195      0.50031305335288     -0.44178242447750
  C   -0.48262517077670      0.22975938802035      0.50594558870146
  Br  0.09807579627382      0.73711101909955     -2.28404107293750
  H   -0.13703229160214      0.33341389497396      1.53635601548778
  H   1.07706843522346      1.47077589680750     -0.15331709165595
  C   1.72528302559412     -0.59092285422807     -0.34001694821177
  H   2.60391489660101     -0.31250862578841     -0.92164829349772
  H   1.34588516578072     -1.53732401936280     -0.72856599614742
  H   2.02600655673485     -0.73378904616367      0.70245362250992
  N   -1.00581476881179     -1.16442368370815      0.39237861462944
  O   -1.48798280211695     -1.50556824954199     -0.68006801787396
  O   -0.85737258767038     -1.86525205849439      1.39318136556535
  N   -1.60153521765239      1.22802220481546      0.35547459808550
  O   -2.74877236233263      0.81512445564006      0.27821421369474
  O   -1.22937413777691      2.39426862457773      0.38543582612760
