15
Coordinates from ORCA-job run
  C   0.60797207790705      0.37973022322459     -0.73283031554171
  C   -0.81624514566467      0.28862286306873     -0.20868671815817
  Br  0.58959809593789     -0.35208384993352     -2.54258536521803
  H   -1.50684769070068      0.85088901639184     -0.83766283268931
  H   0.80849362319244      1.44358864127504     -0.85877107829900
  C   1.69895643500950     -0.26497956391469      0.10161521055065
  H   1.59155563940778     -1.34570654417872      0.14471021832695
  H   2.66683540525415     -0.02113466126117     -0.33841434920078
  H   1.67773932466400      0.13550711899182      1.11821101325328
  N   -0.91531785590143      0.90264472973626      1.17355712802234
  O   -1.61472428285128      0.34214240803913      2.00493121808184
  O   -0.31256971902723      1.96176493587863      1.30701699606275
  N   -1.35597688196757     -1.10224909107620     -0.12992768913985
  O   -0.70231262964314     -1.91581762439549      0.51338494903927
  O   -2.41615639561682     -1.30391860184627     -0.71454838509019
