15
Coordinates from ORCA-job run
  C   0.69542662619327      0.33610654204356     -0.67659067895628
  C   -0.75931319622387      0.39634363217788     -0.23925840756362
  Br  0.70085715051531     -0.29433589874141     -2.52489230884855
  H   -1.34406951446325      1.04587085337988     -0.89155193854946
  H   1.03390282806960      1.37076105816063     -0.72755706151966
  C   1.64352183607422     -0.48761535044313      0.17466830024537
  H   2.65922117063983     -0.34849947220651     -0.19797233270773
  H   1.39917497745163     -1.54662017507124      0.14466634570868
  H   1.61014230033651     -0.14439986225774      1.21110046218888
  N   -0.88879162612794      0.98123237797032      1.15337701118488
  O   -1.79804671656112      0.56689458361400      1.85806609149694
  O   -0.10274735702828      1.88428727858172      1.41736348240959
  N   -1.44738558533907     -0.92996440128012     -0.23494711073457
  O   -0.96833435045658     -1.79547031132999      0.49001309838385
  O   -2.43355854308028     -1.03359085459785     -0.95748495273833
