18

C	-0.540008	0.023011	-1.449331
C	0.0	0.0	0.0
F	-0.215012	-1.249484	-1.919793
H	1.087047	0.0	0.0
N	-1.948415	0.19599	-1.60547
H	-2.207696	1.171892	-1.585428
H	-2.458287	-0.327538	-0.907321
C	0.233854	1.025995	-2.277496
H	0.008412	2.050266	-1.977933
H	-0.054149	0.877462	-3.320287
H	1.304706	0.854895	-2.149408
N	-0.475847	-1.181698	0.782942
O	0.241768	-1.523487	1.718931
O	-1.54798	-1.70578	0.475945
N	-0.483572	1.205178	0.73346
O	-1.467569	1.084042	1.466559
O	0.11448	2.252193	0.504753
Br	3.442739	0.0	0.0
