18

C	-0.516768	0.009653	-1.444978
C	0.0	0.0	0.0
F	0.074349	-1.080505	-2.06675
H	1.087876	0.0	0.0
N	-1.933534	-0.244915	-1.482815
H	-2.413443	0.48486	-0.971861
H	-2.241831	-0.227555	-2.448363
C	-0.003762	1.236576	-2.181925
H	1.076353	1.326421	-2.040264
H	-0.504581	2.138885	-1.834308
H	-0.212049	1.100096	-3.246732
N	-0.514671	-1.200551	0.731092
O	-1.451289	-1.036391	1.511508
O	0.024215	-2.262925	0.458076
N	-0.435564	1.185883	0.798059
O	0.189474	1.381956	1.832307
O	-1.38616	1.869441	0.404439
Br	3.385164	0.0	0.0
