18

C	-0.337897	0.018039	-1.505945
C	0.0	0.0	0.0
F	-1.681515	0.324845	-1.676223
H	1.103335	0.0	0.0
N	0.424523	1.001488	-2.224236
H	1.413073	0.782072	-2.109836
H	0.274983	1.902897	-1.787333
C	-0.048988	-1.353477	-2.081488
H	-0.17923	-1.287353	-3.162069
H	0.981891	-1.639503	-1.856365
H	-0.735055	-2.098003	-1.678246
N	-0.535264	-1.203813	0.691982
O	0.269049	-1.929122	1.271541
O	-1.747962	-1.395493	0.607501
N	-0.493306	1.18445	0.760728
O	-0.419399	2.277636	0.206128
O	-0.893342	0.999664	1.905578
Br	3.371064	0.0	0.0
