18

C	-0.541296	-0.036554	-1.432596
C	0.0	0.0	0.0
F	-1.952204	0.129327	-1.36211
H	1.089329	0.0	0.0
N	0.065997	0.965656	-2.218409
H	-0.282345	0.922332	-3.165936
H	-0.081795	1.883392	-1.823542
C	-0.286321	-1.399953	-2.043499
H	0.770248	-1.653295	-1.948969
H	-0.898651	-2.160889	-1.559922
H	-0.560531	-1.362509	-3.100941
N	-0.505452	-1.197567	0.739369
O	-1.673679	-1.17688	1.121385
O	0.2715	-2.141666	0.84705
N	-0.411768	1.202886	0.791665
O	-0.405633	1.08673	2.010881
O	-0.640541	2.244877	0.18013
Br	3.382135	0.0	0.0
