19

C	0.0	0.0	0.0
C	-0.45349	-0.043651	-1.491851
Cl	1.781939	0.0	0.0
H	0.244727	-0.734739	-1.972728
C	-0.594797	1.098584	0.83447
H	-0.291563	2.064599	0.431876
H	-0.268499	1.022255	1.86989
H	-1.685908	1.006989	0.798146
N	-0.333942	-1.359266	0.632522
O	-0.158847	-2.350535	-0.070726
O	-0.703087	-1.37656	1.800519
C	-0.308658	1.336419	-2.122966
H	0.664867	1.791683	-1.92801
H	-0.444318	1.22917	-3.200077
H	-1.095822	2.000324	-1.758256
N	-1.778559	-0.533041	-1.742571
H	-2.528699	-0.0158	-1.284003
H	-1.883876	-1.497492	-1.460398
Br	-4.568392	0.0	0.0
