19

C	0.0	0.0	0.0
C	-0.496555	0.066388	-1.447235
F	1.40392	0.0	0.0
H	-1.597273	0.014918	-1.387065
C	-0.478908	1.193821	0.793297
H	-0.174048	1.082955	1.837885
H	-0.049412	2.119511	0.403021
H	-1.575558	1.213172	0.724406
C	-0.485578	-1.288809	0.622033
H	-0.114788	-2.157123	0.070627
H	-0.120083	-1.351831	1.650825
H	-1.585395	-1.257659	0.611879
N	0.068259	-0.91116	-2.341736
H	1.02765	-1.094156	-2.073548
H	-0.468324	-1.765032	-2.281099
N	-0.161141	1.419006	-2.017389
O	1.006275	1.606907	-2.362346
O	-1.055463	2.260389	-2.082408
H	-3.284919	0.0	0.0
