19

C	0.0	0.0	0.0
C	-0.533846	0.1363	-1.430338
F	1.403933	0.0	0.0
H	-1.624315	0.276699	-1.313536
C	-0.462784	1.157057	0.860517
H	-0.112232	1.003159	1.885413
H	-1.560577	1.165508	0.83807
H	-0.069597	2.106897	0.493829
C	-0.490993	-1.308556	0.577585
H	-0.164993	-1.388967	1.618259
H	-0.093679	-2.161896	0.022677
H	-1.590414	-1.287188	0.532737
N	-0.253746	-0.9431	-2.337548
H	0.667505	-1.323566	-2.158687
H	-0.952328	-1.660291	-2.198087
N	0.036258	1.388548	-2.035285
O	1.12465	1.294557	-2.602373
O	-0.600379	2.435526	-1.906537
H	-3.274641	0.0	0.0
