19

C	0.0	0.0	0.0
C	-0.549161	0.001328	-1.423363
F	1.40052	0.0	0.0
H	-0.339513	0.964644	-1.89814
C	-0.396101	1.281657	0.722932
H	-0.046854	2.15317	0.159988
H	0.077881	1.297606	1.710275
H	-1.480173	1.336028	0.842718
C	-0.393578	-1.237653	0.794688
H	-0.148281	-2.117691	0.198503
H	0.165972	-1.229007	1.736758
H	-1.464411	-1.239943	1.014439
N	-2.018845	-0.237636	-1.314715
H	-2.01747	-1.264619	-1.487439
H	-2.48405	0.206611	-2.103879
N	-0.068667	-1.008521	-2.347091
O	-0.414211	-2.260675	-1.981296
O	1.03311	-0.721893	-2.992109
H	-2.877416	0.0	0.0
