19

C	0.0	0.0	0.0
C	-0.513477	0.049225	-1.434582
F	1.405075	0.0	0.0
H	-1.619297	0.062985	-1.346641
C	-0.478776	1.192177	0.795386
H	-1.576932	1.19931	0.736715
H	-0.067125	2.126913	0.411115
H	-0.163253	1.073578	1.835591
C	-0.491989	-1.283801	0.627389
H	-1.5912	-1.249849	0.598372
H	-0.148586	-1.328912	1.664704
H	-0.121532	-2.148471	0.07708
N	-0.016377	-1.035234	-2.216506
H	-0.451071	-1.036213	-3.130016
H	0.982582	-0.925117	-2.330072
N	-0.117105	1.389309	-2.052478
O	-0.902068	2.330682	-1.945394
O	0.974623	1.453252	-2.627982
H	-3.27722	0.0	0.0
