19

C	0.0	0.0	0.0
C	-0.520848	0.063263	-1.431435
F	1.40491	0.0	0.0
H	-1.62485	0.089682	-1.333097
C	-0.475473	1.18436	0.810647
H	-1.57275	1.197866	0.75274
H	-0.060419	2.121612	0.436054
H	-0.160343	1.052602	1.849129
C	-0.491436	-1.290027	0.617397
H	-0.122561	-2.149458	0.058637
H	-0.146545	-1.344531	1.654159
H	-1.590417	-1.257772	0.591187
N	-0.050087	-1.027174	-2.221368
H	0.947305	-0.924056	-2.359426
H	-0.506076	-1.02261	-3.12414
N	-0.110192	1.399763	-2.04667
O	0.962412	1.438885	-2.656206
O	-0.860139	2.362228	-1.905417
H	-3.277358	0.0	0.0
