19

C	0.0	0.0	0.0
C	-0.51829	0.100435	-1.430265
F	1.404741	0.0	0.0
H	-1.622562	0.129532	-1.334026
C	-0.471462	1.161135	0.846739
H	-0.15609	0.993535	1.880338
H	-1.568487	1.181839	0.791573
H	-0.052488	2.108105	0.502628
C	-0.488011	-1.307508	0.583395
H	-0.118852	-2.150742	8.9e-05
H	-0.139965	-1.389233	1.617426
H	-1.586812	-1.277194	0.560457
N	-0.05235	-0.97368	-2.245377
H	-0.509276	-0.947793	-3.147435
H	0.945464	-0.872329	-2.383421
N	-0.098274	1.449691	-2.014747
O	0.954554	1.489144	-2.660076
O	-0.825413	2.420407	-1.815385
H	-3.289941	0.0	0.0
