16

C	0.0	0.0	0.0
C	-0.36587	0.102895	-1.490078
Cl	1.789314	0.0	0.0
H	0.1323	0.980107	-1.908501
H	-0.315102	-0.972551	0.380313
C	-0.593227	1.136862	0.796042
H	-0.283923	2.100738	0.382165
H	-1.683861	1.05149	0.757506
H	-0.272131	1.087163	1.838068
N	-1.732858	0.078109	-1.86246
H	-2.122858	1.00851	-1.904794
H	-2.342458	-0.439499	-1.230963
N	0.301216	-1.058994	-2.213509
O	0.998918	-0.802207	-3.191619
O	0.05107	-2.185098	-1.793396
Cl	-4.256378	0.0	0.0
