16

C	0.0	0.0	0.0
C	-0.441074	0.173873	-1.462361
Cl	1.785944	0.0	0.0
H	0.369162	0.622012	-2.044229
H	-0.300869	-0.983697	0.353671
C	-0.527153	1.08604	0.914497
H	-0.138788	0.932582	1.923882
H	-0.230605	2.074	0.560592
H	-1.617536	1.028576	0.93754
N	-1.61463	0.926194	-1.638203
H	-2.429722	0.562765	-1.126725
H	-1.840215	1.00089	-2.62054
N	-0.511063	-1.242729	-2.138567
O	-0.952847	-1.235862	-3.285955
O	-0.100566	-2.238601	-1.549943
Cl	-4.166941	0.0	0.0
