16

C	0.0	0.0	0.0
C	-0.38869	-0.076004	-1.482228
Cl	1.789512	0.0	0.0
H	0.130054	0.718836	-2.022088
H	-0.311791	-0.918936	0.497695
C	-0.57869	1.224319	0.668818
H	-0.234423	1.293997	1.702318
H	-1.669776	1.143878	0.662757
H	-0.277285	2.132761	0.140211
N	-1.760793	-0.107784	-1.811166
H	-2.412887	-0.402388	-1.082549
H	-2.093934	0.773777	-2.166112
N	0.239074	-1.346252	-2.061674
O	0.030495	-2.396278	-1.461783
O	0.851917	-1.241602	-3.121689
Cl	-4.316252	0.0	0.0
