16

C	0.0	0.0	0.0
C	-0.575972	0.093049	-1.42138
Cl	1.790074	0.0	0.0
H	-1.621482	0.394014	-1.298463
H	-0.313183	-0.974155	0.374904
C	-0.480321	1.093849	0.934204
H	-0.136093	2.069168	0.590535
H	-0.096752	0.914959	1.94037
H	-1.572433	1.072217	0.945512
N	-0.51968	-1.096572	-2.210178
H	0.347924	-1.597619	-2.069359
H	-1.310997	-1.674149	-1.956985
N	0.112135	1.212393	-2.16123
O	0.992181	0.922667	-2.967352
O	-0.234161	2.35953	-1.872834
Cl	-3.679142	0.0	0.0
