16

C	0.0	0.0	0.0
C	-0.437792	0.198605	-1.460901
Cl	1.786024	0.0	0.0
H	0.380497	0.64257	-2.035491
H	-0.299498	-0.991353	0.334176
C	-0.536832	1.062438	0.93473
H	-1.626359	0.991729	0.951001
H	-0.151667	0.889232	1.94233
H	-0.249927	2.061099	0.60453
N	-1.60138	0.967186	-1.636436
H	-2.420761	0.604453	-1.130089
H	-1.821197	1.046261	-2.620287
N	-0.514514	-1.208239	-2.157486
O	-0.101816	-2.210538	-1.581402
O	-0.953838	-1.189669	-3.305518
Cl	-4.12336	0.0	0.0
