13

C	-0.368064	-0.068865	-1.344663
C	-0.074048	-0.089143	0.165555
Cl	0.12307	-1.695502	-1.963214
H	1.018372	-0.061362	0.186633
H	-0.498425	-0.996506	0.606585
N	-1.761106	0.114122	-1.710366
H	-1.984712	1.099826	-1.638817
H	-2.347645	-0.406325	-1.067566
C	0.415258	0.98107	-2.027937
N	0.513243	1.917307	-2.740892
C	-0.658662	1.074361	0.815692
N	-1.156056	2.001254	1.33997
F	2.174763	0.363222	-0.931984
