13

C	-0.275226	-0.011227	-1.362302
C	-0.013238	0.101452	0.131298
Cl	-2.105741	-0.600168	-1.528231
H	1.079694	0.137767	0.144994
H	-0.316918	-0.820964	0.627286
N	-0.097565	1.212629	-2.026604
H	-0.706636	1.931077	-1.656564
H	-0.214839	1.118458	-3.025674
C	0.493863	-1.073067	-2.034252
N	0.720382	-1.907856	-2.835696
C	-0.698636	1.242656	0.708734
N	-1.22306	2.19288	1.161117
F	2.253121	-0.553728	-0.703132
