15

C	0.0	0.0	0.0
C	-0.549949	-0.221468	-1.390116
F	1.395733	0.0	0.0
H	-1.596489	0.090138	-1.344748
H	-0.007792	0.445755	-2.067565
N	-0.217718	1.518783	0.364775
O	-0.370494	1.78619	1.552589
O	-0.124145	2.346245	-0.536514
N	-0.502675	-0.841873	0.973856
H	-0.389488	-0.414292	1.884191
H	-1.497128	-0.982641	0.794683
N	-0.492086	-1.633296	-1.755052
H	-1.271823	-1.845418	-2.362586
H	0.369822	-1.840804	-2.239836
Cl	-3.689885	0.0	0.0
