15

C	0.0	0.0	0.0
C	-0.551584	-0.01536	-1.405516
F	1.347471	0.0	0.0
H	-1.58961	0.316774	-1.333181
H	0.023647	0.704308	-1.989218
N	-0.259051	1.441316	0.598
O	-0.402577	1.514349	1.816101
O	-0.197993	2.399539	-0.166095
N	-0.544957	-0.991403	0.813312
H	-0.27707	-0.833894	1.777431
H	-1.566404	-0.915421	0.736829
N	-0.390353	-1.358012	-1.979685
H	-0.992075	-1.402052	-2.794329
H	-0.77911	-2.01551	-1.312791
Cl	-3.658411	0.0	0.0
