15

C	0.0	0.0	0.0
C	-0.469432	-0.155505	-1.456446
F	1.38398	0.0	0.0
H	-0.890715	0.800227	-1.780721
H	0.456821	-0.313691	-2.015261
N	-0.217448	1.499091	0.458008
O	-0.510711	1.686268	1.634836
O	0.032296	2.381061	-0.356664
N	-0.515622	-0.897992	0.912526
H	-0.376905	-0.547248	1.852458
H	-1.516053	-1.001801	0.743635
N	-1.344272	-1.298129	-1.667961
H	-1.370318	-1.485711	-2.662223
H	-2.284276	-1.025426	-1.37898
Cl	-3.722972	0.0	0.0
