15

C	0.0	0.0	0.0
C	-0.507336	0.034796	-1.430759
F	1.351741	0.0	0.0
H	-0.233052	-0.945194	-1.83986
H	-1.598931	0.085103	-1.368639
N	-0.340996	1.321902	0.722675
O	-0.870621	2.222954	0.076132
O	0.008827	1.398884	1.895211
N	-0.526268	-1.043583	0.804281
H	-1.538575	-0.887607	0.865257
H	-0.396999	-1.915912	0.304722
N	0.125405	1.065938	-2.259351
H	-0.39517	1.923289	-2.123417
H	0.012121	0.799652	-3.229409
Cl	-3.688908	0.0	0.0
