15

C	0.0	0.0	0.0
C	-0.546781	-0.512002	-1.313623
F	1.360914	0.0	0.0
H	-0.328308	-1.593832	-1.337931
H	-1.633381	-0.389882	-1.250581
N	-0.305073	1.521592	0.085115
O	-1.441416	1.830908	0.408497
O	0.614291	2.292925	-0.165677
N	-0.542635	-0.5743	1.176379
H	-0.532327	-1.583853	1.077494
H	-1.528778	-0.295168	1.202748
N	-0.02303	0.244548	-2.438351
H	0.928654	-0.029748	-2.64093
H	-0.593247	0.077768	-3.255307
Cl	-3.987779	0.0	0.0
