15

C	0.0	0.0	0.0
C	-0.595183	-0.132443	-1.379307
F	1.401663	0.0	0.0
H	-0.116362	0.593608	-2.042056
H	-1.653355	0.120146	-1.258856
N	-0.22813	1.42072	0.548165
O	-0.413851	2.327631	-0.256785
O	-0.108613	1.555385	1.761478
N	-0.527443	-0.908518	0.874577
H	-0.14006	-0.932852	1.799041
H	-0.82184	-1.770823	0.450479
N	-0.482713	-1.525095	-1.814858
H	0.376961	-1.663391	-2.331891
H	-1.265861	-1.746664	-2.415231
Cl	-3.947164	0.0	0.0
