15
Coordinates from ORCA-job run
  C   -0.60865245544299     -0.20331879555104     -0.33886185536381
  C   0.88582943256954      0.17516252346361     -0.21445184455541
  F   -1.29025597322689      0.88982159775882     -0.82956387055467
  H   1.46899873071201     -0.71444024268610      0.03345660350881
  C   -1.23061839773097     -0.61593218459917      0.98082445535994
  H   -1.25105998955859      0.23965953382217      1.65681738582613
  H   -2.25549899280423     -0.93942184812157      0.79756833615284
  H   -0.67175336863181     -1.42933837240002      1.44524833083014
  C   -0.69035126702396     -1.29106446102166     -1.32937414818173
  N   -0.74294399897689     -2.18234879256927     -2.09254663665310
  N   1.04766248588951      1.11391663072049      0.95876211349863
  O   0.77285306017718      2.29216893238603      0.77369335330185
  O   1.38886608444024      0.58424170195268      2.01193288216719
  C   1.38024460548554      0.80334258521343     -1.43149531969415
  N   1.79568004412230      1.27755119163159     -2.42200978564266
