15
Coordinates from ORCA-job run
  C   -0.66472048034559     -0.13317523697250     -0.25492368361134
  C   0.84965664579389      0.16931121917197     -0.33710067183918
  F   -1.35053216250607      1.04216914584772     -0.47677139879824
  H   1.41293453604626     -0.76602368993749     -0.30867793574841
  C   -1.08715629761009     -0.70010378163572      1.08636861453562
  H   -0.94954181982178      0.05624771875692      1.85987246653400
  H   -0.50691402111554     -1.58770749747999      1.34177712312014
  H   -2.14471483994971     -0.96069070528135      1.03817214028483
  C   -0.97389799992215     -1.06940322171049     -1.34974708389607
  N   -1.21328172525898     -1.84355034077561     -2.20011691061004
  N   1.25522625551070      0.93136817607061      0.90379746555616
  O   1.73297301477200      0.25022893530589      1.80594564619954
  O   1.02364507716255      2.13303026000162      0.92233013048873
  C   1.17455985852330      0.94184022329998     -1.52783225736669
  N   1.44376395872120      1.53745879533845     -2.50309364484902
