15
Coordinates from ORCA-job run
  C   -0.56627241414848     -0.34659181128300     -0.50150887187315
  C   0.75970433589819      0.44619622885010     -0.46616744176347
  F   -1.19320533660741      0.13294021925875     -1.64807148817620
  H   1.27953548514271      0.28950810968223     -1.41606442239716
  C   -1.49195611489666     -0.12434276161076      0.67338301663656
  H   -1.69863356410640      0.94255520640469      0.77275707030606
  H   -2.42957962214131     -0.64552513736099      0.47522899076463
  H   -1.05464302699642     -0.50789331297856      1.59292673653563
  C   -0.27402333562700     -1.77145580436733     -0.72274829545904
  N   -0.06004817948394     -2.90674225888555     -0.93386240380633
  N   1.73338466700423     -0.02206892577726      0.60189270977183
  O   2.83416399312568      0.50782679202282      0.56007279396521
  O   1.35201739363010     -0.87720287401749      1.39209748527345
  C   0.51727969774815      1.87038635862650     -0.27170839319870
  N   0.29327602145858      3.01140997143586     -0.10722748657932
