15
Coordinates from ORCA-job run
  C   -0.41024203067401     -0.39020654485784     -0.42733476209246
  C   0.69113768152383      0.60544915979517     -0.01714152563492
  F   -0.15138312977386     -0.71572398066050     -1.74821322562522
  H   0.62067843102977      1.47886825913045     -0.66912860924625
  C   -1.78223554529840      0.24919041851600     -0.33570756498265
  H   -2.52393676098321     -0.45809292834048     -0.70898179423480
  H   -2.02715922436549      0.50755715523489      0.69568093778392
  H   -1.80511743050039      1.14700479888210     -0.95703973050852
  C   -0.35534712350617     -1.62314291552103      0.37336913572301
  N   -0.40103264757105     -2.61495176309535      1.00094314375996
  N   2.04959177729192     -0.00207378255543     -0.29432122490412
  O   2.63560901826201      0.42916240290472     -1.27931020591723
  O   2.42048997461289     -0.88085929654875      0.47375154508958
  C   0.58355448250474      0.97469537105381      1.38515433940377
  N   0.45639252744744      1.29412364606225      2.50827954138594
