15
Coordinates from ORCA-job run
  C   -0.55305044229561     -0.33579827600630     -0.52226725610674
  C   0.78135985759876      0.43830616727324     -0.43577617485486
  F   -1.13302140089692      0.16033519832294     -1.68673712128543
  H   1.33181871423868      0.27903014408742     -1.36789778928464
  C   -1.51599649713670     -0.10889036285883      0.62125106864939
  H   -1.70859835139946      0.96012003663882      0.72494386348806
  H   -2.45430920143230     -0.61239542563774      0.38471686767750
  H   -1.11763669851415     -0.50901129538456      1.55130555211835
  C   -0.27294994652801     -1.76292692791170     -0.74433463057503
  N   -0.06826247897745     -2.89948856251795     -0.95777781261392
  N   1.71050519455992     -0.04781428557283      0.66304866301046
  O   2.81674124026330      0.47222383750489      0.66668037404960
  O   1.29305916064737     -0.90700341437776      1.43034717890062
  C   0.55215371065025      1.86495143695053     -0.24348696218800
  N   0.33818713922231      3.00836172948982     -0.08201582098535
