18
Coordinates from ORCA-job run
  C   -0.92900487796819      0.01196839583092      0.15808105803782
  C   0.57017677217130      0.10963776028978      0.47390970464394
  Cl  -1.79180633583725      1.36894054809821      1.07503430443782
  H   0.67882656663225     -0.08784251892180      1.54900973772990
  N   -1.43307955558403     -1.26221825155979      0.56331963712918
  H   -1.23766302758671     -1.43763258445927      1.54242424031529
  H   -2.43562480598286     -1.30758482055990      0.42180313315911
  N   -1.18655290786304      0.27002196386195     -1.24249796214403
  H   -1.09509959072683     -0.60777871616069     -1.74169416704507
  H   -2.12567385797784      0.62248732098192     -1.37554985701696
  C   1.15012798559260      1.48504353223659      0.16398073235434
  H   2.23631789418546      1.46183007303903      0.28380330732921
  H   0.91783010706492      1.75760086417707     -0.86674567830177
  H   0.75380305980290      2.25687158889217      0.82286532649457
  C   1.32966450639406     -0.96553380378999     -0.30695097128409
  H   2.37800567473049     -0.97200294972673      0.00171778140474
  H   1.30463712983182     -0.74387936712430     -1.37728515095576
  H   0.91411526312095     -1.95992903510516     -0.14422517628824
