18
Coordinates from ORCA-job run
  C   -0.90072785521299     -0.02927616537850     -0.08471252153245
  C   0.58112628390615     -0.01919454386422      0.30928709891155
  Cl  -1.11114854735531      0.97469953841640     -1.62467109484110
  H   0.58065686939743     -0.48649166706868      1.30399452662197
  N   -1.67989717395644      0.66277065158362      0.91730592710713
  H   -1.78843171200073      0.03465885357309      1.70717165866047
  H   -2.59857519116329      0.89133306478661      0.55637544782035
  N   -1.36268956287383     -1.36767897215591     -0.28323320147213
  H   -0.87773960594557     -1.82142457138546     -1.04741795835052
  H   -2.35323632117811     -1.36285977397189     -0.49832501984194
  C   1.13861417323319      1.39379434598241      0.44488985667032
  H   0.44379152594570      2.03276190212454      0.98866151443663
  H   2.08808896735435      1.36281475514689      0.98607499092218
  H   1.32385241033662      1.83618587076670     -0.53567338026429
  C   1.45185688693514     -0.86890988866467     -0.61208112779982
  H   1.20526005844959     -1.93105551982939     -0.55185598625594
  H   1.35810341304071     -0.53750397852856     -1.64981733292091
  H   2.50109538108739     -0.76562390153298     -0.32597339787150
