18
Coordinates from ORCA-job run
  C   -0.87528132957964     -0.19564957099134      0.12250480261898
  C   0.52243766762135      0.36499738604697     -0.16609647578374
  Cl  -0.73327976830001     -1.49667348653777      1.43050872333256
  H   0.31872644305261      1.22819575023040     -0.81509619840426
  N   -1.46111007763797     -0.73175673387954     -1.06641676250196
  H   -2.40114042610712     -1.05724742815812     -0.87181462986491
  H   -0.92706279940752     -1.51243082688160     -1.42750007540693
  N   -1.70445651345586      0.83185710519125      0.71137564438982
  H   -2.00343053710579      1.44898580617111     -0.03692768119066
  H   -2.52540569182994      0.42186493081097      1.14082875563135
  C   1.41055534422891     -0.60744000950047     -0.93728190627538
  H   1.51169566330014     -1.55288254929384     -0.39744410518952
  H   1.03132712860638     -0.80751550396539     -1.94164544237887
  H   2.41078824539870     -0.18283144453613     -1.04983667737444
  C   1.22033689192334      0.86759737598578      1.09328793718141
  H   2.06875669335696      1.49859407494521      0.81512932441122
  H   1.60036257751113      0.03475441883851      1.68783131311802
  H   0.53518048842434      1.44958070552400      1.70859345368730
