18
Coordinates from ORCA-job run
  C   -0.89264232240297     -0.32710062163990      0.24042374677135
  C   0.44335314369825      0.33189100379150     -0.15235505947930
  Cl  -0.56901452707684     -1.66481834883771      1.41864131200949
  H   0.14582129981997      1.14988423693153     -0.82905839916327
  N   -1.61905707953534     -0.96277957758174     -0.84868034359353
  H   -1.73592440661896     -0.28956973772319     -1.59998652395772
  H   -1.11627587551260     -1.76455228671818     -1.20910141297006
  N   -1.71789560121642      0.64160900684807      0.90730174002462
  H   -2.65304470774774      0.25883426819039      0.99171914310846
  H   -1.75980212688192      1.49230716479132      0.35674383826308
  C   1.36383573602707     -0.59961093295741     -0.93385171236420
  H   0.90764947182868     -0.95569341811027     -1.85965145962450
  H   1.64303216675353     -1.46479152289444     -0.32856350815962
  H   2.28071182532940     -0.07045411999168     -1.20413593025478
  C   1.17611512134683      0.94465991969169      1.03920274731461
  H   0.51186502422784      1.56122575368530      1.64374778029943
  H   1.58257057788124      0.15946959463731      1.67955608953168
  H   2.00870228008000      1.56048961788742      0.68804795224425
