18
Coordinates from ORCA-job run
  C   -0.86817766692671     -0.35402068780575      0.21504631811571
  C   0.63240982809269     -0.11972343752624      0.41839247870743
  Cl  -1.22359543783209     -2.09189019008056      0.76585174044038
  H   0.83755162630490     -0.44989172302603      1.44080807235887
  N   -1.24564452594241     -0.15554529455416     -1.14550593821587
  H   -2.24103915062866     -0.30388045543113     -1.26200103912870
  H   -0.75178625208496     -0.78152770014925     -1.76931931716611
  N   -1.63677851645881      0.47344998683612      1.11967715379265
  H   -1.74838593979634      1.38553029329558      0.68998812522088
  H   -2.55548989336252      0.07406575478773      1.26804151444951
  C   0.95616552551500      1.37071353492839      0.31655005241533
  H   0.46291769515284      1.93808818820406      1.10690311470722
  H   2.03330144938526      1.52297671562448      0.42307283675103
  H   0.65089269047289      1.76774975350039     -0.65455525737888
  C   1.49756317952659     -0.92163119247880     -0.55046270813423
  H   2.54554606114976     -0.85668417403839     -0.24875057129822
  H   1.43179738036936     -0.51875588818102     -1.56555560637278
  H   1.22275194706323     -1.97802348390542     -0.56718096926423
