15

C	0.0	0.0	0.0
C	-0.503904	-0.205559	-1.460363
Br	1.958615	0.0	0.0
H	0.359746	-0.315636	-2.121413
H	-0.199353	-0.94333	0.513415
N	-0.543172	1.14708	0.66226
H	-1.561171	0.980219	0.554228
H	-0.339199	1.046302	1.652602
N	-1.263192	0.95164	-1.923937
H	-1.504672	0.768371	-2.893254
H	-2.133152	0.902727	-1.379939
N	-1.224387	-1.48775	-1.444323
H	-2.062316	-1.251989	-0.888293
H	-1.53947	-1.661816	-2.396115
F	-2.951858	0.0	0.0
