15

C	0.0	0.0	0.0
C	-0.193761	0.132077	-1.548059
Br	2.10559	0.0	0.0
H	0.550898	-0.517262	-2.027941
H	-0.217659	-1.018663	0.322968
N	-0.64803	0.929774	0.802436
H	-1.648936	0.592884	0.773482
H	-0.63453	1.808879	0.293752
N	-0.003958	1.542309	-1.896282
H	-0.439992	1.660853	-2.801559
H	0.984421	1.750854	-1.965824
N	-1.496044	-0.263902	-2.031059
H	-1.506872	-1.276698	-2.080786
H	-2.221587	-0.02845	-1.308173
F	-3.030881	0.0	0.0
