15
Coordinates from ORCA-job run
  C   0.44502166682300      0.72915782197126      0.84979283711548
  C   -0.38618108604762     -0.46591586110530      0.41514973971561
  F   1.36893468711265      0.33055647159521      1.75607404225871
  H   -0.80744606751034     -0.88578521293251      1.33083057579651
  H   -0.19072294428743      1.50315694361820      1.28361190910136
  N   1.16121788058805      1.40535150639270     -0.29873928931525
  O   0.42319179854350      2.05115773170921     -1.03616963016113
  O   2.37070962239479      1.27402774097729     -0.38389678268997
  N   0.53747654800665     -1.53334420284024     -0.09958773546122
  O   1.14548985035593     -1.27113492964178     -1.13431727420953
  O   0.59442200094275     -2.58201948115930      0.53493662363491
  C   -1.46135486737416     -0.18787526610708     -0.61709283317517
  H   -2.13606164617713      0.59128583133069     -0.25849343169318
  H   -1.02440368007239      0.13765569892619     -1.55818709030925
  H   -2.04029376329824     -1.09827479273454     -0.78291166060789
