15
Coordinates from ORCA-job run
  C   0.33563852681114      1.01517129474583     -0.11517734463398
  C   -0.27364697475482     -0.33905244040993      0.21870618911503
  F   -0.58120766649711      1.99755448958923      0.04538707490680
  H   -0.28454796739193     -0.49574370906789      1.29821139863128
  H   0.74093642158830      1.04137545285622     -1.12722627545109
  N   1.49397592421461      1.28639767117786      0.81775304309596
  O   2.33047064970852      0.38899674849745      0.84550045828264
  O   1.51030751642548      2.33735962872584      1.43883604248846
  N   0.59956999222794     -1.42779827511308     -0.33433857438902
  O   0.95545424688885     -1.30844404256432     -1.50350881644757
  O   0.82885922543632     -2.38022987859387      0.40147294935256
  C   -1.65821661854559     -0.49689688981955     -0.38751434820372
  H   -1.62182933030592     -0.34460855931250     -1.46731251359369
  H   -2.34217368435931      0.22763019513841      0.05211076126760
  H   -2.03159026144648     -1.50171168584972     -0.18290004442126
