15

C	0.0	0.0	0.0
C	-0.006679	0.140979	-1.546874
Br	2.201713	0.0	0.0
H	0.475868	1.069192	-1.843845
H	0.48831	-0.712162	-2.005663
N	-0.503159	1.090389	0.704008
H	-1.539978	0.898871	0.673754
H	-0.308955	1.947934	0.203003
N	-0.505969	-1.197091	0.494251
H	-0.320889	-1.948319	-0.158265
H	-1.542024	-0.998532	0.506578
N	-1.370733	0.185075	-2.164813
O	-1.859381	1.295057	-2.360936
O	-1.854187	-0.88531	-2.524232
F	-2.749242	0.0	0.0
