15

C	0.0	0.0	0.0
C	-0.4064	-0.021225	-1.512556
Br	2.011017	0.0	0.0
H	-1.473209	-0.219694	-1.553027
H	0.173871	-0.746032	-2.077714
N	-0.267373	1.263234	0.669421
H	0.149763	1.268102	1.590285
H	-1.288975	1.274499	0.74354
N	-0.343967	-1.260065	0.646889
H	-0.017172	-2.063399	0.148191
H	-0.121748	-1.238001	1.623545
N	-0.224138	1.303406	-2.126569
O	0.833575	1.531701	-2.723826
O	-1.150905	2.109971	-2.042914
F	-2.108888	0.0	0.0
