15

C	0.0	0.0	0.0
C	-0.12468	0.121921	-1.545346
Br	2.05295	0.0	0.0
H	0.41212	-0.700819	-2.013963
H	0.288832	1.077202	-1.860664
N	-0.544473	1.037933	0.771271
H	-1.592506	0.832165	0.597446
H	-0.280501	1.939231	0.389422
N	-0.434121	-1.270855	0.455054
H	-1.03044	-1.673698	-0.259186
H	-1.062082	-1.09062	1.227477
N	-1.495503	0.061089	-2.140748
O	-1.925943	-1.058052	-2.411481
O	-2.026015	1.123764	-2.446597
F	-2.731535	0.0	0.0
