15

C	0.0	0.0	0.0
C	-0.126715	-0.016706	-1.548235
Br	2.052949	0.0	0.0
H	0.413108	0.833016	-1.962351
H	0.281063	-0.950716	-1.928819
N	-0.434209	1.235721	0.543654
H	-1.044283	0.998913	1.315092
H	-1.048825	1.673261	-0.134328
N	-0.541246	-1.089612	0.699908
H	-1.589519	-0.879135	0.540032
H	-0.271083	-1.963937	0.262176
N	-1.499106	0.091482	-2.136417
O	-2.030264	-0.943946	-2.523686
O	-1.926806	1.228852	-2.323499
F	-2.731335	0.0	0.0
