15

C	0.0	0.0	0.0
C	-0.479239	-0.125204	-1.451583
Br	1.973456	0.0	0.0
H	-0.105524	0.71497	-2.029532
H	-1.574635	-0.148237	-1.352734
N	-0.480322	1.298992	0.41525
H	-1.507387	1.125495	0.387621
H	-0.208027	1.435956	1.384582
N	-0.452278	-1.147027	0.743687
H	-1.479612	-1.044465	0.649142
H	-0.208109	-1.00206	1.719388
N	-0.03173	-1.355743	-2.142153
O	0.921852	-1.255995	-2.923037
O	-0.646311	-2.399908	-1.927751
F	-2.818606	0.0	0.0
