15

C	0.0	0.0	0.0
C	-0.507523	-0.017102	-1.434102
Br	2.048898	0.0	0.0
H	-0.298557	0.928125	-1.931313
H	-1.60666	-0.156926	-1.235179
N	-0.556413	1.09948	0.706498
H	-0.365861	1.958472	0.200411
H	-1.592381	0.84567	0.602016
N	-0.368671	-1.168717	0.694755
H	0.021934	-2.002949	0.287263
H	-0.149053	-1.064611	1.674035
N	0.016984	-1.069158	-2.328126
O	0.17819	-2.208026	-1.884467
O	0.230882	-0.756145	-3.501606
F	-2.840264	0.0	0.0
