15

C	0.0	0.0	0.0
C	-0.148908	0.096855	-1.544798
Br	2.052947	0.0	0.0
H	0.40953	-0.717058	-2.001801
H	0.235725	1.061772	-1.867869
N	-0.497809	1.178663	0.61141
H	-0.389894	1.045789	1.613886
H	-1.524527	1.047118	0.416632
N	-0.470939	-1.188636	0.614086
H	-1.504521	-1.021669	0.554333
H	-0.228479	-1.999469	0.053222
N	-1.514797	-0.023974	-2.146788
O	-1.908473	-1.16339	-2.387427
O	-2.075706	1.010641	-2.490318
F	-2.730315	0.0	0.0
