18

C	-0.118199	0.030431	-1.534483
C	0.0	0.0	0.0
Cl	-1.78588	-0.313735	-2.13293
H	1.090139	0.0	0.0
C	0.304165	1.419061	-1.985672
H	-0.398353	2.190087	-1.66901
H	1.289539	1.605753	-1.550762
H	0.371852	1.406701	-3.072694
N	0.804279	-0.920763	-2.123163
H	1.692349	-0.736581	-1.631279
H	0.509202	-1.84799	-1.838551
N	-0.498285	-1.201244	0.693309
O	-0.545113	-2.257917	0.065754
O	-0.756955	-1.088614	1.890591
N	-0.604895	1.18276	0.648891
O	0.15442	2.076147	1.021608
O	-1.834924	1.221749	0.720823
F	2.554656	0.0	0.0
