18

C	-0.579115	-0.020316	-1.424157
C	0.0	0.0	0.0
Cl	0.24887	-1.358475	-2.304469
H	1.087078	0.0	0.0
C	-2.076176	-0.314046	-1.495292
H	-2.386748	-0.294942	-2.543059
H	-2.620386	0.454012	-0.943013
H	-2.324069	-1.291769	-1.081003
N	-0.178831	1.198229	-2.10057
H	-0.739498	1.96019	-1.744691
H	-0.340807	1.085741	-3.092446
N	-0.501487	-1.176755	0.768289
O	0.140165	-2.217042	0.671425
O	-1.545686	-1.052136	1.418174
N	-0.434637	1.175809	0.796633
O	0.007826	1.225788	1.939951
O	-1.168026	2.041906	0.301125
F	2.467549	0.0	0.0
