18

C	-0.247127	0.034739	-1.533392
C	0.0	0.0	0.0
Cl	-0.069981	-1.698607	-2.054751
H	1.089501	0.0	0.0
C	-1.605665	0.50278	-2.010096
H	-1.749919	1.548833	-1.742111
H	-1.637146	0.406351	-3.096357
H	-2.400218	-0.093328	-1.562295
N	0.826393	0.761417	-2.163479
H	0.656792	1.746609	-1.980866
H	1.688969	0.514904	-1.649514
N	-0.658707	-1.116124	0.711479
O	0.048822	-1.926736	1.299648
O	-1.890972	-1.161576	0.646126
N	-0.424849	1.238588	0.689956
O	-0.710576	1.155095	1.882185
O	-0.376962	2.297319	0.060143
F	2.538595	0.0	0.0
