18

C	-0.426114	-0.034063	-1.469216
C	0.0	0.0	0.0
Cl	0.032522	1.662076	-2.10849
H	1.087375	0.0	0.0
C	0.481792	-0.98038	-2.238576
H	0.187023	-2.007825	-2.028803
H	0.3948	-0.783176	-3.310579
H	1.504696	-0.811874	-1.889795
N	-1.802017	-0.322364	-1.65009
H	-2.366583	0.370868	-1.17429
H	-2.034644	-0.346136	-2.635423
N	-0.485349	-1.222848	0.70078
O	-1.298097	-1.100891	1.617841
O	-0.015513	-2.289242	0.319988
N	-0.560477	1.142288	0.771344
O	-1.658688	1.603795	0.448845
O	0.103983	1.531219	1.725617
F	2.519926	0.0	0.0
