18

C	-0.339226	0.036351	-1.490077
C	0.0	0.0	0.0
Cl	-2.090206	0.703784	-1.74841
H	1.089115	0.0	0.0
C	0.620957	0.986403	-2.191995
H	0.405828	2.020917	-1.941868
H	1.621081	0.726676	-1.826105
H	0.532829	0.854708	-3.273916
N	-0.199027	-1.260355	-2.036279
H	-0.218052	-1.218082	-3.046074
H	-0.907469	-1.891154	-1.685812
N	-0.515536	-1.169519	0.751243
O	-1.454024	-1.8338	0.297944
O	0.038317	-1.392649	1.823694
N	-0.478552	1.203052	0.724283
O	-1.328316	1.070347	1.60486
O	0.02115	2.271591	0.383415
F	2.519063	0.0	0.0
