18

C	-0.535833	-0.020134	-1.427571
C	0.0	0.0	0.0
Cl	-0.030102	1.628586	-2.135178
H	1.087389	0.0	0.0
C	0.23154	-1.039936	-2.249005
H	-0.087702	-2.041276	-1.962535
H	0.024769	-0.881225	-3.310951
H	1.294643	-0.918766	-2.035096
N	-1.938209	-0.22929	-1.490138
H	-2.255613	-0.226561	-2.451228
H	-2.417884	0.491577	-0.965276
N	-0.47336	-1.218718	0.723083
O	0.04289	-2.280715	0.388147
O	-1.329796	-1.098017	1.600374
N	-0.494076	1.144013	0.822791
O	0.196842	1.438847	1.792569
O	-1.553388	1.704178	0.52522
F	2.506549	0.0	0.0
