15
Coordinates from ORCA-job run
  C   -0.70542420844462      0.07538116044995     -0.26181583351852
  C   0.53080530864173      0.32943868939356      0.59525080223479
  F   -0.76311199677692      1.10681271197738     -1.19842629996847
  H   0.38356573116235      1.29994507190427      1.07940968183937
  H   0.55435153594852     -0.42132089758462      1.39447816612509
  N   -0.58891714545373     -1.15631514742593     -0.97144933286589
  H   -0.18345996021681     -1.88635504295854     -0.40347198748892
  H   -1.50031353651100     -1.44056410181784     -1.30731871024021
  N   -1.97536108010695      0.16926185466691      0.43211754013921
  H   -2.00070310092421     -0.50477578374083      1.18747595573361
  H   -2.08829116021763      1.09691223866359      0.82519769530464
  C   1.83723915088644      0.32903092867669     -0.19115272537063
  H   2.67840438908850      0.58273360057974      0.45833011379937
  H   1.78837046672042      1.06313619361937     -0.99553873559010
  H   2.03284560620391     -0.64432147640370     -0.64208633013333
