15
Coordinates from ORCA-job run
  C   -0.74046255411952      0.03893093884377     -0.26920675385519
  C   0.53551109341174      0.85794813534336     -0.32960799395952
  F   -1.69994813157502      0.73140596188988     -1.03960304290467
  H   0.72561714240410      1.04269113139139     -1.38883690609389
  H   0.34782982887751      1.82753577893497      0.14546456795457
  N   -0.58826982754971     -1.23592704579371     -0.93282181298246
  H   -1.47596627490545     -1.49866389179569     -1.34241442631039
  H   -0.31699365451953     -1.93597689396854     -0.25473350120033
  N   -1.19325154519086     -0.10893686957229      1.07694162428535
  H   -2.08636385783402     -0.58777652928820      1.08842598621762
  H   -1.30479865459918      0.79677677865597      1.51711763671872
  C   1.72157345136404      0.15233084290908      0.31426428535988
  H   1.93717231505466     -0.77991727002311     -0.21095881814461
  H   1.52127500277899     -0.07732555561552      1.36186736589262
  H   2.61607566640224      0.77690448808864      0.26410178902232
