15
Coordinates from ORCA-job run
  C   -0.55007624773980     -0.37109174699094     -0.24708674355631
  C   0.71182475900532      0.42266053282134     -0.53148243294564
  F   -0.18160234705898     -1.73245551981813     -0.17048460705033
  H   0.41259918339419      1.44677984810119     -0.77238482633396
  H   1.13917221770523     -0.01432304085866     -1.43606445797770
  N   -1.16643578649630      0.03842696980351      0.97656602670869
  H   -0.53787251482498     -0.09838505845820      1.75874095736072
  H   -1.99785508628506     -0.51821856763733      1.13867116006955
  N   -1.45297347301997     -0.30403151797292     -1.36941090417344
  H   -1.96987341471441      0.56511111575013     -1.32236290653478
  H   -2.10724421240298     -1.07597853536723     -1.31384555187589
  C   1.72528474952521      0.41136048579237      0.60751185359463
  H   2.66963591374244      0.85285883993979      0.28331652820077
  H   1.37744264998574      0.98993230222142      1.46643591778832
  H   1.92997360918434     -0.61164610732635      0.92987998672536
