15
Coordinates from ORCA-job run
  C   -0.67007856268757     -0.07716699588569      0.21563596725314
  C   0.55416105565018      0.80897363583757      0.07663774822920
  F   -0.61340073841748     -0.67416906931331      1.49442847478001
  H   0.42692145610804      1.41152866378076     -0.82731333748185
  H   0.52571118497115      1.48956401679652      0.92976891780228
  N   -1.87096213258571      0.72063807365579      0.24253188180878
  H   -2.12921796946453      0.95578963930419     -0.70763483460679
  H   -2.61887211018281      0.17820836762232      0.65901841830244
  N   -0.70706597408672     -1.08820556124383     -0.79498611258633
  H   0.10903785526112     -1.68495999448737     -0.73611040151237
  H   -1.53012853949849     -1.66537175991626     -0.66521331782759
  C   1.87387864980646      0.04666445913754      0.03453016116204
  H   2.71661279518693      0.73733448206658      0.10234519388542
  H   1.94416916721277     -0.64700271365534      0.87491765523219
  H   1.99023386272665     -0.51282524369948     -0.89655641444057
