15
Coordinates from ORCA-job run
  C   -0.73291784277680     -0.00139008533661     -0.31018344179537
  C   0.78546618804941     -0.14117183547294     -0.40031564750581
  F   -1.03009926652417      1.31617901588920     -0.66986945382236
  H   1.05266011705461     -1.16480511208993     -0.11165088673683
  H   1.05785900657966     -0.01581597368155     -1.45235719241114
  N   -1.35940537499352     -0.87534810935401     -1.24140127868494
  H   -0.83810589965000     -1.72451408484132     -1.39735743371592
  H   -2.30579699019427     -1.07838853862534     -0.94995122996784
  N   -1.32147594648765     -0.13484961154026      1.00723549780526
  H   -1.02009264647392      0.62187774411417      1.60858742777415
  H   -1.04626051306598     -1.01582481227671      1.42353762251250
  C   1.54152039242013      0.86177492129367      0.46022615978648
  H   1.34422784430758      0.70910690840724      1.52383886715343
  H   1.25503915721457      1.88084652050398      0.19905846708984
  H   2.61838177454036      0.76232305301041      0.31060252251853
