15
Coordinates from ORCA-job run
  C   -0.77817797466669      0.18891881846205     -0.32186260203215
  C   0.59228078555397      0.83838835596390     -0.37950245080832
  F   -1.65691101212376      0.97579410770293     -1.05008740181249
  H   0.85126273385363      0.91836673263423     -1.43735238572140
  H   0.47273857215783      1.84665956442101      0.02251001661724
  N   -0.76943490905897     -1.08361021686168     -1.01808740745316
  H   -1.72249599392476     -1.42319004244665     -1.09154317978160
  H   -0.23526189952722     -1.76389727586497     -0.49218675979413
  N   -1.30074471532582      0.21937195009165      1.03096162393235
  H   -0.78247275861885     -0.42183398797176      1.61828891925064
  H   -2.26868994933829     -0.08371645406489      1.01496252038815
  C   1.67926464860541      0.08579279918386      0.38089570929414
  H   1.45220329757372      0.01215076312841      1.44734400363128
  H   1.83225794411352     -0.91990101181743     -0.01843392849769
  H   2.63318123072629      0.60970589743934      0.29509332278715
