15
Coordinates from ORCA-job run
  C   -0.85132923714652      0.10827277058507     -0.38270554679204
  C   0.52044333163541      0.78108355180924     -0.37839821954079
  F   -1.69043506696760      1.00452298552286     -1.05400778719695
  H   0.36636399925348      1.79641134017279     -0.00236964549452
  H   0.84021287054038      0.87478640127543     -1.42047510426746
  N   -0.82314496561496     -1.11673398123659     -1.09950941750399
  H   -1.55967125697847     -1.73566699333330     -0.79277098850784
  H   0.07331775670243     -1.57468992048157     -1.09745176497288
  N   -1.49486067250330     -0.06444149357350      0.90172679067210
  H   -0.93968163963306     -0.66259823173013      1.49897708345310
  H   -1.62699530825295      0.83090052896612      1.35662115302712
  C   1.58348509106585      0.07245162666079      0.45382485812215
  H   1.28176028662112     -0.01025685402546      1.50039953548916
  H   1.80227242813717     -0.93316888681498      0.08567653695840
  H   2.52126238314101      0.63112715620323      0.43046251655443
