15
Coordinates from ORCA-job run
  C   -0.88435949740548      0.18854706520962     -0.25603169412449
  C   0.51429489618719      0.79542861383739     -0.35556435017204
  F   -1.68255916161983      0.98428649390504     -1.08529932418738
  H   0.73437051550198      0.89329986135167     -1.42234326361172
  H   0.45849935277522      1.80987697452427      0.05031417499155
  N   -1.05499260593658     -1.14352350990980     -0.79472768602725
  H   -0.81400204334181     -1.16298004663231     -1.77837963458892
  H   -0.47411850978730     -1.80464628009897     -0.29650553366676
  N   -1.38593658563821      0.26252020948317      1.06993893014686
  H   -0.67331955112763      0.25540871936534      1.78092436119375
  H   -2.08572216613069     -0.44646035531257      1.23511885918019
  C   1.61473110868881     -0.00467631700244      0.33268663977501
  H   1.69098939330034     -1.01400385478704     -0.07796962624306
  H   1.45839194307010     -0.09049989740612      1.41104954120733
  H   2.58373291146390      0.47742232347273      0.18878860612691
