18
Coordinates from ORCA-job run
  C   -0.69741147173295      0.27867842587466      0.38047215991337
  C   0.80309275385146     -0.04626546625216      0.35128937973785
  Br  -1.31559269588405     -0.20048835688961      2.30243272656831
  H   1.27276147228946      0.61646281112789      1.09914331404594
  N   -0.90454662809220      1.65227276499150      0.13804098375106
  H   -1.88691525347192      1.89479038033985      0.15352084769034
  H   -0.40784945478769      2.23505418480436      0.80095247154297
  C   -1.54138264021355     -0.57952075197382     -0.53616910611614
  H   -2.60362988500500     -0.39171604768202     -0.36678256250258
  H   -1.30455039423058     -0.32582780710588     -1.57254000147823
  H   -1.32939062200020     -1.63213915696726     -0.36327774739982
  C   1.39934958600464      0.27244702813202     -1.01729242049973
  H   2.48851693745353      0.17830289102195     -0.97078497314808
  H   1.03373324579769     -0.43733755985450     -1.76158087989996
  H   1.15232078366459      1.28516559476839     -1.33198101683609
  N   1.02404113876645     -1.45896642887343      0.62967761440055
  H   1.99836380726699     -1.68169050176269      0.46491717722121
  H   0.81808932032331     -1.65922200369925      1.60096203300904
