18
Coordinates from ORCA-job run
  C   -0.66996628801961      0.37279986903497      0.34762224446504
  C   0.74210369441465     -0.23617584603505      0.24309977857060
  Br  -0.71709045119330      1.55252200679268      1.94531748881028
  H   0.94433349721646     -0.73721225207663      1.20049355454871
  N   -0.91227743005497      1.18536457232763     -0.81350676534759
  H   -0.68954237607546      0.60981593360044     -1.62140465162382
  H   -1.88629469974595      1.46113757349273     -0.86024368042377
  C   -1.72252160689193     -0.70200646143800      0.60092628931346
  H   -1.48460590501793     -1.30073243709016      1.48417965917983
  H   -1.78329008496378     -1.35045361015491     -0.27732100947857
  H   -2.70163843371333     -0.24389612214878      0.75580719583538
  C   1.82787863004065      0.79631357116550     -0.01806479476760
  H   1.82886631181405      1.57302427126759      0.74449153317179
  H   1.67376026642667      1.26953934092834     -0.98834318586242
  H   2.80704356788410      0.30765467761168     -0.01104446625227
  N   0.70755049849233     -1.17766156647587     -0.88731455032405
  H   1.64070723871383     -1.29135660415910     -1.26394433067096
  H   0.39398357067352     -2.09067691664307     -0.58175030914405
