18
Coordinates from ORCA-job run
  C   -0.76045606921555      0.17867993956909      0.21447427623678
  C   0.76271505352988      0.18619961087958      0.02698940537052
  Br  -1.21594371811314     -1.61198938436873      1.18865243177903
  H   0.94758116185343      1.15275838791758     -0.46093000085755
  N   -1.12198593277140      1.28338540231435      0.99376342870922
  H   -2.09857241351925      1.28634539305965      1.25407214574973
  H   -0.51482961584202      1.35870675805328      1.80170144695056
  C   -1.55530353669731      0.12088713016430     -1.07316615455495
  H   -2.62377488238858      0.18579208365964     -0.85752043328840
  H   -1.27436024385281      0.97892386644810     -1.69206795550018
  H   -1.37861160447806     -0.80221804948452     -1.62156176453521
  C   1.31122162160089     -0.91913349556002     -0.86842929506249
  H   2.39427476801248     -0.79906255997412     -0.95830035296838
  H   0.89150426713494     -0.88158402984260     -1.87613970550427
  H   1.10958118398281     -1.90388240244526     -0.44298160190864
  N   1.38708822903436      0.26736001601146      1.34756097050916
  H   2.34796320214992      0.57301120540355      1.25309178100692
  H   1.39290852957940     -0.65517987180535      1.76979137786814
