18
Coordinates from ORCA-job run
  C   -0.76038693710481      0.18418103483942      0.21017849315435
  C   0.76423267680268      0.17781563504539      0.03615752355402
  Br  -1.24381661390579     -1.61505927316807      1.15563926385654
  H   0.96438393641416      1.14889670721725     -0.43636795417636
  N   -1.11696661538241      1.28161185639984      1.00203752050326
  H   -2.09559068715376      1.29106473350580      1.25439904804515
  H   -0.51607492958083      1.33810025542358      1.81620691561999
  C   -1.54455281888372      0.15264823364928     -1.08477992880194
  H   -1.37289110282307     -0.76485245405379     -1.64403381967807
  H   -2.61409279020911      0.22644506407988     -0.87758881061484
  H   -1.24905313369206      1.01584577682635     -1.68956382153599
  C   1.30848660713826     -0.92101914588929     -0.86992061495816
  H   1.09155726525912     -1.90909107140674     -0.45998862041308
  H   2.39361113863852     -0.81257611509247     -0.94845331770304
  H   0.89849717014557     -0.86479574892971     -1.88075645279517
  N   1.37777149045551      0.23323063360982      1.36311129658256
  H   1.37221358755607     -0.69540778000425      1.77157063871209
  H   2.34167175632565      0.53296165794770      1.28215264064871
