18
Coordinates from ORCA-job run
  C   -0.72005612170667      0.27777352585523      0.48801340092195
  C   0.77995983690153     -0.06968655132419      0.49732565176919
  Br  -1.40135454521464     -0.00103566825893      2.31567309150326
  H   1.19921258398504      0.46797712205600      1.35231478610392
  N   -0.87226917532237      1.70470879831672      0.22239917631917
  H   -1.80410998506033      1.99972133769224      0.49190570615136
  H   -0.79006103657528      1.85496361804183     -0.77933352670811
  C   -1.53234119477890     -0.62597130398885     -0.42879083730841
  H   -1.19772924967852     -0.49442984994080     -1.46439545237399
  H   -2.58921619963324     -0.35702446466997     -0.37858179875088
  H   -1.42048055531238     -1.67211687509524     -0.14543454108167
  C   1.48612329860782      0.43164696973956     -0.76556002141383
  H   1.07853401842263     -0.03862615858419     -1.66656747574716
  H   2.54455689412476      0.16635856170150     -0.70794767733469
  H   1.41967677343435      1.51554086107565     -0.86711514503757
  N   0.95553120906636     -1.50378466738364      0.71584631775989
  H   1.77212847065578     -1.67537716202521      1.28652392617322
  H   1.09389497808408     -1.98063809320774     -0.16727558094565
