18
Coordinates from ORCA-job run
  C   -0.69366500951655     -0.01089440932465      0.25752817252324
  C   0.83804162663628      0.14130047145819      0.12665247185916
  Br  -1.13434198588357     -1.86470946073847      0.77478297411941
  H   0.96970072541364      1.21745398200688     -0.07588701252863
  N   -1.10999345952477      0.82048150174434      1.37895138109966
  H   -2.09413867460994      0.67546651462190      1.57662472791320
  H   -0.98645988275014      1.79484745404461      1.11519864171568
  C   -1.43830241149487      0.28327122914210     -1.03763399202339
  H   -1.15393270958327      1.28205737600437     -1.38963928996519
  H   -2.51635590470173      0.27402520981730     -0.86269180165304
  H   -1.21353691952387     -0.44076298390904     -1.82067791368936
  C   1.44823421147838     -0.62770690822006     -1.03386413226456
  H   1.06490828262425     -0.29753212635596     -2.00007157163783
  H   1.25542466143978     -1.69897558013226     -0.93218367632200
  H   2.52799300144781     -0.47104926352513     -1.02084300409563
  N   1.57534194370067     -0.14932531009995      1.34426962633747
  H   1.60947578086045     -1.15541520021041      1.47082832660535
  H   1.05160672398741      0.22746750367624      2.12765607200650
