18
Coordinates from ORCA-job run
  C   -0.76278866982327      0.30041709469600      0.34209894165258
  C   0.69487256739456     -0.21718686230511      0.27728944752476
  Br  -0.91402641752007      1.44987940651192      1.93960564220109
  H   0.91782932526162     -0.68887508448825      1.24570424928462
  N   -1.17665530586106      1.09069766556123     -0.79797210227767
  H   -0.95137643379660      0.54064916670038     -1.62385334059333
  H   -0.64444660474693      1.95220332671224     -0.84184745670871
  C   -1.74482490047292     -0.84568947576434      0.52052500606267
  H   -2.74566487875176     -0.44593227301440      0.67914924181688
  H   -1.46934776729779     -1.47599066710086      1.36966576732227
  H   -1.75916684645135     -1.44901185421372     -0.39100175297952
  C   1.71845745597640      0.87539645343944      0.01380495645609
  H   1.58625260464860      1.28065391796082     -0.99229980287595
  H   1.64267822440682      1.68546436602295      0.73820324924047
  H   2.72844246128401      0.46069041264962      0.07692309646519
  N   0.74114635380127     -1.16936109020063     -0.84088047362272
  H   1.69222877396163     -1.25568160808663     -1.17883689342707
  H   0.44839005798685     -2.08932289508068     -0.53527777554166
