18
Coordinates from ORCA-job run
  C   -0.77580635087043      0.21517402929340      0.44319385824289
  C   0.74335066009202     -0.05332113227971      0.43156438497857
  Br  -1.40473050864587     -0.32175521240140      2.27135872197014
  H   1.16128534187602      0.57658925665857      1.23665639531878
  N   -1.13230951177216      1.59929006016017      0.30472403322066
  H   -0.51304221817030      2.20312018114363      0.83232628854821
  H   -1.13293422304402      1.87245505634171     -0.66982047892703
  C   -1.54746361784083     -0.61682729999514     -0.56084977760556
  H   -2.61701069485265     -0.45376996541786     -0.42693568529146
  H   -1.31032407827391     -1.67188568647918     -0.44376032542225
  H   -1.27395549764039     -0.31124421822792     -1.57629650033181
  C   1.37408342019496      0.38000238052845     -0.88838982595721
  H   1.03547706854311     -0.26037616326551     -1.70463635182691
  H   1.15306512935526      1.42159240109433     -1.12475234730735
  H   2.46181190665525      0.28583176720633     -0.82136035918360
  N   1.01863766758066     -1.47312950700939      0.61764005022720
  H   0.74445999156611     -1.75540767715299      1.55127678600773
  H   2.01440551524716     -1.63733827019750      0.52606113333902
