18
Coordinates from ORCA-job run
  C   -0.62557777410740      0.32148267314420      0.31879633668074
  C   0.82294002219669     -0.22549424286099      0.28108174853941
  Br  -0.75264430315372      1.66230622966639      1.76645652461633
  H   1.00830303243838     -0.67685557994207      1.26298897231195
  N   -0.92200560664700      1.02124476732894     -0.91913380597542
  H   -0.96903171352181      0.33482792695611     -1.66611448343658
  H   -1.83208123235226      1.46399446522060     -0.85609509152330
  C   -1.63858061575165     -0.76296753403493      0.67767910478426
  H   -2.63410049501249     -0.32951984411507      0.79058414928672
  H   -1.68849956148969     -1.50411013369570     -0.12596814924992
  H   -1.37486632182870     -1.26724505611790      1.61039328062255
  C   1.87054842156992      0.84664280449272      0.01948573499263
  H   1.89365470493878      1.59207309362923      0.81228856506489
  H   1.65742560503367      1.36029333628251     -0.91993894174290
  H   2.84796819016086      0.36605718404299     -0.04619123231242
  N   1.00976365923259     -1.27639098439185     -0.71660690171545
  H   0.98833969242206     -0.90025160854373     -1.65614153679942
  H   0.33844429587177     -2.02708749706146     -0.63356427414408
