18
Coordinates from ORCA-job run
  C   -0.73784119112130      0.21184530629733      0.45795810336117
  C   0.80165570911723      0.00705002293697      0.47225544231114
  Br  -1.37533913004490     -0.30843916080646      2.28322687741747
  H   1.17693062113470      0.66640058164842      1.26619949719544
  N   -1.15311039629465      1.57650389182945      0.27456443668856
  H   -0.56980217842878      2.21559774873756      0.80242293241984
  H   -1.12911039289980      1.82717551117465     -0.70614001024405
  C   -1.46990920989900     -0.66943293947162     -0.53584117430386
  H   -1.25568997315348     -1.72418506640012     -0.36649875908810
  H   -1.17191062366209     -0.40885266624546     -1.55671823325590
  H   -2.54427374886615     -0.51249967221717     -0.43874232336834
  C   1.42851001894677      0.44690948831319     -0.84913862604257
  H   1.13165663221874     -0.21341302737721     -1.66923860908739
  H   1.16331983997412      1.47058036606362     -1.11555494724460
  H   2.51315904427945      0.38480988511101     -0.75265274044372
  N   1.28366279231926     -1.33047697580095      0.77157023779743
  H   0.87347453288993     -1.66879479641977      1.63321694639890
  H   1.03361765348996     -1.97177849737346      0.02811094948856
