16
Coordinates from ORCA-job run
  C   0.75697501898605     -0.28147670211725      0.39342943502295
  C   -0.69416482487398     -0.54277208459627     -0.03660209849975
  Cl  1.22873907566776     -1.42935750130792      1.61137452155254
  H   -0.70725307646328     -1.56321969958097     -0.42760140030736
  N   0.92489073078773      1.13858768676128      0.92209692725488
  O   0.07740970156618      1.93632404155750      0.52906116880878
  O   1.87967104435746      1.36778607006704      1.64252058656694
  N   1.73820639063339     -0.43184555944995     -0.78284286161327
  O   1.71977602823280     -1.53046093711218     -1.30920076224713
  O   2.43112346094709      0.53224195463845     -1.05951264942003
  N   -1.08354570222443      0.32602205120349     -1.25797542302298
  O   -2.21237788738036      0.79289635264051     -1.24933057034435
  O   -0.25751531421807      0.42550088875808     -2.15577393474093
  N   -1.57417844112087     -0.39973442918839      1.05365081494566
  H   -2.43020386957143     -0.91401546733862      0.90823029475288
  H   -1.79655233532606      0.57352333506521      1.21747595129117
