16
Coordinates from ORCA-job run
  C   0.79060412325200     -0.37738836817921      0.20452873477330
  C   -0.74217615275950     -0.36366575140289      0.17022288630448
  Cl  1.45735395778760     -1.97550732894893      0.27488607858420
  H   -1.07279161495598     -1.13069187216092      0.87392976361242
  N   1.17231936795861      0.37548741805359      1.49747636262418
  O   1.71734651633042      1.45890542387423      1.36686957673482
  O   0.85025944604414     -0.19077001817058      2.52627753004709
  N   1.40605577927349      0.43180360297848     -0.93377776529680
  O   0.67900259202654      1.30010876397353     -1.40160328792421
  O   2.56133725480050      0.19317255658851     -1.23384827191072
  N   -1.23796943203521     -0.87322124822411     -1.19734478915825
  O   -2.45252394706908     -0.80687308920606     -1.34216740702392
  O   -0.42660562490274     -1.30888003959278     -2.00549691010359
  N   -1.28435121997833      0.88205443902000      0.55053586120087
  H   -2.25571025429968      0.79770974408102      0.81234102040575
  H   -1.16115079147278      1.58675576731609     -0.16282938286962
