16
Coordinates from ORCA-job run
  C   0.69745659692254     -0.29448753091070      0.30971490040309
  C   -0.75113040911229     -0.44164965010218     -0.19004568344346
  Cl  1.03599233717846     -1.62304931388948      1.40288163183684
  H   -0.79414706026504     -1.40089877810929     -0.70836858370085
  N   0.94864715484129      1.02902427122216      1.05099885532870
  O   1.67557063898698      1.85757440375340      0.53684919558813
  O   0.31203724446304      1.14121668282989      2.09169971287019
  N   1.69687210510804     -0.41639307054451     -0.83984990447256
  O   1.21969494737978     -0.66614145217844     -1.94054277298048
  O   2.87419294552064     -0.28231962338456     -0.55120394343853
  N   -1.03399935975636      0.59280431078786     -1.26501581436748
  O   -0.47637020457772      1.68010743606725     -1.15605671176580
  O   -1.85775074559252      0.26466103729309     -2.10565434297436
  N   -1.74706136450044     -0.31712577013555      0.80818867355080
  H   -1.42433307292510     -0.02192516829841      1.71482229607264
  H   -2.37667175367131     -1.10039778440055      0.84058249149312
