16

C	0.0	0.0	0.0
C	-0.45592	0.123445	-1.479338
F	1.347931	0.0	0.0
H	-1.307771	0.797945	-1.474858
N	-0.355694	1.264701	0.780419
O	-0.462678	2.312023	0.151158
O	-0.301381	1.174027	2.005275
C	-0.519266	-1.152761	0.732557
N	-0.531783	-2.164088	1.344473
N	-0.799072	-1.221684	-1.943832
H	-1.082028	-1.127681	-2.915417
H	-1.643553	-1.462991	-1.418968
N	0.613608	0.712976	-2.263939
H	1.264225	-0.016738	-2.532289
H	0.214562	1.117946	-3.100286
H	-2.43605	0.0	0.0
