16

C	0.0	0.0	0.0
C	-0.259395	-0.105564	-1.549899
F	1.358464	0.0	0.0
H	0.52756	0.551264	-1.941285
N	-0.68007	1.176138	0.567814
O	-0.67037	2.211187	-0.184816
O	-0.665107	1.268664	1.825037
C	-0.452947	-1.176184	0.758388
N	-0.584919	-2.203047	1.323875
N	-1.573792	0.289008	-2.046499
H	-1.465974	0.41375	-3.053796
H	-1.760604	1.208211	-1.649468
N	0.067098	-1.46856	-1.945131
H	-0.740364	-2.037897	-1.704015
H	0.151943	-1.495541	-2.955586
H	-1.969561	0.0	0.0
