16

C	0.0	0.0	0.0
C	-0.218342	-0.095267	-1.56862
F	1.369351	0.0	0.0
H	0.581421	0.563298	-1.933578
N	-0.383785	1.330349	0.572365
O	-0.34514	2.290709	-0.210189
O	-0.461536	1.430589	1.799111
C	-0.519283	-1.076986	0.822218
N	-0.564199	-2.016956	1.539259
N	-1.428095	0.319906	-2.218079
H	-1.464168	1.330289	-2.134928
H	-2.171667	-0.009442	-1.585957
N	8e-05	-1.501832	-1.891186
H	0.950736	-1.764215	-1.653256
H	-0.121746	-1.586984	-2.892057
H	-2.201539	0.0	0.0
