16

C	0.0	0.0	0.0
C	-0.214425	0.076975	-1.571782
F	1.369457	0.0	0.0
H	0.591337	0.766793	-1.858672
N	-0.39775	1.251526	0.712765
O	-0.48091	1.21568	1.943841
O	-0.354665	2.295625	0.043328
C	-0.513034	-1.16678	0.693597
N	-0.557274	-2.197486	1.272853
N	-1.415521	0.571669	-2.180028
H	-2.170264	0.165539	-1.613272
H	-1.452621	1.563801	-1.9699
N	-0.00608	-1.286418	-2.048779
H	-0.074923	-1.252671	-3.057608
H	0.921245	-1.605187	-1.79336
H	-2.16382	0.0	0.0
