16

C	0.0	0.0	0.0
C	-0.475966	-0.066436	-1.478006
F	1.352827	0.0	0.0
H	0.466737	-0.011555	-2.033893
N	-0.284698	1.333288	0.721257
O	-0.806726	1.304347	1.829122
O	0.185114	2.32094	0.169121
C	-0.451966	-1.096759	0.864828
N	-0.521108	-2.016878	1.59611
N	-1.295575	1.066031	-1.863778
H	-1.526324	0.937117	-2.844435
H	-2.152722	0.927302	-1.300636
N	-1.030176	-1.405146	-1.685137
H	-1.936227	-1.362015	-1.204252
H	-1.208028	-1.50481	-2.680265
H	-2.741032	0.0	0.0
