18

C	-0.409883	0.096018	-1.465671
C	-0.014188	0.119527	0.016062
Cl	-0.01902	1.722153	-2.180279
H	1.063936	0.31447	0.032129
C	0.359566	-0.955379	-2.256423
H	1.419247	-0.899396	-1.993639
H	-0.007866	-1.949174	-1.992689
H	0.213461	-0.800861	-3.326903
C	-1.856899	-0.086146	-1.621347
N	-2.999797	-0.305383	-1.7834
C	-0.241367	-1.239921	0.659157
H	0.469269	-1.965362	0.266782
H	-1.274498	-1.577678	0.530066
H	-0.035622	-1.159285	1.730435
N	-0.823367	1.128033	0.708385
H	-0.508917	2.050251	0.427518
H	-0.632786	1.046829	1.700852
Cl	3.30906	-1.078844	-0.120482
