13

C	0.0	0.0	0.0
C	-0.297198	0.170197	-1.511275
Br	1.962389	0.0	0.0
H	0.115035	1.151759	-1.765867
H	0.290188	-0.575832	-2.054325
N	-0.516525	1.093338	0.750491
H	-1.558901	0.894413	0.587529
H	-0.313614	0.93148	1.732531
C	-0.374151	-1.344713	0.480592
N	-0.564229	-2.420836	0.914364
C	-1.662138	0.109033	-2.055811
N	-2.481337	0.111133	-2.902255
F	-2.620905	0.0	0.0
