13

C	0.0	0.0	0.0
C	-0.522287	0.013692	-1.440067
Br	1.95537	0.0	0.0
H	-1.625755	-0.037148	-1.265365
H	-0.249644	0.978424	-1.87524
N	-0.554228	1.139506	0.660794
H	-1.589557	0.924472	0.541406
H	-0.328027	1.085763	1.649329
C	-0.336553	-1.292286	0.642547
N	-0.556799	-2.318696	1.171772
C	-0.041062	-1.074539	-2.272861
N	0.319979	-1.942047	-2.978335
F	-2.776005	0.0	0.0
