13

C	0.0	0.0	0.0
C	-0.502206	-0.304044	-1.431219
Br	1.951627	0.0	0.0
H	-0.145949	-1.274949	-1.784546
H	-1.60567	-0.304086	-1.248539
N	-0.528478	1.196912	0.575135
H	-0.310566	1.967483	-0.051252
H	-1.562061	0.981265	0.507263
C	-0.377366	-1.147935	0.845717
N	-0.582167	-2.097713	1.505502
C	-0.116438	0.74334	-2.361532
N	0.184551	1.60481	-3.101703
F	-2.746086	0.0	0.0
