15

C	0.0	0.0	0.0
C	-0.452166	-0.395434	-1.406178
F	1.395938	0.0	0.0
H	-1.537085	-0.5085	-1.426916
H	-0.099638	0.362254	-2.100715
N	-0.42915	1.361714	0.20217
H	-0.172389	1.63592	1.146109
H	-1.450127	1.344993	0.162738
N	-0.404328	-1.000174	0.948458
H	-0.185785	-0.654493	1.877287
H	-1.419635	-1.076828	0.880401
N	0.165171	-1.679062	-1.822117
O	-0.396338	-2.720549	-1.494004
O	1.209327	-1.616726	-2.475151
Br	-3.715017	0.0	0.0
