15

C	0.0	0.0	0.0
C	-0.475256	0.014901	-1.443379
F	1.429392	0.0	0.0
H	-0.263158	-0.945901	-1.901634
H	-1.551036	0.233734	-1.435501
N	-0.431638	1.150324	0.709791
H	-0.063241	1.132867	1.650529
H	-0.143464	1.99547	0.235928
N	-0.443362	-1.234393	0.570612
H	-0.166774	-1.248031	1.54641
H	-1.468259	-1.180952	0.553892
N	0.225303	1.030012	-2.270621
O	0.744128	0.648181	-3.318171
O	0.234419	2.198993	-1.882299
Br	-3.81864	0.0	0.0
