15

C	0.0	0.0	0.0
C	-0.455034	-0.144773	-1.45139
F	1.396257	0.0	0.0
H	-1.542243	-0.216153	-1.484393
H	-0.069721	0.70064	-2.01396
N	-0.416482	1.310513	0.433847
H	-0.109623	1.433378	1.396721
H	-1.440066	1.295193	0.439793
N	-0.412399	-1.147513	0.753905
H	-0.190614	-0.98851	1.732143
H	-1.428583	-1.210621	0.675775
N	0.117137	-1.368691	-2.066247
O	1.221131	-1.263349	-2.605928
O	-0.542408	-2.405012	-2.007673
Br	-3.704143	0.0	0.0
