15

C	0.0	0.0	0.0
C	-0.460756	0.131758	-1.448193
F	1.39626	0.0	0.0
H	-1.543334	0.270696	-1.478926
H	-0.143063	-0.753742	-1.991702
N	-0.403347	1.151277	0.757365
H	-0.197261	0.974062	1.73563
H	-1.417851	1.230473	0.670939
N	-0.412645	-1.308902	0.454798
H	-1.434637	-1.296728	0.459114
H	-0.112091	-1.400445	1.421451
N	0.189086	1.290283	-2.114165
O	1.179288	1.052776	-2.809763
O	-0.296993	2.40389	-1.941046
Br	-3.729885	0.0	0.0
