16

C	0.0	0.0	0.0
C	-0.384804	0.189073	-1.472386
Br	1.962316	0.0	0.0
H	-1.405428	0.559339	-1.413709
H	0.287737	0.960103	-1.855733
N	-0.358153	1.251641	0.800643
O	-0.179182	1.222957	2.010308
O	-0.667531	2.241143	0.153725
N	-0.439199	-1.282851	0.696475
O	-0.231811	-2.295291	0.034485
O	-0.845142	-1.260486	1.840955
C	-0.336884	-1.033693	-2.376586
H	0.61033	-1.574286	-2.333184
H	-1.143389	-1.714639	-2.114936
H	-0.492602	-0.690849	-3.405732
F	-2.364291	0.0	0.0
