16

C	0.0	0.0	0.0
C	-0.450985	0.01681	-1.455218
Br	1.945571	0.0	0.0
H	0.11953	0.819314	-1.929145
H	-1.511721	0.282456	-1.347578
N	-0.364794	1.31894	0.685959
O	-0.154533	1.401919	1.888914
O	-0.714966	2.236878	-0.040425
N	-0.448601	-1.200777	0.835583
O	-0.159911	-2.279493	0.323745
O	-0.956944	-1.047171	1.926775
C	-0.304213	-1.274659	-2.244068
H	0.695196	-1.71232	-2.188065
H	-1.027113	-2.008947	-1.894449
H	-0.524474	-1.050842	-3.293267
F	-2.493383	0.0	0.0
