16

C	0.0	0.0	0.0
C	-0.412034	0.217989	-1.460258
Br	1.933842	0.0	0.0
H	-0.283511	-0.753854	-1.937625
H	-1.487482	0.400003	-1.355703
N	-0.420553	1.153225	0.903949
O	-0.246878	1.03056	2.10857
O	-0.779001	2.177049	0.340467
N	-0.477249	-1.355965	0.527517
O	-0.484691	-2.253846	-0.305622
O	-0.700167	-1.491889	1.71564
C	0.322642	1.287753	-2.262341
H	0.363932	2.238487	-1.731938
H	-0.244089	1.450904	-3.185386
H	1.337004	0.99818	-2.545931
F	-2.440655	0.0	0.0
