16

C	0.0	0.0	0.0
C	-0.401147	-0.336236	-1.440908
Br	1.940788	0.0	0.0
H	-1.43838	-0.650234	-1.331852
H	0.233775	-1.177598	-1.728642
N	-0.453328	1.347326	0.555696
O	-0.25267	2.283617	-0.212107
O	-0.863186	1.444692	1.69419
N	-0.372073	-1.161209	0.926242
O	-0.682031	-2.211635	0.384384
O	-0.202683	-1.00559	2.127261
C	-0.295948	0.76808	-2.481421
H	-0.449343	0.311938	-3.465846
H	-1.077877	1.50671	-2.319434
H	0.67045	1.276219	-2.485989
F	-2.401517	0.0	0.0
