16

C	0.0	0.0	0.0
C	-0.423248	-0.104235	-1.467599
Br	1.941385	0.0	0.0
H	-1.478654	0.179144	-1.416989
H	0.163992	0.65179	-1.993178
N	-0.390738	1.366682	0.559824
O	-0.287095	1.543546	1.76504
O	-0.637218	2.233521	-0.267001
N	-0.434928	-1.148897	0.913791
O	-0.901493	-0.937016	2.014008
O	-0.170726	-2.256628	0.454337
C	-0.270697	-1.452347	-2.155465
H	-0.999492	-2.159553	-1.764876
H	0.726715	-1.886731	-2.054671
H	-0.475426	-1.303474	-3.221409
F	-2.439522	0.0	0.0
