13
Coordinates from ORCA-job run
  C   -0.49050688865551      0.67729898207296      0.20142769733821
  C   0.99637605346341      0.36874641170532      0.27112513753646
  Br  -0.90697344379336      1.78515262311519      1.75499089014035
  H   1.25123125623869     -0.21367117710968      1.15485885923025
  H   -0.68747465958717      1.30590519740527     -0.66691404003775
  H   1.59383459306472      1.27897950830069      0.21818425000471
  C   -1.35560975315946     -0.56740949656052      0.18835397558598
  H   -1.15604279185368     -1.14948681069588     -0.71574993971866
  H   -1.15227185845484     -1.19294525737820      1.05990884745133
  H   -2.41272099035006     -0.30039996405410      0.19156281921478
  N   1.36054399681426     -0.45843489114485     -0.91876082504336
  O   1.76925537314953     -1.59996816669167     -0.72142403956400
  O   1.18935911312347      0.06623304103546     -2.01756363213830
