13
Coordinates from ORCA-job run
  C   -0.56434270807660      0.62728442869737      0.22938337281446
  C   0.72290356499532      0.59921154280958     -0.58257579971919
  Br  -0.16429777299458      1.08020682745140      2.08870111595722
  H   0.48489862866874      0.38016675891871     -1.62615286284031
  H   -1.13788067522982      1.47957333274528     -0.14316327715864
  H   1.26552425854556      1.53846960301477     -0.49707753278681
  C   -1.40635972357828     -0.63397182705037      0.16797522829301
  H   -2.35419248672181     -0.47064729128541      0.68209341788702
  H   -0.89786364555230     -1.47794991488706      0.63052065633090
  H   -1.61155039629662     -0.88998807213433     -0.87554592023579
  N   1.65766247767745     -0.47282330470086     -0.13602247909157
  O   1.34294325791217     -1.62936410212787     -0.41491048784094
  O   2.66355522065075     -0.12916798145119      0.47877456839066
