15
Coordinates from ORCA-job run
  C   0.65015926207116     -0.73247200627982      0.42057702779937
  C   -0.54293737310454      0.22389681738288      0.29349918371126
  Cl  0.73637660750793     -1.47021089895079      2.02315294973726
  H   -0.44569133028744      0.94807964643983      1.10831542206839
  H   0.61870326473913     -1.52842848792426     -0.32247223070403
  N   1.91884026428352      0.02615767680623      0.15404003457800
  O   2.50759750641557     -0.25427525218535     -0.88804523310574
  O   2.21882173584706      0.91066869533596      0.94733159717757
  N   -1.82369450901910     -0.44132360153148      0.43479580406038
  H   -1.89321425641895     -0.92293447424721      1.32224127877970
  H   -1.96118888058413     -1.11627578714995     -0.30885894510721
  C   -0.49413051387869      0.95114202503117     -1.04380405292789
  H   0.38210852764711      1.59417158668546     -1.13317853005362
  H   -0.48346247769229      0.24204259981408     -1.87760382021018
  H   -1.38828782752635      1.56876146077324     -1.12999048580325
