15
Coordinates from ORCA-job run
  C   0.74333041565918     -0.26264719307868      0.90243750410047
  C   -0.60959103298455      0.13728798141631      0.31189929396113
  Cl  1.51162439369053      1.05464994501566      1.78714488951374
  H   -1.20997751174297      0.44445939067088      1.18326176455586
  H   0.63252323493290     -1.10096224642521      1.58859650537177
  N   1.66347156805267     -0.77467365096775     -0.17310292772403
  O   2.11345332930228      0.03783820894588     -0.97153771857192
  O   1.85920320980802     -1.98561678748378     -0.17217701198422
  N   -1.11914148371842     -1.04694462711449     -0.36753587924420
  H   -1.90638247533703     -0.80189143048897     -0.95420764551726
  H   -1.42677250933231     -1.75068257506569      0.29285850987715
  C   -0.56147668711837      1.29635795413723     -0.67078516120511
  H   -0.04445695118168      2.16048345356895     -0.25564893347729
  H   -0.05971561551830      0.99539260845004     -1.58968598195367
  H   -1.58509188451197      1.59694896841961     -0.91051720770243
