17

C	0.0	0.0	0.0
C	-0.226056	0.022508	-1.578627
Cl	1.796922	0.0	0.0
H	0.461978	-0.754468	-1.933269
C	-0.266644	1.338482	0.729943
H	0.149528	1.25374	1.739609
H	-1.333783	1.534027	0.789641
H	0.237527	2.160913	0.218509
C	-0.879437	-1.063341	0.544138
N	-0.899945	-2.129935	1.095274
C	0.260566	1.285861	-2.138252
N	0.58222	2.317444	-2.600102
C	-1.574284	-0.29289	-2.239571
H	-2.318013	0.482002	-2.059504
H	-1.969877	-1.231075	-1.856808
H	-1.391169	-0.387547	-3.322375
H	-2.093788	0.0	0.0
