17

C	0.0	0.0	0.0
C	-0.676118	-0.007006	-1.362923
Cl	1.794983	0.0	0.0
H	-1.790557	-0.116423	-0.999448
C	-0.473055	1.18891	0.826994
H	-0.101974	1.103346	1.850019
H	-1.572049	1.150753	0.808464
H	-0.099131	2.117281	0.391906
C	-0.352064	-1.247292	0.704292
N	-0.542792	-2.254976	1.277713
C	-0.275473	-1.147753	-2.163338
N	0.034459	-2.052322	-2.850774
C	-0.55113	1.299604	-2.137788
H	0.484937	1.646261	-2.203712
H	-1.164484	2.066195	-1.659542
H	-0.929961	1.159035	-3.152333
H	-3.030179	0.0	0.0
