17

C	0.0	0.0	0.0
C	-0.228262	0.081819	-1.578038
Cl	1.796828	0.0	0.0
H	0.503916	-0.633702	-1.974221
C	-0.268534	1.297872	0.79605
H	0.258996	2.138097	0.341936
H	-1.332018	1.505677	0.846762
H	0.128521	1.148612	1.805464
C	-0.856078	-1.094258	0.513833
N	-0.883865	-2.150477	1.081558
C	0.184558	1.396644	-2.07692
N	0.461969	2.46112	-2.49162
C	-1.555567	-0.294744	-2.252185
H	-1.356522	-0.372804	-3.331533
H	-2.337804	0.437815	-2.070606
H	-1.900247	-1.257135	-1.878782
H	-2.107562	0.0	0.0
