16

C	-0.383063	-0.097799	-1.493345
C	0.0	0.0	0.0
Cl	-0.058089	1.534052	-2.200354
H	1.091481	0.0	0.0
C	0.476701	-1.092222	-2.27044
H	1.518702	-0.896629	-2.011657
H	0.311778	-0.94888	-3.339587
H	0.216477	-2.10755	-1.986183
C	-1.81426	-0.354649	-1.66821
N	-2.956708	-0.595408	-1.80666
N	-0.376885	-1.176028	0.773917
O	-0.386392	-1.057601	2.004985
O	-0.523137	-2.250084	0.171348
C	-0.502341	1.184493	0.659482
N	-0.860353	2.170656	1.192384
H	2.420484	0.0	0.0
