16

C	-0.381109	-0.031501	-1.488962
C	0.0	0.0	0.0
Cl	0.237832	1.512423	-2.198826
H	1.091551	0.0	0.0
C	0.255828	-1.185268	-2.25324
H	0.101161	-1.027297	-3.322313
H	-0.191631	-2.130746	-1.952433
H	1.319969	-1.195979	-2.011978
C	-1.837572	-0.017156	-1.658554
N	-3.003112	-0.020219	-1.81482
N	-0.40063	-1.22704	0.694809
O	0.17492	-2.264802	0.34232
O	-1.198847	-1.155697	1.640262
C	-0.531262	1.160056	0.68581
N	-0.847393	2.150169	1.237114
H	2.443233	0.0	0.0
