16

C	-0.306137	-0.015968	-1.487476
C	0.0	0.0	0.0
Cl	-2.088083	-0.150531	-1.804361
H	1.09428	0.0	0.0
C	0.215003	1.28207	-2.098456
H	-0.337704	2.13251	-1.69854
H	1.27331	1.365033	-1.82757
H	0.105098	1.253508	-3.183488
C	0.338121	-1.133273	-2.18847
N	0.817701	-1.934595	-2.902281
N	-0.403874	-1.188498	0.72698
O	-0.59129	-1.079019	1.944537
O	-0.396643	-2.257738	0.107822
C	-0.476616	1.194435	0.652386
N	-0.78915	2.216742	1.144997
H	2.385452	0.0	0.0
