16

C	-0.453002	-0.008139	-1.465917
C	0.0	0.0	0.0
Cl	0.483089	-1.204137	-2.439679
H	1.091909	0.0	0.0
C	-1.942948	-0.28311	-1.651848
H	-2.200615	-0.227808	-2.711606
H	-2.166834	-1.278648	-1.274069
H	-2.518261	0.465998	-1.100961
C	-0.133295	1.303043	-2.045324
N	0.04595	2.344897	-2.559444
N	-0.377331	-1.157693	0.770698
O	-0.282728	-1.047955	2.006184
O	-0.581473	-2.232521	0.176058
C	-0.43653	1.201448	0.672259
N	-0.759681	2.218364	1.170415
H	2.328014	0.0	0.0
