16

C	-0.334467	-0.009142	-1.479921
C	0.0	0.0	0.0
Cl	-2.125339	-0.122091	-1.763114
H	1.094238	0.0	0.0
C	0.18687	1.28532	-2.097391
H	0.053996	1.261913	-3.179575
H	-0.349341	2.139547	-1.683393
H	1.250994	1.358727	-1.84847
C	0.283663	-1.131742	-2.194809
N	0.752593	-1.93161	-2.917033
N	-0.393184	-1.189835	0.733715
O	-0.464688	-2.250183	0.100892
O	-0.488634	-1.090963	1.963306
C	-0.461212	1.192626	0.667211
N	-0.760426	2.20947	1.178872
H	2.38625	0.0	0.0
