16

C	-0.394467	-0.052423	-1.487315
C	0.0	0.0	0.0
Cl	-0.011087	1.581743	-2.155305
H	1.09082	0.0	0.0
C	0.434418	-1.059762	-2.280082
H	1.482945	-0.88603	-2.028755
H	0.153648	-2.07207	-2.002257
H	0.266145	-0.907045	-3.347847
C	-1.832481	-0.255795	-1.671256
N	-2.983932	-0.42308	-1.843548
N	-0.371707	-1.197757	0.745819
O	-0.207064	-1.1507	1.96942
O	-0.699084	-2.216035	0.116934
C	-0.489833	1.165235	0.702539
N	-0.865928	2.137152	1.248443
H	2.427214	0.0	0.0
