16

C	-0.38428	0.005246	-1.466741
C	0.0	0.0	0.0
Cl	-2.175076	-0.218053	-1.683704
H	1.096807	0.0	0.0
C	0.015479	1.343884	-2.080176
H	1.082862	1.493112	-1.888619
H	-0.175769	1.329974	-3.154032
H	-0.558647	2.148958	-1.621069
C	0.277957	-1.059531	-2.229228
N	0.818234	-1.795474	-2.969218
N	-0.356419	-1.211482	0.716504
O	-0.364828	-2.265705	0.069318
O	-0.475504	-1.135267	1.945436
C	-0.474772	1.168631	0.69954
N	-0.836741	2.169311	1.202175
H	2.381401	0.0	0.0
