14
Coordinates from ORCA-job run
  C   -0.47196215955388      0.18734199559764      0.13790887355418
  C   0.85618659739980     -0.52590976906995     -0.07611758100458
  F   -0.76755468772450      0.10308533446403      1.49257178506075
  H   1.22894360582484     -0.36669603171833     -1.08890104071939
  H   0.74082650554114     -1.58637899573723      0.14073634098574
  C   -1.58148480135534     -0.50028217898516     -0.63849956384465
  H   -1.65390097513204     -1.54105099615090     -0.31788827844702
  H   -1.38832283817296     -0.46042972502368     -1.71198006442217
  H   -2.52823622378557     -0.00014992706734     -0.43252278562456
  C   -0.41596864483342      1.61286591065038     -0.23075843204411
  N   -0.46852378876600      2.73435123353686     -0.57366793822109
  N   1.89314496210038     -0.01356342531308      0.86783141576948
  O   2.19272350509784      1.17173439924826      0.76164930767830
  O   2.36312894335971     -0.81591782443149      1.66863796127912
