14
Coordinates from ORCA-job run
  C   -0.63377590478065      0.28038562235670      0.33576055307565
  C   0.67765209197191     -0.25780105937121      0.91023542271012
  F   -1.54870866529851      0.12347773418108      1.37747261208839
  H   1.06955610379466      0.41185311313006      1.67753946220647
  H   0.49975383502900     -1.24754250687928      1.32690635181531
  C   -1.12971590791678     -0.50725455145909     -0.85935570449589
  H   -0.47941079760809     -0.35753839355312     -1.72147994461309
  H   -2.13509460483677     -0.17078537375980     -1.11458903882652
  H   -1.16506552220624     -1.56868265325695     -0.60525713331073
  C   -0.56498624432540      1.71990322273212      0.03936788077353
  N   -0.56191191012007      2.87369161104228     -0.17762225963044
  N   1.72591049346926     -0.40111463475167     -0.13732794470070
  O   1.89117656550676      0.55690910801824     -0.88892194544837
  O   2.35262046732090     -1.45650123842936     -0.16072831164374
