14
Coordinates from ORCA-job run
  C   -0.46320814394781      0.21322992189923      0.15296920880231
  C   0.83299847800795     -0.54405232332598     -0.09366914922392
  F   -0.72186571838997      0.14999622672803      1.51626043342739
  H   1.18816873611895     -0.39789924628021     -1.11548049558371
  H   0.68900737033697     -1.60218089543534      0.11752417323700
  C   -1.61586622934911     -0.44920753902586     -0.58280961409933
  H   -2.54049601720212      0.08097896773192     -0.35292232485613
  H   -1.45494711809148     -0.42410236213187     -1.66206781558510
  H   -1.70947489964138     -1.48459645663513     -0.25058976533391
  C   -0.37920455393885      1.63112158108813     -0.23834752881438
  N   -0.40887540011010      2.74157076522577     -0.61778189647123
  N   1.92167251137382     -0.08361372409927      0.82149228968953
  O   2.13034581880297      1.12364376677455      0.87223846941311
  O   2.53274516603016     -0.95488868251399      1.43218401539836
