14

C	0.0	0.0	0.0
C	-0.44239	-0.246488	-1.456198
Br	1.979877	0.0	0.0
H	-1.530962	-0.39592	-1.426387
H	-0.169217	0.582124	-2.105888
C	-0.366101	1.380731	0.343492
N	-0.58046	2.496818	0.641545
N	-0.473453	-0.89524	1.005483
H	-1.486433	-0.736944	1.065789
H	-0.327732	-1.843327	0.675183
N	0.190213	-1.455425	-2.036609
O	0.105083	-2.507671	-1.401889
O	0.74962	-1.338559	-3.125768
Br	-3.603861	0.0	0.0
