15

C	-0.258781	-0.072885	-1.487163
C	0.0	0.0	0.0
Br	-2.246581	-0.96372	-1.765572
H	1.095391	0.0	0.0
H	-0.328872	-0.919096	0.487333
N	-0.244178	1.168268	-2.101435
H	-0.389746	1.12342	-3.09883
H	-0.846931	1.851891	-1.663465
C	0.691668	-1.054907	-2.129906
H	1.687115	-0.742275	-1.782249
H	0.602975	-1.045164	-3.220204
H	0.496789	-2.064381	-1.768212
C	-0.59842	1.152871	0.633037
N	-1.069824	2.117758	1.113519
F	2.598405	0.0	0.0
