15

C	-0.237438	-0.079006	-1.492026
C	0.0	0.0	0.0
Br	-2.264742	-0.670214	-1.882467
H	1.095227	0.0	0.0
H	-0.394496	0.925152	0.428698
N	-0.02986	1.172904	-2.081958
H	-0.142315	1.145245	-3.085533
H	-0.619255	1.890292	-1.682927
C	0.636688	-1.14556	-2.109658
H	1.646113	-0.904545	-1.747507
H	0.348591	-2.13251	-1.747238
H	0.574076	-1.135022	-3.201267
C	-0.475835	-1.146989	0.743656
N	-0.839072	-2.088188	1.346807
F	2.597999	0.0	0.0
