16

C	-0.575734	-0.007325	-1.421552
C	0.0	0.0	0.0
Br	0.352166	-1.364496	-2.491699
H	1.088323	0.0	0.0
N	-1.97727	-0.349236	-1.414565
H	-2.478389	0.377626	-0.9129
H	-2.319737	-0.398877	-2.366716
C	-0.260466	1.271114	-2.082572
N	-0.110046	2.297434	-2.637462
N	-0.507285	-1.193324	0.757267
O	0.053114	-2.253247	0.519994
O	-1.447676	-1.018213	1.528121
N	-0.463532	1.193635	0.778228
O	-1.427738	1.836153	0.358575
O	0.150386	1.417201	1.812592
Br	3.321613	0.0	0.0
