16

C	-0.403056	-0.035517	-1.472875
C	0.0	0.0	0.0
Br	0.215544	1.717692	-2.28523
H	1.088386	0.0	0.0
N	0.251038	-1.15801	-2.024172
H	1.249877	-1.133125	-1.809185
H	0.099672	-1.224933	-3.022938
C	-1.840307	-0.094274	-1.738953
N	-2.972605	-0.194374	-2.034867
N	-0.500399	-1.24943	0.671947
O	-1.662969	-1.218795	1.07675
O	0.27307	-2.192158	0.744702
N	-0.54849	1.127662	0.795074
O	-0.042821	1.265716	1.905056
O	-1.468774	1.790502	0.325274
Br	3.336475	0.0	0.0
