16

C	-0.464752	0.011992	-1.478143
C	0.0	0.0	0.0
Br	-0.08276	-1.748956	-2.294791
H	1.117799	0.0	0.0
N	-1.89135	0.296465	-1.592047
H	-2.419106	-0.471664	-1.147036
H	-2.167931	0.302855	-2.586596
C	0.280303	1.019091	-2.403327
N	0.05149	1.095936	-3.582294
N	-0.470606	-1.203732	0.733892
O	-1.705444	-1.073142	1.148756
O	0.381779	-1.547551	1.682381
N	-0.399101	1.212343	0.741174
O	0.091689	2.295671	0.160245
O	-0.094802	1.116411	2.018639
Br	2.611298	0.0	0.0
