9
Coordinates from ORCA-job run
  C   -0.36299470404698      0.00565938890670     -0.36940950236059
  C   0.68828229036255      0.12795318677051      0.47483782532694
  H   -0.22539763313021      0.21099286192112     -1.42776027648686
  H   0.58632657441447     -0.06059362613720      1.53955422746138
  N   -1.65205785394399     -0.28753444391078     -0.00545834718462
  H   -1.78645229484102     -0.68704321926800      0.90962691060505
  H   -2.23927998099926     -0.68830332768654     -0.71643975585402
  C   1.96530461359586      0.52650998712827     -0.00678801454630
  N   3.02626898858858      0.85135919227592     -0.39816306696099
