9
Coordinates from ORCA-job run
  C   -0.26976459937621     -0.40148575863384     -0.18592742179384
  C   0.60172237344226      0.52150490330517      0.28437878223514
  H   0.09141461906880     -1.19785295781315     -0.83150658151264
  H   0.27841280197095      1.32601385019940      0.93830111268757
  N   -1.59941346723015     -0.48541651457411      0.13791363040291
  H   -2.01961237560187      0.33218827824545      0.55035298097840
  H   -2.19216207549736     -0.96161614438426     -0.51989747111573
  C   1.98223397581528      0.45568190619348     -0.04948364058847
  N   3.12516874740829      0.41098243746187     -0.32513139129334
