9
Coordinates from ORCA-job run
  C   -0.37357840461740      0.07516522494457     -0.35071794772159
  C   0.70549372984035      0.03193588067282      0.46556857496141
  H   -0.26208991773822      0.44937596002256     -1.36509399073881
  H   0.63005131511616     -0.32766039424994      1.48751631213229
  N   -1.65866103940948     -0.24609472933519      0.00317619287312
  H   -2.27675460915857     -0.51141937709551     -0.74408322003161
  H   -1.77683873375304     -0.78819956251267      0.84419065959412
  C   1.97801811780267      0.47739122788287      0.01405737337428
  N   3.03535954191752      0.83950576967048     -0.35361395444321
