9
Coordinates from ORCA-job run
  C   -0.33382359699459     -0.67041476645140     -0.31209437034079
  C   0.98329702800000     -0.39828919464511     -0.13321964151261
  H   -0.62373360152967     -1.64180019803948     -0.70203625837168
  H   1.73512707883292     -1.13487360456500     -0.38131676644611
  N   -1.36612729742339      0.20433559473757     -0.12043981831823
  H   -2.27694851906762     -0.18749403239001      0.04246739130071
  H   -1.16527771733884      1.04336079966740      0.40289737960300
  C   1.38864656784089      0.86291230724365      0.38258547810731
  N   1.65884005768031      1.92226309444239      0.82015660597840
