9
Coordinates from ORCA-job run
  C   -0.33213933862986     -0.58421224912680     -0.45430465562579
  C   0.97188946067807     -0.43262796638794     -0.11184507264603
  H   -0.62658633576274     -1.45282334284422     -1.03642081944568
  H   1.70871264058752     -1.16332646942107     -0.41606198555012
  N   -1.33524938888928      0.30960134172932     -0.20536682732567
  H   -2.27590035108196     -0.04364660625543     -0.19845854846872
  H   -1.14800250116081      1.03242278295059      0.47343088236797
  C   1.38211918540708      0.69256391770105      0.65420064987739
  N   1.65415662885199      1.64304859165450      1.29382637681665
