9
Coordinates from ORCA-job run
  C   -0.42785280387479      0.19838878993783     -0.21604688405640
  C   0.78189730284314     -0.13919878111945      0.28888465485398
  H   -0.48681938441136      0.91641785573419     -1.02975135498680
  H   0.87791485958543     -0.84653520744716      1.10741662383059
  N   -1.64107871721937     -0.22902950609887      0.25947987496647
  H   -1.63470942183115     -1.04069153322186      0.85627214465888
  H   -2.40995647979490     -0.20475963809556     -0.38805403862425
  C   1.97420526122219      0.43844501577497     -0.22728810111470
  N   2.96639938348080      0.90696300453592     -0.65191291952775
