9
Coordinates from ORCA-job run
  C   -0.32853600187558     -0.30221208532891     -0.26367114070331
  C   0.68006777120487      0.35814779527409      0.35233343622145
  H   -0.11915113104036     -0.88606709242874     -1.15617289282968
  H   0.50920225365094      0.94383854210943      1.25085063022558
  N   -1.62404405857166     -0.37699511111253      0.17905729996635
  H   -1.91019651377091      0.30347744366651      0.86466176316829
  H   -2.32445113983928     -0.57933296869588     -0.51326823410424
  C   2.00812062346772      0.29170262213185     -0.15102310996675
  N   3.10898819677426      0.24644085438417     -0.56376775197769
