9
Coordinates from ORCA-job run
  C   -0.30281251442949     -0.33128057736570     -0.25794731080658
  C   0.64420234325241      0.46229387043917      0.29548646201391
  H   -0.00906642433862     -1.26717987185066     -0.72600817407242
  H   0.38900692921030      1.40817330046004      0.76424013945836
  N   -1.63696089461043     -0.03322867347064     -0.36104069127230
  H   -1.98648689653898      0.70312337753625      0.23101818230863
  H   -2.26491872531146     -0.81193220972217     -0.46081199631259
  C   2.01545385300361      0.08775996118120      0.26557838058132
  N   3.15158232976266     -0.21772917720749      0.24948500810168
