9
Coordinates from ORCA-job run
  C   -0.35098657293769     -0.68952408527703     -0.24400264640494
  C   0.97264630071630     -0.39403873549037     -0.20506801681257
  H   -0.66111635156977     -1.68329194062482     -0.55376625114261
  H   1.70934698528053     -1.13453975219285     -0.48481959621407
  N   -1.37440591764487      0.18286919524897     -0.00094498047789
  H   -1.13837814872384      1.05065727067428      0.45668821684520
  H   -2.25962127629286     -0.20939941172501      0.26765667242623
  C   1.40431306257825      0.89714287288112      0.20422608565247
  N   1.69720191859395      1.98112458650570      0.55903051612818
