9
Coordinates from ORCA-job run
  C   -0.32659827043851     -0.51605601963918     -0.53434427652708
  C   0.98657150747543     -0.32884356836507     -0.24955859799071
  H   -0.60248859523033     -1.21723220205628     -1.31650316607657
  H   1.74926829535932     -0.87498799113957     -0.78744890585762
  N   -1.37876814313902      0.04578657935843      0.13293224731102
  H   -2.25320670465753      0.10856188557689     -0.35827439428901
  H   -1.17330875776505      0.83130653488780      0.73176374343337
  C   1.37245178764645      0.58691006753209      0.76721573606931
  N   1.62607888074925      1.36455471384488      1.61421761392729
