9
Coordinates from ORCA-job run
  C   -0.38637033611234     -0.11700375442083     -0.32554493278659
  C   0.74959809941525      0.15349717104652      0.35929882716250
  H   -0.40485060163201      0.01369909720707     -1.40434434690241
  H   0.80674180230112      0.02722812132518      1.43648175537689
  N   -1.53994000848177     -0.63116109303017      0.20873573666061
  H   -2.38815188255034     -0.45430495447764     -0.30144620017303
  H   -1.64430017457662     -0.56982352613115      1.20890447257085
  C   1.91797475925913      0.60123698226724     -0.31625485777611
  N   2.88829834237759      0.97763195621377     -0.86483045413271
