9
Coordinates from ORCA-job run
  C   -0.33535301985700     -0.61948046678834     -0.40244165506562
  C   0.97476018820008     -0.27084561949575     -0.34742574197037
  H   -0.62202502526442     -1.51185171610105     -0.95125329894024
  H   1.72403973856963     -0.86802102946658     -0.84876447994574
  N   -1.37753631430632      0.09880006583815      0.11242259269122
  H   -1.15144459624335      0.82689910006725      0.77356484609693
  H   -2.22931417235687     -0.39793916424565      0.30518191609298
  C   1.37479728403270      0.88839794740263      0.37160486173759
  N   1.64107591722556      1.85504088278934      0.98911095930326
