9
Coordinates from ORCA-job run
  C   -0.40022454363780      0.01258634232861     -0.32907203529423
  C   0.76603883989125     -0.02231790414311      0.35746860851118
  H   -0.41611765695279      0.42000152737466     -1.33656339229938
  H   0.82000593222675     -0.42978786999216      1.36277613945783
  N   -1.59683729989435     -0.50163265179790      0.09970445858013
  H   -2.42646172432768     -0.11395804058086     -0.31549915611716
  H   -1.68333636022409     -0.69097842613382      1.08546738712151
  C   1.96900173291463      0.46186431102191     -0.22563822427001
  N   2.96793108000407      0.86522271192267     -0.69864378568988
