9
Coordinates from ORCA-job run
  C   -0.34509956346819     -0.70433085246006     -0.20738767193308
  C   0.97735977112956     -0.42521434399965     -0.08749510869086
  H   -0.64765044267633     -1.69165785226401     -0.54390548570284
  H   1.72068375613333     -1.17612019372596     -0.31751717104270
  N   -1.37382291086630      0.12737707720017      0.13491664796685
  H   -2.26583152395828     -0.04139122943604     -0.29573542760060
  H   -1.14899977946362      1.10034680175446      0.27974873471268
  C   1.39937948336711      0.86264341344739      0.34209727835104
  N   1.68398120980271      1.94934717948370      0.69527820393950
