9
Coordinates from ORCA-job run
  C   -0.34313382256188     -0.71015292643376     -0.18984810111923
  C   0.97892027819181     -0.41238792637703     -0.12287402373987
  H   -0.64481211285107     -1.70390274763562     -0.50801906567857
  H   1.72299323974536     -1.15513364103546     -0.37579994884665
  N   -1.36931874304249      0.10968518440234      0.18746456757947
  H   -2.27403928997463     -0.07381471101849     -0.20937135982762
  H   -1.15240435687972      1.08669147936657      0.31631729450825
  C   1.39912949104051      0.88362596846147      0.28315587650838
  N   1.68166531633209      1.97638932026998      0.61897476061585
