9
Coordinates from ORCA-job run
  C   -0.33501140931149     -0.35262306073826     -0.64923181132456
  C   0.98382067574102     -0.20457398136375     -0.36695015117586
  H   -0.62578838526921     -0.89394084285972     -1.54485082758800
  H   1.73664663159143     -0.61283619339365     -1.02720623257228
  N   -1.37114834049832      0.19065810804922      0.05656880861315
  H   -1.16399278173015      0.54347347014644      0.97889786725434
  H   -2.27227668949866     -0.24358978955248     -0.03827188694438
  C   1.38961389821551      0.49446404115506      0.80249060292228
  N   1.66013640075986      1.07696824855713      1.78955363081531
