9
Coordinates from ORCA-job run
  C   -0.34240984095327     -0.67874496775570     -0.28370982189991
  C   0.97932317331865     -0.39427796132716     -0.17098844615100
  H   -0.64313888788793     -1.65908625168089     -0.64186944955373
  H   1.72523457964670     -1.13011628667150     -0.43842884312974
  N   -1.37136789557138      0.19284791416018     -0.06143244813511
  H   -1.15273497648605      1.04256207607025      0.43697445688178
  H   -2.27018544567614     -0.20252469139835      0.15227724938789
  C   1.39763499795163      0.87964137735215      0.30137683377764
  N   1.67864429565778      1.94969879125103      0.70480046882219
