9
Coordinates from ORCA-job run
  C   -0.36318223259347     -0.12930456798484     -0.34694898294988
  C   0.72296719092797      0.16880151318344      0.40419283638294
  H   -0.30812645511834     -0.03421980641508     -1.42830706703412
  H   0.70674443363340      0.07850981100330      1.48641508245019
  N   -1.54870317595303     -0.63204051849982      0.12474332792674
  H   -1.71982919215273     -0.53636275561657      1.11311078968674
  H   -2.36127231516196     -0.47401803865855     -0.44616627132836
  C   1.93370400347216      0.59835069825648     -0.20492197824084
  N   2.93769774294599      0.96028366473165     -0.70011773689343
