12
Coordinates from ORCA-job run
  C   0.71831873507489      0.37764383747792      0.36309992847124
  C   0.03980695643223     -0.88720036841684     -0.22141918646844
  Cl  2.38848762119564     -0.03393007742220      0.86861543300450
  H   0.66216099089548     -1.22495648197499     -1.05466484774746
  H   0.07364761528320     -1.65413768452511      0.55756766948176
  C   -0.03599932843759      0.84099347325848      1.52781444879401
  N   -0.65783246744322      1.15691413757971      2.47299297544288
  C   0.76879296299961      1.42239623129436     -0.65965795654810
  N   0.81337846038854      2.21957129129752     -1.52122114085814
  N   -1.30052285915122     -0.53990851235265     -0.62247879718527
  H   -1.46057893853531     -0.65259587499597     -1.61091904954345
  H   -2.01065974870224     -1.02578997122024     -0.09772947684354
