12
Coordinates from ORCA-job run
  C   0.63637082403309      0.37233215671067      0.28459075405706
  C   -0.35311565152352     -0.33539813644331     -0.66875636710293
  Cl  1.84489967514526     -0.82235631254728      0.86222792875248
  H   -1.03085691186749      0.43569326640149     -1.04593423187203
  H   0.23833211829345     -0.71159821672168     -1.51291490701922
  C   -0.07666886501813      0.92377573393761      1.43705560158153
  N   -0.66571938151808      1.39871991795831      2.33526591134836
  C   1.33918039034470      1.43893117994824     -0.43126252391188
  N   1.86626409760482      2.28052687975386     -1.05930268986838
  N   -1.09578391179860     -1.33372626567743      0.06149364547343
  H   -2.04655636193689     -1.40385874160938     -0.26868741064797
  H   -0.65834602175860     -2.24204146171110      0.00822428920955
