14
Coordinates from ORCA-job run
  C   -0.88415007745860     -0.05147644152757     -0.71578863948614
  C   0.57230292056527      0.27358791474253     -0.39271730552253
  Cl  -1.58768161188913      1.18138071421049     -1.73686385533326
  H   1.04789398731944      0.56733099718475     -1.33078685572944
  H   -0.96142399442564     -1.01465523741178     -1.21827769745872
  N   -1.65811697621709     -0.20631312939667      0.58082933992344
  O   -2.78909984912385      0.23623564663680      0.67277474668239
  O   -1.04374505597045     -0.84061919019560      1.43735096509906
  N   1.29587944062015     -1.04944170605642     -0.04302797540607
  O   1.11693403034434     -1.98218699584516     -0.81892379696826
  O   2.02696369617259     -1.04669221550047      0.93670737310575
  N   0.71002262119433      1.29066672551691      0.57108066447676
  H   1.63394160211452      1.69685840756694      0.55483699152150
  H   0.52027926675410      0.94532451007526      1.50280604509553
