14
Coordinates from ORCA-job run
  C   -0.94903567091783      0.38846507927999     -0.04907990024848
  C   0.48709014556935      0.04421892519443     -0.42279677412635
  Cl  -1.02633829285989      1.36878815800823      1.39886745503008
  H   0.45846054284244     -0.71897881244548     -1.20233152637412
  H   -1.38173475681061      0.94667237722703     -0.87835261628732
  N   -1.79904673348903     -0.87148037385985      0.05909940522301
  O   -2.41334550044390     -1.10403658686064      1.08406657606134
  O   -1.79757636922981     -1.53238302996276     -0.97327987721714
  N   1.13111307337989     -0.66372271982092      0.78293286071846
  O   2.15866180101774     -0.18154482747365      1.24341780278700
  O   0.55395820898748     -1.67173059618043      1.17641346114993
  N   1.17769110008809      1.19467834406695     -0.86159391813488
  H   1.32306840496898      1.84897284041666     -0.10316128996843
  H   2.07703404689710      0.95308122241044     -1.25420165861310
