14
Coordinates from ORCA-job run
  C   -0.80952615260459     -0.58819830352165     -0.03960933333904
  C   0.44273934034880      0.23225999526188     -0.29923996511278
  Cl  -1.19986733394759     -1.63692212128565     -1.39135387208718
  H   0.33907320988145      0.78847926615126     -1.22991796091385
  H   -0.72045156430970     -1.18544695543003      0.86578477256729
  N   -1.92770100396304      0.39213526646595      0.19867618988121
  O   -2.17772993952882      1.17257503847379     -0.70959057985850
  O   -2.47030319826728      0.33151174794664      1.29604334959161
  N   1.57392629649697     -0.76073501479432     -0.53113679935198
  O   1.83767538332548     -1.49282955225110      0.42146053172739
  O   2.14714539234774     -0.73476172170222     -1.61493370142498
  N   0.67150660840150      1.09517504574907      0.80202859475571
  H   0.93436333307277      0.58088197664436      1.63363777421861
  H   1.36014962874632      1.80587533229203      0.59715099934648
