14
Coordinates from ORCA-job run
  C   -0.78715364224224     -0.56645446124201     -0.07671555503365
  C   0.53464554690712      0.15679460216049     -0.33173398672839
  Cl  -1.29223963458292     -1.52147121411707     -1.45797250165914
  H   0.48469947578295      0.68941526363284     -1.28044136667485
  H   -0.73217581185289     -1.20023773209466      0.80599878258343
  N   -1.79462766288406      0.50776322793089      0.22661301609837
  O   -2.04581463013212      1.30366333365085     -0.67044217302100
  O   -2.22665210052963      0.53263675145176      1.37592691396300
  N   1.58078704591903     -0.91680342685246     -0.49686723067370
  O   1.72652778542112     -1.65819112873875      0.47209840517402
  O   2.21040965485894     -0.94752512108489     -1.54679362100973
  N   0.96194978633775      1.02077626793816      0.71609500315342
  H   0.59068565777034      1.95415437374423      0.62392350889590
  H   0.79095852922660      0.64647926362056      1.63931080493226
