14
Coordinates from ORCA-job run
  C   -0.84454059573319      0.45542149726591      0.04372011716264
  C   0.55503451001020     -0.00458082935150     -0.40124351968310
  Cl  -0.81255691124612      1.30559715684578      1.57115428173362
  H   0.41959176060528     -0.64678703614058     -1.27260063372895
  H   -1.24439578234840      1.11883171021368     -0.72290977422947
  N   -1.80384594332417     -0.72675674356481      0.05851114112312
  O   -2.29254102055837     -1.10377534387178      1.10877995243849
  O   -1.98404101129331     -1.19703127991610     -1.06010005427949
  N   1.09417000089139     -0.90542960882480      0.69101896197315
  O   0.55112995591805     -2.00435948418052      0.77615693856138
  O   1.97893772416110     -0.46589631192843      1.41188812513177
  N   1.49632743668058      1.01771196737763     -0.68055493665410
  H   1.32864665651715      1.44939563884850     -1.57766789353751
  H   1.55908321971981      1.70865866722702      0.05384729398841
