14
Coordinates from ORCA-job run
  C   -0.88557344289695      0.34635675775393      0.13904164758216
  C   0.56117626452431      0.16868700124587     -0.35550413274975
  Cl  -0.96848835991992      0.67568231724639      1.85406600897909
  H   0.50688410876939     -0.17513247087653     -1.38939718382890
  H   -1.33015922589776      1.18035821176102     -0.40369564001225
  N   -1.72634719313325     -0.85763024161983     -0.26125014092848
  O   -2.19557518883772     -1.58614121644305      0.59517909938732
  O   -1.83951854933128     -0.96640755381850     -1.47784605118140
  N   1.16005212718861     -0.98167492849724      0.42700096365663
  O   1.97864760219145     -0.71794874400519      1.29665423688067
  O   0.72490829844073     -2.09336542877595      0.13651131931484
  N   1.40702848998813      1.30165850714310     -0.25362349625129
  H   1.21247416534498      1.98297536792504     -0.97286101792917
  H   1.39349090356929      1.72258242096098      0.66472438708055
