14
Coordinates from ORCA-job run
  C   -0.93411542539400     -0.11439323102802     -0.61244857712925
  C   0.54646112387349      0.24085110429593     -0.51460758473243
  Cl  -1.84896825112288      1.15482941755468     -1.41024031502567
  H   0.94120619655266      0.20032707697532     -1.53412562382714
  H   -1.07319590392137     -1.03778990316096     -1.16696523539792
  N   -1.54206973406453     -0.38398921077091      0.74519374522407
  O   -0.93914352145863      0.03279411023914      1.73247580273318
  O   -2.59552862879568     -1.00432491664602      0.74477293558912
  N   1.22738083622313     -0.97687023159266      0.17114620285943
  O   0.84916260101904     -2.08804963422993     -0.19168944376428
  O   2.11284490588906     -0.73941900782257      0.97987170697052
  N   0.84121759695630      1.48210502704168      0.06819491181716
  H   1.80910123239401      1.73550075298403     -0.06248968108616
  H   0.60564697184942      1.49842864616035      1.04991115576941
