14
Coordinates from ORCA-job run
  C   -0.82340165631268     -0.35213671474762     -0.49397245158620
  C   0.52704646961108      0.21768803337214     -0.10437166085862
  Cl  -1.12116169651045     -0.17375631437654     -2.21925513866032
  H   0.69165928781013      1.18083600087904     -0.59689884024976
  H   -0.90728905745795     -1.39857639903830     -0.21608035381418
  N   -1.90300498157492      0.38711830542328      0.24860466329734
  O   -2.88453499441448     -0.26684096553305      0.57685161421110
  O   -1.72503864855851      1.58893757177652      0.43831625019924
  N   1.61027907115230     -0.68970559053793     -0.63546528954201
  O   2.72914189875457     -0.18456095979400     -0.66708854423823
  O   1.32255637969738     -1.83841210691431     -0.95139853643428
  N   0.67234886789558      0.20379002786573      1.33349877869100
  H   1.65029675253505      0.33586986513223      1.56771085055161
  H   0.16110230737295      0.98874924649277      1.71954865843328
