14
Coordinates from ORCA-job run
  C   -0.80156296647778     -0.02967209843065     -0.70613562621520
  C   0.68457304268748      0.23611634868552     -0.39163174207759
  Cl  -1.53956543747601      1.39935332824924     -1.40488247351099
  H   1.19229546622193      0.36478145878616     -1.34839072784943
  H   -0.91500930272252     -0.86852454911066     -1.38937490779154
  N   -1.51275756089301     -0.43019494089743      0.56003611054635
  O   -1.68146968418410      0.43540101118152      1.41227818534710
  O   -1.81205580134047     -1.61747538178552      0.64670163369658
  N   1.18812275115984     -1.09601928503373      0.14513497489412
  O   1.27863966295321     -1.21117621585853      1.36065331576108
  O   1.40304166600115     -1.96286402786212     -0.69767903876142
  N   1.02876438883739      1.27912691361889      0.49560889266841
  H   1.07100499583863      2.16894703216456      0.02184999686965
  H   0.41497877939425      1.33320040629275      1.29683140642289
