14
Coordinates from ORCA-job run
  C   -0.96773478242008      0.32672194781578     -0.09751093327308
  C   0.52818964519869      0.16352892912600     -0.33585481298870
  Cl  -1.30569883720781      0.97194200801790      1.49391780376999
  H   0.66153371997986     -0.41929617907199     -1.24872899207985
  H   -1.34742331626028      1.01802673968301     -0.84879480904628
  N   -1.70600674207506     -0.97980085878494     -0.36092007991805
  O   -1.52129102145749     -1.40576137062339     -1.49546001457266
  O   -2.41475255945223     -1.46240953249208      0.50323577220833
  N   1.08758779533296     -0.73867012266385      0.77892706390528
  O   2.00304579708105     -0.29781656267285      1.46295169803769
  O   0.56150444207598     -1.84191485800284      0.88118883633943
  N   1.15673498671853      1.42363977437340     -0.43790920831555
  H   2.11478688854377      1.33064133633135     -0.74576562549397
  H   1.15052398394210      1.91016874896451      0.44972330142741
