14
Coordinates from ORCA-job run
  C   -0.88690916528226     -0.01610236221239     -0.71459506492443
  C   0.57836548449183      0.26463755570021     -0.38989578060101
  Cl  -1.55949887751136      1.25201326503980     -1.71301794563244
  H   1.05999409921599      0.56113465952227     -1.32400398644541
  H   -0.99104634882681     -0.96826022456495     -1.23296535452092
  N   -1.66156647757126     -0.17178014794628      0.58166054839139
  O   -2.77941422585703      0.30072246871698      0.68472865898910
  O   -1.06272832856491     -0.83733314475032      1.42532375060917
  N   1.26739433066632     -1.08266368935659     -0.06410047879680
  O   1.06216876298123     -1.99715043095438     -0.85505727424002
  O   2.00052477450083     -1.11552490534921      0.91357837495731
  N   0.74474771556345      1.26149780514213      0.59047553819692
  H   1.67856871387619      1.64452031931432      0.57792312075111
  H   0.54939954231779      0.90528883169847      1.51694589326604
