14
Coordinates from ORCA-job run
  C   -0.97128743555009      0.29618790191499     -0.15119485249451
  C   0.53587506122469      0.15773726302635     -0.32523166180327
  Cl  -1.38298546097340      1.02542305325750      1.38580947070143
  H   0.71718401725853     -0.47244819705025     -1.19757131582108
  H   -1.33945959512127      0.93198661415096     -0.95536731077008
  N   -1.66794716744724     -1.04235530369015     -0.36185679471870
  O   -2.39642423263741     -1.49130845942417      0.50397976588798
  O   -1.43145809998026     -1.52940122580335     -1.46164823750211
  N   1.07349201344249     -0.66406472440606      0.86004493085032
  O   0.57074925090196     -1.77290088959661      1.00769742204444
  O   1.95414264932799     -0.16187906273002      1.54751722096149
  N   1.13873782972614      1.42498949321420     -0.47848039215972
  H   1.09104523854035      1.96215662081049      0.37801768786020
  H   2.10833593128757      1.33787691632610     -0.74971593303641
