14
Coordinates from ORCA-job run
  C   -0.79480370610119     -0.55454694662821     -0.08257776642950
  C   0.54445706646035      0.14067686454771     -0.32364139768101
  Cl  -1.28955198259769     -1.52798248392607     -1.45472919825592
  H   0.52386059029390      0.65446792216957     -1.28367849411663
  H   -0.76958303056461     -1.17139499828608      0.81342483900536
  N   -1.78873134935311      0.54307887898255      0.17873041625369
  O   -2.00302132584908      1.32804723403314     -0.73741284402094
  O   -2.24621132271769      0.59686051796851      1.31710899674300
  N   1.57508976955120     -0.95372938228329     -0.44456124125362
  O   1.68703078679708     -1.67793907669264      0.54167091343495
  O   2.22412634574829     -1.01825583188778     -1.48112028736686
  N   0.96314953101159      1.01852436651869      0.71597950789017
  H   0.76602140000076      0.66559237165747      1.64241934839338
  H   0.60916722732021      1.95560056382643      0.59738720740395
