14
Coordinates from ORCA-job run
  C   -0.83576697346770     -0.04498242620280     -0.75129884326155
  C   0.61004416725010      0.19938709671183     -0.33221721583390
  Cl  -1.42964562081878      1.30768004296607     -1.69819793811516
  H   1.17768448545854      0.46039699139472     -1.23638161128071
  H   -0.92582119655192     -0.95968473855608     -1.33270188316301
  N   -1.64772141885998     -0.25230691761080      0.51230427644079
  O   -1.33656024546299     -1.28087610833208      1.10188643514459
  O   -2.47997289251305      0.57137565789143      0.84716486215785
  N   1.23476638180149     -1.12074606723371      0.08647487213193
  O   1.10690896918694     -2.03920938021516     -0.71323446683865
  O   1.87511797328558     -1.14394884087847      1.12850598834287
  N   0.65880168914244      1.12160476582694      0.75761114805848
  H   0.41929072721558      2.05322172083426      0.44317963397343
  H   1.57387395433374      1.12708820340387      1.18690474224304
