14
Coordinates from ORCA-job run
  C   -0.73215394993606      0.00877618128127     -0.77904625483975
  C   0.73288544366038      0.18256466790835     -0.32853519978530
  Cl  -1.30190419652322      1.46953891431413     -1.56433496240496
  H   1.33461640355557      0.26054676823532     -1.23493871588009
  H   -0.83683848706648     -0.83428637368278     -1.45851290164565
  N   -1.58425438609886     -0.31830083744445      0.41932837285319
  O   -1.96384354173389     -1.48307761573293      0.49685129922077
  O   -1.77902852493512      0.57525274015621      1.23631222658582
  N   1.09533552534594     -1.16771674917119      0.27075525313717
  O   1.06511834558947     -1.26436201219074      1.49090375392327
  O   1.32960043700176     -2.06340920647696     -0.53595481427869
  N   1.06149019121065      1.21782948945090      0.57444645474044
  H   1.19283408934550      2.09651756000000      0.09592952303361
  H   0.38514265058434      1.31912647335284      1.31879596534020
