14
Coordinates from ORCA-job run
  C   -0.89633507662145      0.31819967645866     -0.13806676730747
  C   0.61743358506386      0.08244071561578     -0.28586184234797
  Cl  -1.29918900922380      1.16643351430612      1.33667643231179
  H   0.75693375979889     -0.57255531126031     -1.14703787862380
  H   -1.23349572686563      0.90856338642867     -0.98981989061542
  N   -1.64578192602698     -1.00034308820471     -0.27113203867930
  O   -1.53101315303368     -1.49320045064828     -1.38864050106478
  O   -2.26369267427431     -1.44990066075131      0.67766467606167
  N   1.06087609096301     -0.72426666659288      0.91731100810470
  O   0.69193422400781     -1.89616878656095      0.92545460869245
  O   1.69912840360366     -0.14936642233921      1.78802522245328
  N   1.42771298216894      1.23904601910057     -0.40552627195195
  H   1.23986221319888      1.92864979261807      0.30845345448125
  H   1.37562630724082      1.64246828182979     -1.32950021151446
