14
Coordinates from ORCA-job run
  C   -0.81700332498938     -0.04776333147207     -0.68786747826322
  C   0.67330746640282      0.23706688007014     -0.41104327379078
  Cl  -1.58331031242935      1.36417622563783     -1.39090893076965
  H   1.15654083620285      0.35938498121388     -1.38125072543338
  H   -0.93681209096282     -0.89778879936324     -1.35611927512209
  N   -1.49570897404214     -0.43607233755453      0.59976875125836
  O   -1.65977069798622      0.44182100100673      1.44016312411489
  O   -1.77470709463080     -1.62604873553512      0.71322571739957
  N   1.20482498225921     -1.08102629903946      0.13110058747127
  O   1.41217331280531     -1.95669911874488     -0.70432336384806
  O   1.32324130422211     -1.17838538005696      1.34585024360424
  N   1.02732344746275      1.29526750747500      0.45521878640913
  H   0.43779429242130      1.34522167280973      1.27483350553120
  H   1.03310685326435      2.18084573355295     -0.02864766856149
