14
Coordinates from ORCA-job run
  C   -0.90079818746742      0.32481981804209      0.07890677159835
  C   0.57558343998378      0.17334467009067     -0.32857654864027
  Cl  -1.08867752837521      0.70675279548436      1.77470476153774
  H   0.58900289245095     -0.20607247817002     -1.35126299293458
  H   -1.33683314160452      1.12752006443098     -0.51542358773243
  N   -1.68530122763423     -0.91534929029154     -0.32607952497092
  O   -2.18251384927609     -1.62896949384201      0.52694091588395
  O   -1.72673964631598     -1.06628633310898     -1.54279952893343
  N   1.16051606935612     -0.93343714446882      0.52525151912720
  O   1.92236546989257     -0.61846425326856      1.42859965975232
  O   0.77133660678093     -2.06584054514574      0.24967314903263
  N   1.38218895883746      1.33332117454377     -0.21946609417449
  H   1.29819300063742      1.79151436361410      0.67690731661801
  H   1.22167714273424      1.97814665208968     -0.97937581616404
