18

C	0.0	0.0	0.0
C	-0.234902	-0.00851	-1.545394
F	1.430831	0.0	0.0
H	0.187788	0.926955	-1.932067
N	-0.436727	1.223229	0.628742
H	-0.300905	1.130575	1.632762
H	0.180304	1.964102	0.308702
N	-0.655937	-1.12441	0.543989
H	-0.323535	-1.320797	1.488358
H	-0.340808	-1.875445	-0.199063
C	-1.6723	-0.16824	-2.028133
H	-2.342491	0.644645	-1.721363
H	-1.644954	-0.195092	-3.118644
H	-2.064862	-1.128724	-1.688386
N	0.52242	-1.096903	-2.217834
O	1.776972	-0.767562	-2.52094
O	0.282407	-2.289252	-1.503844
H	-2.200979	0.0	0.0
