16

C	-0.496089	-0.016649	-1.460343
C	0.0	0.0	0.0
Cl	-2.407071	0.316063	-1.343681
H	1.092268	0.0	0.0
N	0.169387	0.837825	-2.314297
H	0.377485	1.733324	-1.901849
H	-0.193096	0.871171	-3.255163
C	-0.483071	-1.388388	-1.975628
N	-0.483283	-2.47939	-2.413868
N	-0.452564	-1.057846	0.812499
H	-1.376211	-1.397554	0.59424
H	0.233117	-1.795446	0.863881
N	-0.388936	1.343507	0.610367
O	-0.021789	2.34131	-0.012719
O	-0.992291	1.364635	1.671601
Br	3.383873	0.0	0.0
