16

C	-0.515765	-0.028057	-1.453323
C	0.0	0.0	0.0
Cl	0.305713	-1.394815	-2.268497
H	1.089646	0.0	0.0
N	-1.937675	-0.298295	-1.504011
H	-2.227574	-0.395688	-2.470212
H	-2.412611	0.494263	-1.082967
C	-0.128311	1.192783	-2.178034
N	0.086451	2.192162	-2.758599
N	-0.499698	-1.071743	0.79528
H	-1.300648	-1.505217	0.357491
H	0.23873	-1.73798	0.962759
N	-0.443568	1.296556	0.656827
O	0.284061	1.761535	1.521138
O	-1.547978	1.758857	0.334532
Br	3.418934	0.0	0.0
