16

C	-0.606295	-0.009861	-1.416659
C	0.0	0.0	0.0
Cl	0.133023	-1.481555	-2.242252
H	1.09225	0.0	0.0
N	-2.018363	-0.095741	-1.293232
H	-2.217814	-0.898902	-0.70354
H	-2.460633	-0.205674	-2.197205
C	-0.257533	1.117225	-2.285535
N	-0.081265	1.963857	-3.080308
N	-0.507115	-1.136548	0.729262
H	-0.967781	-0.796273	1.56539
H	0.288863	-1.699742	1.006621
N	-0.427561	1.288567	0.667682
O	-0.099369	2.325442	0.106112
O	-1.055274	1.22713	1.725274
Br	3.393155	0.0	0.0
