16

C	-0.618587	-0.052852	-1.406759
C	0.0	0.0	0.0
Cl	0.151541	-1.518393	-2.188617
H	1.092745	0.0	0.0
N	-2.040269	-0.213939	-1.395778
H	-2.300338	-0.631289	-0.507458
H	-2.501194	0.675636	-1.527917
C	-0.227692	1.076518	-2.252047
N	0.069292	1.979553	-2.941479
N	-0.526699	-1.124447	0.77341
H	-0.169969	-1.003911	1.716044
H	-0.067944	-1.953797	0.408012
N	-0.461513	1.228388	0.728853
O	-1.036706	2.121778	0.107704
O	-0.215206	1.258059	1.930891
Br	3.40762	0.0	0.0
