16

C	-0.625925	0.038858	-1.422163
C	0.0	0.0	0.0
Cl	0.237721	-1.200308	-2.377713
H	1.087488	0.0	0.0
N	-2.035859	-0.288793	-1.452728
H	-2.543857	0.409005	-0.915318
H	-2.127319	-1.184067	-0.978692
C	-0.440324	1.335606	-2.085197
N	-0.363239	2.374042	-2.629272
N	-0.464755	-1.170857	0.679398
H	0.290393	-1.527877	1.253121
H	-1.260917	-0.942433	1.26156
N	-0.464757	1.267658	0.692984
O	-1.546111	1.213823	1.296451
O	0.218951	2.275157	0.563898
Br	3.43667	0.0	0.0
