16

C	-0.307675	0.059003	-1.515434
C	0.0	0.0	0.0
Cl	-2.092402	0.302169	-1.814086
H	1.092399	0.0	0.0
N	0.430354	1.113152	-2.123187
H	1.363465	1.159288	-1.709977
H	0.501179	0.981345	-3.12341
C	-0.027713	-1.282164	-2.065384
N	0.216049	-2.3416	-2.514701
N	-0.508455	-1.105982	0.721342
H	0.142269	-1.876403	0.679161
H	-1.437314	-1.382662	0.435741
N	-0.480364	1.286324	0.618657
O	-1.568596	1.260801	1.189123
O	0.239042	2.272639	0.493311
Br	3.403895	0.0	0.0
