16

C	-0.442405	-0.020315	-1.480946
C	0.0	0.0	0.0
Cl	-0.049525	1.530548	-2.276058
H	1.090887	0.0	0.0
N	0.240854	-1.079565	-2.188777
H	1.240668	-0.888877	-2.1015
H	0.062186	-1.928258	-1.656602
C	-1.897027	-0.221438	-1.578927
N	-3.055405	-0.404967	-1.645331
N	-0.47282	-1.198433	0.618801
H	0.148964	-1.453653	1.375438
H	-1.415685	-1.071973	0.967759
N	-0.507667	1.240269	0.701447
O	-1.659784	1.183087	1.147322
O	0.230265	2.215498	0.771947
Br	3.43052	0.0	0.0
