16

C	-0.46193	-0.075397	-1.47458
C	0.0	0.0	0.0
Cl	-0.048369	1.414156	-2.367301
H	1.094216	0.0	0.0
N	0.178164	-1.187854	-2.138649
H	-0.031776	-2.008677	-1.575501
H	1.185191	-1.031054	-2.065355
C	-1.923185	-0.237508	-1.523053
N	-3.09472	-0.321732	-1.493404
N	-0.456116	-1.184256	0.661557
H	0.219509	-1.447967	1.367433
H	-1.360696	-1.026716	1.089357
N	-0.495573	1.256811	0.680426
O	0.168965	2.279296	0.556118
O	-1.559529	1.169362	1.306354
Br	3.416037	0.0	0.0
