14
Coordinates from ORCA-job run
  C   -0.71795369648871     -0.23724538332805     -0.14328901531948
  C   0.54892583093004      0.60794006578816     -0.16921357755311
  Br  -0.86055634327294     -1.37327727904975     -1.71795344487642
  H   0.53604167234582      1.18305766807293     -1.09649245495580
  H   0.45957956398365      1.31935530482622      0.66077583822493
  N   -1.94473818125845      0.69151699139412     -0.17914523378649
  O   -2.86573507415642      0.42806678880148      0.58210790710988
  O   -1.88778983996168      1.61263708656373     -0.98016394614412
  C   -0.79874369295201     -1.07113919851965      1.04627489491113
  N   -0.77252179497656     -1.73818437038084      2.01422421564376
  C   1.82714598530442     -0.20876368093523     -0.03002357691655
  H   1.94003304646301     -0.91384238264038     -0.85441141873059
  H   1.84787171441509     -0.76507666483433      0.90901322427363
  H   2.68744080962473      0.46295505424158     -0.04170341188075
