14
Coordinates from ORCA-job run
  C   -0.75675624700139     -0.46862781579192     -0.07123267084836
  C   0.75180362241253     -0.46622983883799      0.19549488516426
  Br  -1.17462399172612     -0.96241220022617     -1.89188466347932
  H   1.12107544974952     -1.46075471087118     -0.06729134809321
  H   0.87292422301175     -0.34132138293723      1.27581444862202
  N   -1.25427466290550      0.96194455960982      0.22869394555393
  O   -1.51563755616482      1.70638432736397     -0.69948563041759
  O   -1.24951158290709      1.23328797953023      1.42358395306289
  C   -1.45793428371077     -1.37448097278051      0.82778734590483
  N   -1.98387624467714     -2.13580068465682      1.55305164318899
  C   1.50790799641375      0.62141147837243     -0.55619028760602
  H   1.22646014180875      1.61776636662205     -0.21008039135433
  H   1.33318595746829      0.56602050683737     -1.63119010423661
  H   2.57825717822824      0.50181238776595     -0.37907112546147
