14
Coordinates from ORCA-job run
  C   -0.74225319020587     -0.49263799318703     -0.06601286586382
  C   0.76231692750101     -0.43723058676049      0.21720897677360
  Br  -1.12518296063154     -1.05090488950345     -1.87509917324606
  H   1.16377535574892     -1.42808687866335     -0.00985228947212
  H   0.86611015642298     -0.27572967217517      1.29447445656872
  N   -1.28519070083962      0.93069830774374      0.18716992969997
  O   -1.30430480892787      1.23565836932281      1.37374751004483
  O   -1.55598656255004      1.64073551967604     -0.76494650433719
  C   -1.42561300462325     -1.39218115273060      0.85266500545205
  N   -1.93443371126843     -2.14722873211652      1.59641982091906
  C   1.49572969486470      0.64858950506828     -0.55912758594850
  H   2.56683994607761      0.56602592167331     -0.36589282567890
  H   1.18086241882306      1.64639017897439     -0.24789692547125
  H   1.33633043960835      0.55490210267806     -1.63385752944040
