14
Coordinates from ORCA-job run
  C   -0.73285155564701     -0.23323091021432     -0.02393510757421
  C   0.57381766468999      0.44236256126726     -0.41857610186177
  Br  -0.98061691930902     -1.92563597631946     -0.95386768235569
  H   0.54484203200890      1.44649333811800      0.02166641870369
  H   0.56305627006492      0.56000940872957     -1.50338399563394
  N   -1.91141603850455      0.66063662326879     -0.44975839873349
  O   -2.82119907037243      0.80447795777716      0.35567477050687
  O   -1.83187213586307      1.14300333873381     -1.56960305925715
  C   -0.82034217966158     -0.46901832262558      1.40916984739690
  N   -0.79926751720601     -0.65575514568691      2.56986732597445
  C   1.81255459222207     -0.30686696663261      0.05512646849294
  H   2.70507990004753      0.24202616085468     -0.25077607885356
  H   1.83281776596137     -0.40185081532533      1.14247681852877
  H   1.86539719156889     -1.30465125194507     -0.38208122533380
