16

C	-0.404877	-0.114202	-1.472353
C	0.0	0.0	0.0
F	-0.069645	-1.358224	-1.907447
H	1.096061	0.0	0.0
C	-1.856091	0.151115	-1.794008
H	-2.014206	0.029193	-2.869074
H	-2.468718	-0.575564	-1.257294
H	-2.13496	1.159254	-1.490087
N	0.425781	0.875406	-2.288477
O	0.351827	2.042234	-1.919573
O	1.016602	0.455415	-3.272371
C	-0.464724	-1.174099	0.713724
N	-0.798303	-2.137265	1.302264
C	-0.49531	1.196723	0.650882
N	-0.850194	2.161853	1.22378
H	2.464436	0.0	0.0
