16

C	-0.395107	0.096718	-1.469616
C	0.0	0.0	0.0
F	-1.750111	0.274699	-1.626128
H	1.095083	0.0	0.0
C	0.372029	1.183153	-2.166952
H	0.206349	1.132589	-3.244101
H	1.433048	1.061344	-1.929976
H	0.022517	2.145789	-1.791218
N	-0.092008	-1.251369	-2.117852
O	1.020424	-1.392442	-2.614224
O	-0.979914	-2.09746	-2.073493
C	-0.523348	-1.166759	0.684942
N	-0.929116	-2.119625	1.243064
C	-0.402558	1.217665	0.681958
N	-0.683196	2.229003	1.21344
H	2.494096	0.0	0.0
