16

C	-0.427001	0.239853	-1.446489
C	0.0	0.0	0.0
F	-1.734934	0.646358	-1.529942
H	1.106403	0.0	0.0
C	0.48069	1.224163	-2.132811
H	1.516604	0.917054	-1.956738
H	0.242163	1.272878	-3.197551
H	0.325386	2.207117	-1.683693
N	-0.354344	-1.085983	-2.197232
O	-1.353628	-1.455181	-2.805161
O	0.727035	-1.658651	-2.155025
C	-0.523227	-1.229698	0.560302
N	-0.891429	-2.249526	1.018094
C	-0.387413	1.146913	0.80256
N	-0.629261	2.099982	1.448052
H	2.483722	0.0	0.0
