16

C	-0.384958	0.177412	-1.470757
C	0.0	0.0	0.0
F	-0.089652	-0.977193	-2.12765
H	1.107036	0.0	0.0
C	-1.816758	0.562536	-1.755521
H	-2.471993	-0.220997	-1.370856
H	-2.058248	1.509862	-1.27419
H	-1.956755	0.648698	-2.836323
N	0.500114	1.266323	-2.07744
O	1.103868	1.010535	-3.108273
O	0.452774	2.348835	-1.503889
C	-0.474981	-1.282572	0.475426
N	-0.820738	-2.334908	0.873569
C	-0.484128	1.05948	0.859313
N	-0.8372	1.903062	1.600699
H	2.444667	0.0	0.0
