16

C	-0.308648	-0.085774	-1.49131
C	0.0	0.0	0.0
F	0.099232	1.077558	-2.06919
H	1.097859	0.0	0.0
C	0.372184	-1.256291	-2.143808
H	0.216653	-1.211411	-3.223977
H	1.435745	-1.164358	-1.901099
H	-0.016678	-2.195726	-1.755577
N	-1.823395	-0.145576	-1.718936
O	-2.40671	0.898512	-1.991005
O	-2.348508	-1.248172	-1.572987
C	-0.432906	-1.173385	0.731696
N	-0.701856	-2.139252	1.347407
C	-0.495715	1.223419	0.600583
N	-0.843024	2.225844	1.108827
H	2.484291	0.0	0.0
