16

C	-0.385363	-0.013411	-1.481272
C	0.0	0.0	0.0
F	-0.088147	-1.24094	-1.986343
H	1.10723	0.0	0.0
C	-1.818446	0.328194	-1.812134
H	-2.470753	-0.400565	-1.327285
H	-2.061491	1.328878	-1.456985
H	-1.959829	0.273115	-2.895127
N	0.496177	0.991534	-2.22415
O	1.079858	0.611103	-3.228339
O	0.465804	2.133929	-1.781379
C	-0.46936	-1.214069	0.634647
N	-0.802764	-2.212851	1.161288
C	-0.4921	1.157076	0.718029
N	-0.855874	2.086009	1.343246
H	2.443957	0.0	0.0
