16

C	-0.394483	0.058432	-1.4771
C	0.0	0.0	0.0
F	-0.064223	-1.130003	-2.050593
H	1.107079	0.0	0.0
C	-1.840478	0.371449	-1.778639
H	-2.463613	-0.407523	-1.335379
H	-2.114624	1.339673	-1.36136
H	-1.989253	0.377323	-2.862005
N	0.45038	1.128992	-2.168229
O	0.378797	2.246903	-1.669947
O	1.049017	0.819851	-3.187805
C	-0.462281	-1.247361	0.573786
N	-0.787226	-2.272455	1.053119
C	-0.491851	1.114976	0.78238
N	-0.850365	2.005973	1.463292
H	2.446732	0.0	0.0
