16

C	-0.306661	-0.263554	-1.47026
C	0.0	0.0	0.0
F	0.102996	0.821393	-2.182772
H	1.102802	0.0	0.0
C	0.373701	-1.504073	-1.977107
H	0.216751	-1.591075	-3.054407
H	-0.013118	-2.389442	-1.477029
H	1.437427	-1.382537	-1.749237
N	-1.820967	-0.349487	-1.692338
O	-2.347288	-1.424815	-1.410782
O	-2.402449	0.652914	-2.095188
C	-0.430769	-1.077301	0.86699
N	-0.694738	-1.962925	1.595545
C	-0.495334	1.286087	0.449489
N	-0.840772	2.342662	0.834597
H	2.476756	0.0	0.0
