16

C	-0.411166	0.047221	-1.463145
C	0.0	0.0	0.0
F	-1.777357	0.145374	-1.610964
H	1.106712	0.0	0.0
C	0.280232	1.162662	-2.194414
H	-0.116492	2.110381	-1.826518
H	0.09287	1.083572	-3.26664
H	1.351559	1.104238	-1.983639
N	-0.039876	-1.294478	-2.089738
O	-0.862397	-2.19949	-1.976379
O	1.053636	-1.37157	-2.639861
C	-0.490998	-1.154968	0.726363
N	-0.809874	-2.096292	1.356225
C	-0.405403	1.227995	0.65774
N	-0.661594	2.246692	1.187849
H	2.465923	0.0	0.0
