16

C	-0.42583	0.082135	-1.462346
C	0.0	0.0	0.0
F	-1.747598	0.434546	-1.588636
H	1.101118	0.0	0.0
C	0.45363	1.024518	-2.240057
H	0.214327	0.961631	-3.304213
H	0.269584	2.041402	-1.889455
H	1.499166	0.766095	-2.033734
N	-0.30513	-1.300086	-2.093747
O	0.692811	-1.945094	-1.79455
O	-1.174754	-1.62706	-2.894221
C	-0.532877	-1.154204	0.698965
N	-0.917318	-2.105556	1.27371
C	-0.39247	1.230206	0.668057
N	-0.642846	2.246533	1.203367
H	2.492968	0.0	0.0
