16

C	-0.302049	-0.145749	-1.486883
C	0.0	0.0	0.0
F	0.128007	0.983842	-2.112473
H	1.106302	0.0	0.0
C	0.36202	-1.354313	-2.08501
H	-0.04386	-2.269451	-1.658719
H	0.21263	-1.353094	-3.16702
H	1.42574	-1.268951	-1.842222
N	-1.815642	-0.192541	-1.724175
O	-2.361835	-1.271378	-1.500549
O	-2.376892	0.837749	-2.082078
C	-0.433837	-1.138943	0.781259
N	-0.700896	-2.076333	1.440648
C	-0.489618	1.250252	0.545806
N	-0.827035	2.278657	1.007062
H	2.470123	0.0	0.0
