17

C	0.0	0.0	0.0
C	-0.435406	-0.054934	-1.494342
F	1.385005	0.0	0.0
H	-1.531835	-0.148408	-1.496224
N	-0.489398	1.168172	0.646793
H	-0.28408	2.000572	0.104405
H	-1.504544	1.065383	0.723836
C	-0.442804	-1.243755	0.743054
H	-0.20492	-1.086469	1.796187
H	0.10084	-2.113721	0.376813
H	-1.515638	-1.39598	0.630047
N	0.138083	-1.263744	-2.173445
O	1.241532	-1.154176	-2.703547
O	-0.528292	-2.293716	-2.105369
C	0.003126	1.138399	-2.20491
N	0.30136	2.133068	-2.753518
Br	-3.704694	0.0	0.0
