17

C	0.0	0.0	0.0
C	-0.392577	-0.035237	-1.523147
F	1.418137	0.0	0.0
H	-0.701994	-1.039246	-1.810567
N	-0.471933	1.192648	0.566956
H	-0.055412	2.014042	0.151338
H	-0.427779	1.206899	1.574454
C	-0.503729	-1.215524	0.72542
H	-0.203184	-1.158285	1.775227
H	-1.596827	-1.225933	0.655447
H	-0.069506	-2.116653	0.288263
N	0.854343	0.257238	-2.334302
O	1.397742	-0.695689	-2.882421
O	1.245313	1.417391	-2.352708
C	-1.379367	0.947338	-1.956133
N	-1.986971	1.779576	-2.521116
Br	-3.920094	0.0	0.0
