17

C	0.0	0.0	0.0
C	-0.442257	0.173179	-1.510276
F	1.418144	0.0	0.0
H	-1.258685	-0.526128	-1.712248
N	-0.456763	1.016011	0.873868
H	-1.472416	0.922413	0.947842
H	-0.255183	1.935081	0.493958
C	-0.396826	-1.369322	0.500005
H	-0.011358	-1.469714	1.516477
H	-1.482332	-1.463381	0.503733
H	0.052161	-2.132512	-0.139301
N	0.713024	-0.189262	-2.405882
O	1.452894	0.713529	-2.785851
O	0.858067	-1.385567	-2.651613
C	-0.875995	1.525754	-1.833324
N	-1.193613	2.627694	-2.090833
Br	-3.654423	0.0	0.0
