17

C	0.0	0.0	0.0
C	-0.120429	-0.018029	-1.583561
F	1.415757	0.0	0.0
H	0.53416	0.796246	-1.90229
N	-0.514707	1.160161	0.607415
H	-0.419774	1.969088	0.005834
H	-1.515084	1.015603	0.768161
C	-0.496445	-1.252766	0.66668
H	-1.576619	-1.33187	0.51781
H	-0.28636	-1.171532	1.734724
H	0.013482	-2.127632	0.263275
N	-1.44322	0.329713	-2.205914
O	-1.708891	1.528331	-2.192753
O	-2.104273	-0.566463	-2.710494
C	0.378575	-1.26421	-2.152002
N	0.830989	-2.251792	-2.598214
Br	-3.873933	0.0	0.0
