17

C	0.0	0.0	0.0
C	-0.181174	-0.017382	-1.575798
F	1.39379	0.0	0.0
H	0.232223	-0.963808	-1.928596
N	-0.507216	1.108279	0.706269
H	-1.516567	0.972831	0.807456
H	-0.350229	1.965113	0.189531
C	-0.47964	-1.300791	0.594177
H	-0.211449	-1.299866	1.652416
H	-1.56452	-1.376034	0.495979
H	0.012239	-2.142146	0.101327
N	0.758451	1.021449	-2.151569
O	0.540826	2.193871	-1.858373
O	1.66897	0.621469	-2.868977
C	-1.452384	0.217863	-2.254184
N	-2.262066	0.440443	-3.077874
Br	-3.791963	0.0	0.0
