17

C	0.0	0.0	0.0
C	-0.493049	-0.069772	-1.459591
F	1.381151	0.0	0.0
H	-1.591149	-0.02008	-1.441381
N	-0.470036	1.256276	0.503219
H	-1.491885	1.236688	0.451131
H	-0.226014	1.319697	1.485287
C	-0.413085	-1.235798	0.783407
H	-0.080948	-1.104133	1.816975
H	0.072218	-2.128278	0.382571
H	-1.497027	-1.347856	0.759758
N	-0.126999	-1.398041	-2.059669
O	-1.034355	-2.216131	-2.178926
O	1.054034	-1.583495	-2.349183
C	0.101209	0.985268	-2.269426
N	0.558477	1.817964	-2.957386
Br	-3.747554	0.0	0.0
