17

C	0.0	0.0	0.0
C	-0.198175	0.136147	-1.570512
F	1.393526	0.0	0.0
H	0.109686	-0.806726	-2.026671
N	-0.492932	1.049872	0.801034
H	-1.507425	0.934646	0.873236
H	-0.294757	1.946793	0.375088
C	-0.495784	-1.340511	0.475653
H	-0.253382	-1.427471	1.536974
H	0.002316	-2.142492	-0.074099
H	-1.579898	-1.394163	0.347755
N	0.828064	1.137097	-2.064131
O	1.710363	0.7209	-2.806727
O	0.702932	2.29511	-1.677659
C	-1.452331	0.578637	-2.175912
N	-2.259251	0.986259	-2.929192
Br	-3.790241	0.0	0.0
