18
Coordinates from ORCA-job run
  C   0.67555013129461      0.16089081678620      0.39719639346518
  C   -0.55103678748629     -0.28440133861160     -0.41911695816154
  Cl  0.69068453503173     -0.64286023110109      1.97578435980443
  H   -0.43697937574062      0.21898264856348     -1.38436861492450
  N   0.52555283357084      1.66875425340877      0.60119263515200
  O   0.36412588216479      2.13172378078147      1.72077159957938
  O   0.55249778633807      2.31122913102031     -0.44693013648900
  C   1.99013055102972     -0.09019496732330     -0.31030188933468
  H   2.82192643561929      0.26825519566427      0.29897236992842
  H   2.08949940668404     -1.16058687609974     -0.47728787408773
  H   1.99309256917117      0.42927284823973     -1.26888939789548
  C   -1.87285417466815      0.15176866026920      0.20820291778976
  H   -1.95686978476412      1.23789321152397      0.29082056903782
  H   -2.69552247328627     -0.19736176007603     -0.42032096856183
  H   -1.99511181748813     -0.28091419579148      1.20358147365231
  N   -0.42821611346792     -1.71645220574042     -0.66127172646667
  H   -0.76342687144370     -2.23202865449800      0.14463816504085
  H   -1.00404273255906     -1.97497031701575     -1.45267291752872
