18
Coordinates from ORCA-job run
  C   0.84957371640545     -0.08585629949718      0.16168029453192
  C   -0.56200919210449     -0.65869553768476     -0.02693129431948
  Cl  2.05338211938860     -1.20258039175751     -0.54140246230005
  H   -0.51663757200954     -1.70801848165564      0.28291124572870
  N   1.13818035645886     -0.09693457033871      1.66785461521298
  O   1.81898517325340      0.81121176385409      2.12749075410307
  O   0.68452881696785     -1.04193534387279      2.30728806141710
  C   1.05023074164021      1.30460673809032     -0.38029910077694
  H   2.04167538965372      1.67269973210657     -0.12648965352788
  H   0.94953511945431      1.28765055620446     -1.46535339547370
  H   0.29495921786198      1.96150487491374      0.05213483842756
  C   -1.01131096403499     -0.58265658927684     -1.47800166446527
  H   -1.20092510493545      0.45294182618874     -1.76863449502204
  H   -1.94138713153128     -1.14429694260844     -1.59582753002817
  H   -0.27317128785017     -1.01147801131778     -2.15610941851798
  N   -1.45458263315215      0.13481588596498      0.81465812804633
  H   -2.37428198679890      0.19610713970202      0.39821969831076
  H   -1.54674477866741     -0.29108634901525      1.72781137865310
