18
Coordinates from ORCA-job run
  C   0.83845200170792     -0.13080887261935      0.26560710850963
  C   -0.50622807196473     -0.66267772205055     -0.26548185892030
  Cl  1.85342304406283     -1.52836056803093      0.70341272794309
  H   -0.21594068319612     -1.39842375018391     -1.03312182242726
  N   0.55072990279864      0.67514653974218      1.53380351146797
  O   0.76176761702828      0.18401356078158      2.62964575083061
  O   0.07728045431268      1.78886681967238      1.31873986871406
  C   1.60725245334130      0.73934822312022     -0.70550910752242
  H   2.58325640575194      0.99051676446213     -0.28732388108718
  H   1.06143526307300      1.65860021834764     -0.90582390991631
  H   1.76093574675489      0.19073629886116     -1.63650214261944
  C   -1.37931375885987      0.39411118026276     -0.92815703257057
  H   -0.88194144850420      0.86284546982224     -1.77760416335914
  H   -2.28316949642900     -0.09064637815112     -1.30840923780705
  H   -1.67263303924676      1.15997107848729     -0.21148114307987
  N   -1.23935805651454     -1.24282662903267      0.84982782970556
  H   -0.75742207919895     -2.05418942714899      1.21808962735995
  H   -2.15652625491733     -1.53722280634207      0.53928787477866
