18
Coordinates from ORCA-job run
  C   0.90379511445275     -0.07680732000526      0.21107399749542
  C   -0.41044667143664     -0.76647435785116     -0.22165766649098
  Cl  2.14240271815694     -1.32117580312765      0.44338914011753
  H   -0.08242622596847     -1.55209302749328     -0.90873669092267
  N   0.66068786183122      0.62026676279377      1.55010599066195
  O   -0.33024279848249      1.35042970330936      1.55558375832434
  O   1.43963781920705      0.46966128216985      2.47546011329061
  C   1.42835311088717      0.98252821282575     -0.73831047780564
  H   2.38118534906755      1.36864490703538     -0.37220418593507
  H   1.58965903877766      0.54304952791933     -1.72401648461174
  H   0.71376048714846      1.80206270697007     -0.81758852376576
  C   -1.39718869114695      0.12221162770218     -0.97885049695390
  H   -1.75381962383136      0.93991211190275     -0.35310514916646
  H   -0.96828224239997      0.53737451473933     -1.89353322118745
  H   -2.25338363594018     -0.49340799921727     -1.26659134586869
  N   -0.97328394998594     -1.42367760216554      0.95144067530557
  H   -1.65254567494107     -0.81838463545760      1.39700183774068
  H   -1.43686198539572     -2.28312061205001      0.69153872977226
