15
Coordinates from ORCA-job run
  C   0.96379649588774      0.47002675266576      0.00447181449112
  C   -0.40954739989776     -0.08483445277436      0.37752202791616
  H   1.27765404993931      1.19204870691388      0.77224982363987
  H   -0.34119309845524     -0.67734557306228      1.29213487784420
  H   0.86656409776963      1.01572093863400     -0.93647795616412
  N   1.88564117687907     -0.64667646171629     -0.17826581251961
  H   2.25623431182824     -0.94155001639674      0.71639529507116
  H   2.66876246181672     -0.36354155171078     -0.75182865330513
  C   -1.05604928020375     -0.87172003517207     -0.74421129318553
  H   -0.39323881119967     -1.69268396657980     -1.01590267007453
  H   -2.02206622720329     -1.27605979564525     -0.43427049904293
  H   -1.20398021294436     -0.22931379028565     -1.61376232096022
  N   -1.28293300585148      1.07369398695796      0.74643555901873
  O   -1.72656718798018      1.11847359241621      1.89286390883486
  O   -1.48507737038499      1.91476166575543     -0.12835410156403
