14

C	0.0	0.0	0.0
C	-0.503756	0.042413	-1.437874
Br	1.943764	0.0	0.0
H	-0.132236	-0.813251	-2.000891
H	-1.607375	-0.010305	-1.286989
N	-0.529039	1.046463	0.747348
H	-0.241883	0.963237	1.715191
H	-1.570612	0.867582	0.632587
N	-0.368268	-1.405395	0.585837
O	-0.501044	-1.456737	1.801401
O	-0.459303	-2.354268	-0.182354
C	-0.108443	1.28053	-2.091604
N	0.181634	2.260955	-2.66998
F	-2.743693	0.0	0.0
