14

C	0.0	0.0	0.0
C	-0.548985	-0.094114	-1.420657
Br	1.928928	0.0	0.0
H	-0.403098	0.895063	-1.86111
H	-1.637154	-0.238434	-1.238587
N	-0.581932	1.083928	0.648172
H	-0.337763	1.050737	1.631712
H	-1.626434	0.866132	0.514359
N	-0.330543	-1.352467	0.747831
O	-0.227518	-1.31719	1.971229
O	-0.669228	-2.324124	0.087776
C	0.026787	-1.102424	-2.291645
N	0.462584	-1.873098	-3.063997
F	-2.809019	0.0	0.0
