14

C	0.0	0.0	0.0
C	-0.542604	-0.110256	-1.417277
Br	1.945339	0.0	0.0
H	-1.645389	-0.133148	-1.223163
H	-0.207369	-1.034963	-1.883761
N	-0.562346	1.073055	0.671498
H	-0.307467	1.04196	1.651785
H	-1.604388	0.875778	0.546866
N	-0.315105	-1.38073	0.705799
O	-0.505554	-1.331961	1.914361
O	-0.310277	-2.401298	0.027936
C	-0.160498	1.032674	-2.227335
N	0.133047	1.930192	-2.925813
F	-2.79646	0.0	0.0
