14

C	0.0	0.0	0.0
C	-0.531124	-0.270714	-1.401755
Br	1.951949	0.0	0.0
H	-1.634132	-0.276687	-1.225402
H	-0.18508	-1.238068	-1.763488
N	-0.568945	1.13903	0.542536
H	-1.610699	0.920231	0.436075
H	-0.318449	1.219156	1.521216
N	-0.308271	-1.290738	0.858877
O	-0.473009	-1.103389	2.057127
O	-0.329727	-2.381065	0.300694
C	-0.137201	0.783181	-2.322459
N	0.17604	1.612675	-3.092409
F	-2.800022	0.0	0.0
