14

C	0.0	0.0	0.0
C	-0.378457	0.056052	-1.499364
Br	1.942057	0.0	0.0
H	-0.324355	1.119508	-1.749167
H	0.397112	-0.456018	-2.069191
N	-0.550245	1.017261	0.753559
H	-0.333391	0.859603	1.732058
H	-1.608559	0.799795	0.564898
N	-0.324057	-1.431491	0.541302
O	-0.319189	-2.357856	-0.259621
O	-0.507678	-1.525531	1.747895
C	-1.646405	-0.48346	-2.005205
N	-2.417744	-0.922354	-2.777791
F	-2.654584	0.0	0.0
