17

C	0.0	0.0	0.0
C	-0.332296	-0.076875	-1.560996
Cl	1.785059	0.0	0.0
H	0.55644	-0.502219	-2.032591
N	-0.438179	1.318401	0.668245
O	-1.016139	2.158862	-0.002863
O	-0.164095	1.409905	1.857295
N	-0.579382	-1.020286	0.773707
H	-1.610176	-0.80352	0.686631
H	-0.420658	-1.894027	0.284238
N	-0.319407	1.326053	-2.253372
O	0.721755	1.972091	-2.182746
O	-1.298795	1.638718	-2.919102
N	-1.461068	-0.85235	-1.842482
H	-2.264176	-0.51149	-1.24561
H	-1.659615	-0.824957	-2.833013
F	-2.907719	0.0	0.0
