17

C	0.0	0.0	0.0
C	-0.500618	-0.161777	-1.455514
Cl	1.802724	0.0	0.0
H	-1.59927	-0.057744	-1.300211
N	-0.382753	1.458094	0.413886
O	-0.002474	1.79385	1.528364
O	-1.023714	2.151171	-0.360231
N	-0.553489	-0.82167	0.990403
H	-1.591889	-0.67081	0.805247
H	-0.320158	-1.786152	0.786934
N	-0.247709	-1.602021	-1.870014
O	-0.858295	-2.491906	-1.281505
O	0.56011	-1.813716	-2.779058
N	0.106462	0.74672	-2.369004
H	-0.591326	1.12619	-2.988935
H	0.8251	0.277556	-2.90183
F	-2.774092	0.0	0.0
