17

C	0.0	0.0	0.0
C	-0.589598	-0.074173	-1.446612
Cl	1.754358	0.0	0.0
H	-1.645264	-0.333289	-1.224423
N	-0.359942	1.403227	0.599538
O	0.076353	2.382183	-0.003948
O	-0.975372	1.446379	1.647425
N	-0.526907	-0.949925	0.899755
H	-0.32447	-1.867908	0.514502
H	-1.559938	-0.773984	0.790301
N	0.096569	-1.246344	-2.105454
O	-0.191642	-2.374738	-1.689759
O	0.918203	-1.02548	-2.992591
N	-0.528464	1.039017	-2.328532
H	0.34654	1.536221	-2.237306
H	-1.277426	1.662818	-2.060885
F	-2.778564	0.0	0.0
