18

C	0.0	0.0	0.0
C	-0.484738	0.225361	-1.447386
F	1.389164	0.0	0.0
H	-1.572967	0.33228	-1.35974
C	-0.420071	1.124943	0.933186
H	0.014118	2.083468	0.640782
H	-1.511472	1.149971	0.900195
H	-0.068572	0.878606	1.941795
N	-0.540894	-1.278302	0.371797
H	-1.568274	-1.060636	0.318327
H	-0.323213	-1.423536	1.354422
N	-0.103208	-0.811639	-2.375622
H	-0.605433	-1.637311	-2.067807
H	0.881836	-1.00698	-2.222754
N	0.081048	1.51399	-1.954014
O	-0.585964	2.53805	-1.798154
O	1.196396	1.483954	-2.474977
F	-2.875106	0.0	0.0
