18

C	0.0	0.0	0.0
C	-0.308035	0.450789	-1.462991
F	1.414522	0.0	0.0
H	0.584284	0.985494	-1.803061
C	-0.423897	1.063654	0.995027
H	-0.019962	0.78793	1.975781
H	-0.042259	2.048313	0.717195
H	-1.514563	1.06051	1.011815
N	-0.55372	-1.291272	0.251193
H	-1.573787	-1.109408	0.152643
H	-0.397444	-1.507153	1.232455
N	-1.481389	1.199834	-1.627156
H	-2.272047	0.74916	-1.098414
H	-1.6938	1.310243	-2.609586
N	-0.228407	-0.824966	-2.352043
O	0.885254	-1.315723	-2.524643
O	-1.264908	-1.240343	-2.864811
F	-3.025408	0.0	0.0
