18

C	0.0	0.0	0.0
C	-0.459338	0.010178	-1.467578
F	1.407137	0.0	0.0
H	-1.557209	0.047468	-1.383643
C	-0.43955	1.238906	0.750359
H	0.058576	2.129171	0.368152
H	-1.522982	1.298796	0.646196
H	-0.161769	1.094042	1.796468
N	-0.520978	-1.154074	0.656698
H	-0.394473	-1.94171	0.028605
H	-1.542257	-0.936263	0.645794
N	0.046276	-1.138467	-2.152376
H	-0.341867	-1.194353	-3.083852
H	1.051559	-1.05464	-2.226128
N	-0.00567	1.294633	-2.144693
O	-0.723213	2.28782	-2.036246
O	1.06868	1.279215	-2.754403
F	-2.87377	0.0	0.0
