18

C	0.0	0.0	0.0
C	-0.353872	0.048245	-1.537474
F	1.387875	0.0	0.0
H	-0.267618	1.088226	-1.861201
C	-0.484568	1.258633	0.686938
H	-0.055882	2.154741	0.229089
H	-0.192584	1.227506	1.74258
H	-1.576451	1.242391	0.603409
N	-0.522715	-1.211344	0.562045
H	-1.544246	-1.056878	0.515514
H	-0.267881	-1.232718	1.545875
N	-1.570132	-0.533398	-2.008017
H	-1.486937	-1.529616	-1.828302
H	-2.325035	-0.213641	-1.351594
N	0.777189	-0.639203	-2.272667
O	1.642716	0.066957	-2.79009
O	0.761136	-1.866335	-2.316443
F	-3.071342	0.0	0.0
