18

C	0.0	0.0	0.0
C	-0.254895	0.065294	-1.552696
F	1.388253	0.0	0.0
H	0.406372	0.869912	-1.895958
C	-0.47583	1.279761	0.65973
H	-0.083772	2.164082	0.149587
H	-1.568432	1.254362	0.634706
H	-0.121393	1.288234	1.697595
N	-0.547759	-1.196411	0.553967
H	-0.42704	-1.151176	1.562852
H	-1.562856	-1.07527	0.38919
N	-1.584496	0.187508	-2.054052
H	-2.274617	0.179652	-1.257865
H	-1.78763	-0.650909	-2.5826
N	0.427279	-1.162678	-2.160762
O	-0.249657	-2.172742	-2.342895
O	1.614685	-1.0601	-2.468143
F	-3.082878	0.0	0.0
