18

C	0.0	0.0	0.0
C	-0.463042	0.001022	-1.467503
F	1.406943	0.0	0.0
H	-1.560693	0.044171	-1.379607
C	-0.43955	1.242938	0.744159
H	0.052776	2.134024	0.353504
H	-1.525772	1.296863	0.649555
H	-0.154394	1.102554	1.789753
N	-0.522037	-1.151851	0.658831
H	-1.544663	-0.93989	0.644825
H	-0.388969	-1.943917	0.036652
N	0.032266	-1.156597	-2.146598
H	-0.373367	-1.223546	-3.071068
H	1.037366	-1.0697	-2.241089
N	-0.006145	1.276737	-2.15804
O	-0.728085	2.269634	-2.075465
O	1.071891	1.252791	-2.761728
F	-2.877643	0.0	0.0
