16

C	0.0	0.0	0.0
C	-0.483748	-0.215974	-1.44941
Br	1.950068	0.0	0.0
H	-1.574427	-0.073337	-1.3881
N	-0.437402	1.314884	0.395236
H	-0.132412	1.505159	1.343201
H	-1.460856	1.291027	0.386419
N	-0.452791	-1.137927	0.773896
H	-0.105815	-1.058204	1.72291
H	-1.475107	-1.063245	0.797632
N	-0.109399	-1.541627	-1.941327
H	-0.794387	-1.818041	-2.635733
H	-0.21077	-2.167331	-1.146045
C	0.044279	0.818313	-2.347908
N	0.397574	1.616843	-3.133146
Br	-3.718903	0.0	0.0
