16

C	0.0	0.0	0.0
C	-0.06463	-0.095222	-1.566286
Br	2.166411	0.0	0.0
H	0.655962	-0.867789	-1.858984
N	-0.532187	1.141067	0.577978
H	-1.544075	0.964442	0.694195
H	-0.411166	1.912076	-0.071924
N	-0.4335	-1.146113	0.604781
H	-0.018743	-2.010638	0.307656
H	-0.641401	-1.074969	1.586648
N	0.270722	1.216149	-2.127212
H	1.27671	1.286432	-2.21222
H	-0.152539	1.322402	-3.039476
C	-1.327249	-0.555546	-2.166639
N	-2.10146	-1.003781	-2.930149
Br	-3.730423	0.0	0.0
