16

C	0.0	0.0	0.0
C	-0.313481	-0.243803	-1.513772
Br	2.016742	0.0	0.0
H	0.336256	0.441126	-2.065788
N	-0.464946	1.310443	0.352345
H	-1.482317	1.242755	0.431713
H	-0.087321	1.58539	1.251272
N	-0.53904	-1.028205	0.786492
H	-0.58009	-0.8185	1.772423
H	-0.161553	-1.947759	0.604882
N	-1.670343	-0.020856	-1.929951
H	-2.353179	-0.46406	-1.313998
H	-1.877318	0.969352	-1.899323
C	0.087998	-1.618569	-1.864426
N	0.389551	-2.723612	-2.12208
Br	-4.356439	0.0	0.0
