14
Coordinates from ORCA-job run
  C   0.63551272107477     -0.37744159669153     -0.64006515946220
  C   -0.79556164122570      0.18211258684072     -0.56094725590612
  F   1.23508107428315      0.28192936362669     -1.70214664828566
  H   -1.30152583157078     -0.00335384573686     -1.51085330538525
  H   0.56093550068128     -1.43473160952516     -0.90710172777202
  C   1.44352144959234     -0.16396326415593      0.61408818705211
  H   1.00131471813563     -0.68745272100925      1.46380087128795
  H   1.51100775858586      0.89929400392894      0.84980334854975
  H   2.45122937335270     -0.55147653855800      0.45845375385228
  C   -0.81768207417562      1.60106457657518     -0.23606387242873
  N   -0.80554088595818      2.75174043086628     -0.00463291036379
  N   -1.54142960717233     -0.62151495485710      0.47598040881689
  O   -1.82533480802122     -1.76380305168455      0.12909903558573
  O   -1.75152774758191     -0.11140337961942      1.56958527445909
