14
Coordinates from ORCA-job run
  C   0.54395678215275     -0.56631109063574     -0.15696158781912
  C   -0.69894771381652      0.32106147847625     -0.15575100214408
  F   0.55309234562869     -1.20034263218848     -1.39230380862166
  H   -0.66620306785961      1.02096458141040     -0.99320525236980
  H   0.42335932268438     -1.33814100350154      0.60705949331683
  C   1.81878357986245      0.22120951943578      0.01821522453146
  H   2.67001406753556     -0.45279930783008     -0.08515497540482
  H   1.86146489234952      0.68508675299474      1.00507805126961
  H   1.89900076486649      0.99608087598382     -0.74695855721096
  C   -0.85610229227689      1.01861741642297      1.11316456397927
  N   -0.94497781513041      1.58200133463760      2.13950814518073
  N   -1.91346551065765     -0.55051557333727     -0.39299685579153
  O   -2.58800708967790     -0.29302080372384     -1.38179188692217
  O   -2.10196826566084     -1.44489154814461      0.42209844800623
