14
Coordinates from ORCA-job run
  C   0.54181366217710     -0.58218039069981      0.08945008340173
  C   -0.66732792707965      0.25260703109418     -0.32760161734574
  F   0.67482195766243     -1.56613225621520     -0.88080360267647
  H   -0.51921099034565      0.66428537003060     -1.32796345434322
  H   0.31255062957399     -1.08156557029079      1.03391485659216
  C   1.80999657506029      0.23188520714626      0.16255668043838
  H   2.64631781306891     -0.43020977120237      0.38956416601731
  H   2.00629388145826      0.71816549751917     -0.79515924281431
  H   1.74635048864524      0.99051528804390      0.94426203154851
  C   -0.94940994958015      1.30209995339588      0.64238623892445
  N   -1.13738601888539      2.14859864785319      1.43402319344962
  N   -1.87052523934818     -0.66028781873412     -0.43025739760688
  O   -2.41466610174360     -0.72775631824672     -1.52498228431716
  O   -2.17961878066358     -1.26202486969417      0.59061034873162
