14
Coordinates from ORCA-job run
  C   0.56955700996065     -0.56202033090911     -0.01141482667141
  C   -0.69330202255700      0.26006610894602     -0.25918217519084
  F   0.68824686999117     -1.40967531534948     -1.10455598300339
  H   -0.61764880701622      0.79765992243054     -1.20638248064322
  H   0.41279610081416     -1.18560015231952      0.87203470868240
  C   1.80644609818876      0.29436355360534      0.10146327127263
  H   1.92861228311103      0.90765856029667     -0.79360427518196
  H   1.75768150032229      0.94301516658650      0.97770332031526
  H   2.67964167755334     -0.35200900221290      0.19736105381231
  C   -0.96668919173734      1.16769374184553      0.84658374848928
  N   -1.14973852766122      1.90122623833496      1.74501371015807
  N   -1.86222103289614     -0.68988142574291     -0.41702277832591
  O   -2.46528919734320     -0.64285256032412     -1.48142966496496
  O   -2.08809276073027     -1.42964450518750      0.53243237125175
