14
Coordinates from ORCA-job run
  C   0.54189846098459     -0.56606954529046     -0.16901960315584
  C   -0.69286602482040      0.33179706413389     -0.15492088835838
  F   0.56423650654440     -1.15732310155685     -1.42490958238685
  H   -0.64377875766571      1.05995646092093     -0.96724887163461
  H   0.40384100457419     -1.36260544499293      0.56595451427650
  C   1.82078579652598      0.20343917369097      0.05119048899923
  H   2.66738281953004     -0.47647770141874     -0.05144612479721
  H   1.92282028491970      0.99560049137778     -0.69346675029806
  H   1.84839160898525      0.64354762324321      1.04946050010965
  C   -0.86291264511877      0.98890565791546      1.13389165030250
  N   -0.96388472947594      1.51955443983587      2.17652149563042
  N   -1.91284377026546     -0.51974578067358     -0.43714283219226
  O   -2.57126148929859     -0.22245989710545     -1.42549482231125
  O   -2.12180906541927     -1.43811944008010      0.34563082581615
