14
Coordinates from ORCA-job run
  C   0.54854321053297     -0.55682596438403     -0.17538473794457
  C   -0.70198732638558      0.31889335350121     -0.14238045527614
  F   0.55745412437027     -1.15486531293829     -1.42834680181044
  H   -0.67952513027129      1.04459994464345     -0.95794962656259
  H   0.43927263552384     -1.35147682253188      0.56660666288438
  C   1.81707113419735      0.23744915323891      0.01569049203229
  H   1.88933875309266      1.02795846498574     -0.73417366445284
  H   1.85644641437341      0.68256134522006      1.01135031704796
  H   2.67416137296892     -0.42689440476494     -0.10092367774212
  C   -0.85990180924827      0.97668384034097      1.14754618463456
  N   -0.94917961890402      1.50723289060704      2.19126137715068
  N   -1.91040602904123     -0.55561544330691     -0.40098639682770
  O   -2.08887515552734     -1.47593648686758      0.38703064073267
  O   -2.59041257568171     -0.27376455774374     -1.37934031386613
