14
Coordinates from ORCA-job run
  C   0.55082582564618     -0.57454331224624      0.09040696285824
  C   -0.67893819777624      0.23460105171591     -0.31541089162970
  F   0.66373491065897     -1.58765701416457     -0.85243409065235
  H   -0.56691077629606      0.61100768314429     -1.33419788701312
  H   0.35655061616956     -1.04611661534655      1.05689885827176
  C   1.81194206735428      0.25370251478131      0.09851421402522
  H   2.66332280206930     -0.39613055714632      0.30430691275600
  H   1.77019270468086      1.02495424423039      0.86952014286638
  H   1.96628425811980      0.72586786152257     -0.87390669312004
  C   -0.94105924535303      1.31551847520411      0.62495412638894
  N   -1.11507353446050      2.18812781718638      1.39113396078429
  N   -1.87676673799387     -0.69105222568234     -0.34643175062359
  O   -2.14806108238321     -1.25700773331415      0.70508359067149
  O   -2.45604361043603     -0.80027218988481     -1.41943745558351
