14
Coordinates from ORCA-job run
  C   0.61465478020108     -0.38476048056822     -0.65610375243488
  C   -0.80347525805830      0.20109827849482     -0.54205624539438
  F   1.20312547129386      0.27006346849928     -1.72709270449565
  H   -1.33277417232779      0.03270632930819     -1.48243377751706
  H   0.51389102690591     -1.43866365879777     -0.92785670426364
  C   1.45384334255613     -0.19504899743809      0.58115284782654
  H   1.01844825853857     -0.71357085477285      1.43742760432626
  H   1.54892437436545      0.86527387903498      0.82072273453143
  H   2.44953496325653     -0.60316783001368      0.40242568736266
  C   -0.79236291174069      1.61764382540687     -0.20652154832344
  N   -0.75372768452572      2.76598172373218      0.03354946732203
  N   -1.54278867488749     -0.59639399143279      0.50420350951865
  O   -1.72070239347460     -0.09077689409353      1.60563043355595
  O   -1.85559112210293     -1.73038479735938      0.15495244798553
