14
Coordinates from ORCA-job run
  C   0.77190145785430      0.44291392859008     -0.15330842466674
  C   -0.69459721842232      0.20147693842355     -0.53726372744659
  F   0.80973736148885      1.39129155927317      0.85034538107404
  H   -0.73917517224591     -0.44935552181617     -1.41313300492043
  H   1.25627484506654      0.87857088820280     -1.03371681361942
  C   1.48976387769621     -0.80276852288011      0.30935782034843
  H   1.41372969844586     -1.60272681383244     -0.42911223798893
  H   1.07073279958338     -1.15561516733788      1.25233118117131
  H   2.54226243080734     -0.56642008885699      0.46925366124980
  C   -1.39607183472940      1.45350980552785     -0.79181398764993
  N   -1.93797204189606      2.46227008919416     -1.04848160788180
  N   -1.38200366439649     -0.55972185502602      0.56915637963431
  O   -1.40736967923319     -1.77984569899720      0.43332367567459
  O   -1.79521286001910      0.08542045953519      1.52406170502138
