14
Coordinates from ORCA-job run
  C   0.54867781383360     -0.57547059938468      0.08367996283802
  C   -0.67320596144232      0.24824775739683     -0.31739337522268
  F   0.67653192193805     -1.55939979715038     -0.88703408473739
  H   -0.54102991442284      0.66511395375138     -1.31802239032198
  H   0.33697819594638     -1.07537069362142      1.03197571380723
  C   1.81105200405714      0.24896950539508      0.13804334549689
  H   1.98823183412746      0.73867998576477     -0.82143491220739
  H   1.75379861454306      1.00533163898044      0.92234167494557
  H   2.65605265225537     -0.40683941543478      0.35050115646260
  C   -0.95791459637861      1.29177759860377      0.65836316045574
  N   -1.15408000495793      2.13211244480972      1.45477401824068
  N   -1.86723067291901     -0.67803497062001     -0.40961514893865
  O   -2.15892490432117     -1.28564693038606      0.61309283705801
  O   -2.42093698225918     -0.75047047810468     -1.49927195787668
