14
Coordinates from ORCA-job run
  C   0.78739357694781      0.43898515878714     -0.05070291323985
  C   -0.65416613933204      0.28115020035821     -0.55394259175232
  F   0.77530602638347      1.26193535379821      1.05870304498985
  H   -0.65155384296156     -0.25898897526534     -1.50315713688836
  H   1.33696846216758      0.96232101485827     -0.84046299749783
  C   1.45059656193300     -0.87022820318120      0.30627584686542
  H   1.40848787174214     -1.57704282036026     -0.52419306335906
  H   0.96402022130874     -1.31878488309788      1.17315256210948
  H   2.49445474572339     -0.68132576083916      0.55894695729316
  C   -1.31627568085460      1.57150588931330     -0.69856041883729
  N   -1.81906081569273      2.61983757638243     -0.85819263328257
  N   -1.42579266938200     -0.59034394014647      0.40615039619971
  O   -1.88359809497731     -0.05541413426162      1.40770502100519
  O   -1.46678022300589     -1.78360647634562      0.11927792639446
