14
Coordinates from ORCA-job run
  C   0.78586218703295      0.40482189142102     -0.18709032307408
  C   -0.70448215074875      0.23335549136141     -0.51283001505335
  F   0.90818207785471      1.35455842117402      0.80867251543035
  H   -0.81485723025910     -0.41503913545701     -1.38467865105753
  H   1.25629392491990      0.81299423227343     -1.08801870424305
  C   1.45993902294226     -0.87205814462248      0.25598977125224
  H   1.06281143768751     -1.19689754961808      1.21835713070025
  H   2.52849596041228     -0.68748783328226      0.37103578454884
  H   1.31405548378098     -1.67242407183739     -0.47137801311714
  C   -1.35460222143426      1.51787177221681     -0.73987612529333
  N   -1.85600515604241      2.55366726031998     -0.97023434617995
  N   -1.38358598674702     -0.49390925582339      0.62180877241382
  O   -1.72743780754428      0.17053824445322      1.59068177007595
  O   -1.47466954185476     -1.71099132257927      0.48856043359698
