14
Coordinates from ORCA-job run
  C   -0.53459805758888     -0.11315428934746      0.37099874185362
  C   0.95038576776357      0.06445058276501      0.60789027808124
  Br  -1.35409539196908     -0.23497806675065      2.21248027371494
  H   1.34584165278443     -0.75148251094799      1.20923018259280
  H   1.14839779125142      1.02911082916637      1.07054805978986
  N   -1.16543607772788      1.16625994701066     -0.19451107577805
  O   -2.09762349033702      1.00695048129900     -0.97104387505458
  O   -0.72009755716203      2.22636880330974      0.21231513221811
  N   -0.81309544138157     -1.16491301550201     -0.48804818246371
  H   -0.45909765139701     -2.05337187432587     -0.16158709303396
  H   -1.78437369124736     -1.21378320918624     -0.76323904612049
  N   1.65781158801822      0.02364375391324     -0.70887846674634
  O   1.35230831196464      0.89079609386674     -1.51979832297213
  O   2.47467224702853     -0.87789752527052     -0.87535660608131
