14
Coordinates from ORCA-job run
  C   -0.44533739798772      0.15409568705311      0.34004197130309
  C   0.79733261019131      0.40637408154919     -0.50656558234932
  Br  -0.44488804303247      1.21830726928550      1.97214389719718
  H   0.64148527744401      0.00703737574686     -1.50992807548319
  H   1.03920648942001      1.46353680141730     -0.54572728783788
  N   -1.63587797084474      0.75511052175908     -0.48512109698522
  O   -1.40889967921549      1.76424413285449     -1.14094660278086
  O   -2.70296324241912      0.16384934229532     -0.39267255024891
  N   -0.61155292788764     -1.19328331210355      0.65462732630219
  H   -1.49828748923058     -1.38247913959180      1.10114825525752
  H   -0.44827106199012     -1.80894697867155     -0.13196892863803
  N   1.95527095054056     -0.32937609376584      0.07154415256678
  O   2.63980762779531      0.26224557481452      0.89966687875613
  O   2.12297485721668     -1.48071526264263     -0.32724235705948
