14
Coordinates from ORCA-job run
  C   -0.57808416218833     -0.07156201543216      0.49875224708022
  C   0.90690690248706      0.27400278568106      0.51941283966493
  Br  -1.19489221025929      0.23762994262465      2.33164199282031
  H   1.06830163329076      1.32728553663143      0.74506683183077
  H   1.43358028140832     -0.34588663390181      1.24369266279667
  N   -1.30351654309055      0.96564909463604     -0.38247558494363
  O   -2.16443373836213      0.55361349117864     -1.14168835223677
  O   -0.94659830981175      2.12640924982598     -0.23374107607735
  N   -0.97605107986996     -1.36080907261068      0.09315389917416
  H   -0.85119588297231     -1.49639568177292     -0.90136308833055
  H   -0.52895529301398     -2.08567399174827      0.63700520700200
  N   1.54957567719988      0.01450363488354     -0.80708007394155
  O   2.76261988167536     -0.15404261755289     -0.80075682175815
  O   0.82274284350692      0.01627627755740     -1.79962068308106
