14
Coordinates from ORCA-job run
  C   -0.53088057548022     -0.08340637008682      0.38337850710929
  C   0.95774606960175      0.10099115095506      0.59166448519298
  Br  -1.33086413151026     -0.07263067362448      2.23687258342258
  H   1.35536411166986     -0.67360427535731      1.24406485802194
  H   1.16591252999386      1.09415924478752      0.98423859967865
  N   -1.16067327351283      1.15695392523099     -0.26361772775699
  O   -2.10178897992771      0.94971792768149     -1.01769488957509
  O   -0.70548740975625      2.24000617954465      0.06417017707081
  N   -0.82414322997147     -1.19118967083594     -0.39759065965703
  H   -1.79853940444822     -1.25014803824384     -0.65983755376572
  H   -0.47653786679656     -2.05718279531468     -0.00956440773108
  N   1.65011420630805     -0.03586606684752     -0.72651068457855
  O   1.33953043236733      0.77406359992116     -1.59275423099857
  O   2.46124752146269     -0.95086413781028     -0.83781905643321
