14
Coordinates from ORCA-job run
  C   -0.47036704899347      0.14403469036294      0.30996700967416
  C   0.83395949965519      0.41886849869401     -0.42984467209435
  Br  -0.59457610007763      1.15593758174151      1.97040833758424
  H   1.07848927681710      1.47607936165706     -0.41694845123712
  H   0.75584121018183      0.05171657049688     -1.45439788516672
  N   -1.59245532224419      0.77579111758502     -0.58573954273886
  O   -1.31653060487746      1.80939756481639     -1.18188126320929
  O   -2.66160370153280      0.18115719908694     -0.60279499094927
  N   -0.66218882188062     -1.21201520396368      0.56727039019568
  H   -0.43953939948276     -1.80239371006826     -0.22416548028346
  H   -1.58159133034891     -1.41200050796380      0.93638017248250
  N   1.94391991688889     -0.33769086436020      0.21200878286401
  O   2.14088887115515     -1.47687121167291     -0.20781427233233
  O   2.56475355473969      0.22698891358806      1.10655186521082
