14
Coordinates from ORCA-job run
  C   -0.49975681494457     -0.29306195269281      0.31923980709770
  C   0.83235190084807     -0.25540169125729     -0.42333124040466
  Br  -0.20079088061543     -0.71212000482041      2.17221408319832
  H   1.28339193965786     -1.24577062471881     -0.41959308844752
  H   0.65712466104736      0.09275155570115     -1.44328161377538
  N   -1.19056676066926      1.07532990518384      0.16291326630192
  O   -1.54807209620071      1.70580448365515      1.13791705417805
  O   -1.36108598255249      1.37101471070362     -1.01684944110388
  N   -1.44298881069110     -1.22381003914021     -0.22575393976722
  H   -1.17536381829882     -2.17837446577773     -0.02718058413114
  H   -1.54926596110539     -1.07792733911932     -1.22339458674088
  N   1.82157998971006      0.67834098771124      0.18556289984023
  O   2.95985130293928      0.25531155585073      0.35904224143270
  O   1.41459133087518      1.80791291872080      0.44349514232176
