14
Coordinates from ORCA-job run
  C   -0.55934969197757      0.05710828890489      0.32291571334275
  C   0.74166428572284      0.43282512716522     -0.40809194566694
  Br  -0.46999967126548      0.69917489552521      2.13634466164497
  H   0.88400434287421      1.51239330150310     -0.43362972020364
  H   0.71420068324002      0.01221449777065     -1.41489295792893
  N   -1.63556816317435      0.82581436373452     -0.47477778938103
  O   -1.80182854761825      0.36530156208338     -1.60248200268922
  O   -2.19801020866479      1.79174848236183      0.00964254372100
  N   -0.98532167362378     -1.30019668437653      0.32100468033891
  H   -0.33145014450453     -1.86939851346165      0.84296953266189
  H   -1.03415258285309     -1.63973217175904     -0.63341614757434
  N   1.92865638513870     -0.14708585311935      0.27691833121296
  O   2.79679981665121      0.63015528044617      0.65927834302028
  O   1.95035517005488     -1.37132257677839      0.39721675750134
