14
Coordinates from ORCA-job run
  C   -0.53023329410822      0.11757940389785      0.33960973998492
  C   0.74336066334376      0.30838398113481     -0.50079273680805
  Br  -0.28171754442457      1.04077201063014      2.03518111449235
  H   0.94865226512329      1.36203936070611     -0.67185215910642
  H   0.62838739086196     -0.23644014519458     -1.44235923111292
  N   -1.59737411601022      0.88283619493213     -0.47756278702795
  O   -2.46942617177104      0.20318852188679     -1.00618706756718
  O   -1.44312073922618      2.08969177673151     -0.59343068297653
  N   -1.01701833115620     -1.18423138337933      0.57906776696114
  H   -0.27923628498585     -1.77042047950437      0.94728309441211
  H   -1.41066988587737     -1.58583523957370     -0.26271272860174
  N   1.93681875089077     -0.26364906211942      0.18412858115939
  O   2.88399996245818      0.48934581082254      0.38139968737318
  O   1.88757733488169     -1.45526075097048      0.48722740881775
