14
Coordinates from ORCA-job run
  C   -0.57845504150767      0.06071383026728      0.28474004848422
  C   0.77027762587933      0.42929389689870     -0.35699040119222
  Br  -0.60341386349070      0.69736666238423      2.10240349691253
  H   0.92096190197541      1.50795182489027     -0.36988291784648
  H   0.80742971523917      0.01169788901589     -1.36463112907837
  N   -1.59721710621187      0.83675977019482     -0.57820164558696
  O   -2.20769440885191      1.78605040356961     -0.12007449032362
  O   -1.67342972251469      0.39463687409308     -1.72298978878234
  N   -1.01257218475985     -1.29409621524089      0.24995580982180
  H   -0.39741938448944     -1.86902519991548      0.81139339803195
  H   -0.99785834546829     -1.62906819053852     -0.70739235329524
  N   1.90545194204973     -0.15954259941873      0.40416377448335
  O   1.90996919448939     -1.38388974974080      0.52551841043594
  O   2.75296967766138      0.61115080354057      0.84198778793548
