14
Coordinates from ORCA-job run
  C   -0.50538517601252      0.04218604745297      0.18780143985621
  C   0.81262722496761      0.39279477983739     -0.48215797498780
  Br  -0.38604673994909      0.68044458930354      2.09721556233064
  H   0.79732062352799      0.02880380958535     -1.51207769048029
  H   0.99655347737318      1.46054562235829     -0.44950412426434
  N   -1.61264582847575      0.92598238078570     -0.39924345978681
  O   -1.27207403207946      1.89994243935001     -1.05901263581287
  O   -2.75542538877861      0.56969015435788     -0.15583289094142
  N   -0.90200313715893     -1.27506480571138      0.00501797943050
  H   -0.17038285994031     -1.92720678250816      0.25531385268217
  H   -1.78464557075972     -1.48221174548709      0.45314539563201
  N   1.96723230895447     -0.27079127254726      0.19546880936144
  O   1.89423472171605     -1.48548141509234      0.37908770315175
  O   2.92264037661510      0.43936619831509      0.48377803382882
