14
Coordinates from ORCA-job run
  C   -0.50580212011209      0.12206123370526      0.14892844608025
  C   0.84315596912409      0.18934824982119     -0.54744936513188
  Br  -0.38576713868119      1.29599072055713      1.78449309373391
  H   0.82533711011385     -0.46400850482320     -1.42279889767099
  H   1.08927887377760      1.20747528906218     -0.82636590328017
  N   -1.54781117660261      0.84374348855884     -0.71418829758127
  O   -1.13804101208392      1.55514159185263     -1.62302211935404
  O   -2.71390246120646      0.63731381067527     -0.41469811288502
  N   -0.97553153789580     -1.16766297277052      0.35283546715344
  H   -1.87673733061778     -1.18674318172640      0.81132734539351
  H   -0.28803622755331     -1.75178178352890      0.81033391791205
  N   1.94373093032028     -0.29957123994654      0.33701955170677
  O   1.79601547464162     -1.39881704541111      0.87031974008641
  O   2.93411064677574      0.41451034397412      0.43426513383700
