14
Coordinates from ORCA-job run
  C   -0.47990811813990     -0.08844445007948      0.44448263182239
  C   1.01324673840243      0.16221963538847      0.47440624761315
  Br  -1.06516322542367     -0.03399936525788      2.37607046603867
  H   1.51502529664433     -0.56904859949147      1.10462119037307
  H   1.22097695600010      1.17796663784407      0.80444120015202
  N   -1.23194983975912      1.09958316537265     -0.16975858042123
  O   -0.78933676757305      2.21186788821834      0.06393839693365
  O   -2.24315251290424      0.82566804080837     -0.80212329823303
  N   -0.81131252874751     -1.23705831013345     -0.25802849190702
  H   -1.80543702707299     -1.34377187635496     -0.40622339702632
  H   -0.38535896208072     -2.07280382719230      0.11795428048917
  N   1.55748275737532     -0.00154914442347     -0.90840124743153
  O   2.38512788458177     -0.89221316352963     -1.08005017761396
  O   1.11975934869721      0.76258336883083     -1.76132922078908
