14
Coordinates from ORCA-job run
  C   -0.46806742820178      0.15832890617617      0.30721184133762
  C   0.82424832696200      0.40100494225535     -0.46448240673443
  Br  -0.58234297453245      1.26479333696470      1.90661106601183
  H   1.05947713879335      1.45909990995890     -0.51702097307502
  H   0.73731527108907     -0.02648558766341     -1.46461076623713
  N   -1.60731094966207      0.72557560422736     -0.60983189709547
  O   -2.67103275659030      0.12193655934636     -0.57738380287121
  O   -1.34812290777176      1.72328753453449     -1.27117043062300
  N   -0.64272602765838     -1.18186395431757      0.64578740862816
  H   -1.55465885619040     -1.37010722436458      1.03859624635213
  H   -0.42150057014481     -1.81634770965438     -0.11108079191646
  N   1.94898759662868     -0.30701078850434      0.20660931069120
  O   2.57270521692148      0.31321009108650      1.06148216938040
  O   2.15302892035735     -1.46642162004553     -0.14971697384860
