14
Coordinates from ORCA-job run
  C   -0.52470516670243      0.13514053566722      0.35665662755306
  C   0.73537120095878      0.32612991352645     -0.50606879029116
  Br  -0.23571867292876      0.94754268973553      2.07883437501610
  H   0.59220071102330     -0.19057859853519     -1.45678529626145
  H   0.95482781374094      1.38202797044971     -0.65891511865617
  N   -1.60382725286681      0.90606295539955     -0.43522330482063
  O   -2.05292782026203      1.95727211362108     -0.01440856646611
  O   -1.89414131554386      0.35155073563161     -1.49347383190425
  N   -1.04891989106886     -1.17562926958762      0.53186947661375
  H   -1.20871365131639     -1.60084400814831     -0.37490118647752
  H   -0.39512113911612     -1.74326857175913      1.05560199878148
  N   1.92940299246375     -0.27677023514228      0.14616037166271
  O   1.86962643881973     -1.47948416308399      0.39829537098522
  O   2.88264575279875      0.46084793222538      0.37235787426496
