14
Coordinates from ORCA-job run
  C   -0.43719275546861     -0.25797297313687      0.37643662637271
  C   0.89131206751385     -0.42922423033191     -0.34055582513164
  Br  -0.17644656493529     -0.17438432336023      2.28080603036184
  H   0.73225378232016     -0.37023123614422     -1.41931213221689
  H   1.32645838322810     -1.38480584415676     -0.06002016921501
  N   -1.10667246204896      1.06386686826009     -0.12153706087558
  O   -1.50904828961393      1.89779045345290      0.66771384536560
  O   -1.23652431046172      1.08071869566748     -1.34314588078965
  N   -1.26135779350523     -1.37236863833125      0.05690790485623
  H   -2.11021937183078     -1.37644723543350      0.60926188554042
  H   -1.49184994201367     -1.36034369088385     -0.93117662232707
  N   1.87990976934057      0.63111198332476      0.00139476400785
  O   3.03227077232340      0.26657901407324      0.20964653045433
  O   1.46810671515210      1.78771115700014      0.01458010359692
