14
Coordinates from ORCA-job run
  C   -0.50921832058926     -0.26245517369294      0.21470093235849
  C   0.90886130306346     -0.29115432850805     -0.34570203657951
  Br  -0.57298834723847     -0.35259686920949      2.19413243094289
  H   0.83653772303083     -0.12442991716364     -1.41897827571527
  H   1.33498557710841     -1.27454603478959     -0.13905659241012
  N   -1.19180251896025      1.06325272846176     -0.11737789912850
  O   -2.40659228326354      1.03355857011952     -0.25874695024566
  O   -0.46648306386602      2.04600242617176     -0.18630155390355
  N   -1.24534777348358     -1.27783018640521     -0.42911424652264
  H   -2.23547380274935     -1.17675910538437     -0.23884600827008
  H   -0.92960391249704     -2.19591068570548     -0.14382034176543
  N   1.89864215956563      0.70444621509119      0.17050393431535
  O   2.34438030530358      1.50258907881695     -0.64745950056694
  O   2.23210295457560      0.60583328219759      1.34606610749096
