14
Coordinates from ORCA-job run
  C   -0.49100866314066     -0.14965585579912      0.53923732293688
  C   0.97214607834292      0.24778178307322      0.53448158798703
  Br  -1.16859070183031      0.21704678270678      2.32918362776949
  H   1.11422603495433      1.26730347745938      0.88081992767023
  H   1.53457551687275     -0.44643231452136      1.15918078924833
  N   -1.26999667437513      0.84866773876749     -0.37364540705516
  O   -2.28037146545984      0.40998972250974     -0.90400702656829
  O   -0.82196840520162      1.98392729721485     -0.46871886355830
  N   -0.72032189692011     -1.49755485773551      0.22503855895639
  H   -0.40384956447161     -1.68345050472791     -0.71983290015067
  H   -1.70154458596188     -1.73088740115086      0.30710960409063
  N   1.58617401093968      0.19108512283419     -0.83334145328177
  O   0.91907248557657     -0.27386739943692     -1.75687317301995
  O   2.73045783067488      0.61404640880599     -0.91563259502484
