14
Coordinates from ORCA-job run
  C   -0.52383627595597     -0.16496471669052      0.36907228159809
  C   0.82316980463510     -0.40833643437194     -0.30453469436647
  Br  -0.28946172215558     -0.06725768424898      2.27547337207498
  H   0.69113758866299     -0.34929513714512     -1.38682077520345
  H   1.21120188956869     -1.38126682158800     -0.00947202453957
  N   -1.12403300102331      1.14130162787628     -0.18537334493156
  O   -1.46037935670285      2.03721290516047      0.56306189907917
  O   -1.25186847955779      1.10537108683208     -1.40632602979118
  N   -1.51208352703859     -1.15768258479871      0.06831232715904
  H   -1.30702847319013     -2.03376220124282      0.52950296115209
  H   -1.59166488235478     -1.28663981801492     -0.93413005390226
  N   1.85640572880877      0.60260034671261      0.05829616307208
  O   1.51609460406151      1.77983517605418     -0.02127817087767
  O   2.96234610224195      0.18288425546534      0.38321608947670
