14
Coordinates from ORCA-job run
  C   -0.51789462526884     -0.19164044874177      0.49978766561393
  C   0.99480387775639     -0.09656295725566      0.54113695679140
  Br  -1.13373293478972     -0.19272587524945      2.34838126005867
  H   1.40248423339270     -1.02766809148194      0.93528424606981
  H   1.32924583712049      0.74516045088169      1.14052691537227
  N   -1.07398554866439      1.14488607790113     -0.08489879909990
  O   -0.41224044498505      2.15627678640849      0.10939397791395
  O   -2.14204251815617      1.06661990944732     -0.67434523449940
  N   -1.00282648493180     -1.33652959355029     -0.15031420750942
  H   -0.71609670359836     -1.31992124793841     -1.12247192096364
  H   -2.01190443396744     -1.38912092281515     -0.09496545897473
  N   1.60324405790770      0.10016168975785     -0.81605156916947
  O   2.80862925057450      0.30489423248186     -0.82909160890782
  O   0.87031643760994      0.03516999015436     -1.80237222269565
