14
Coordinates from ORCA-job run
  C   -0.58470055524564     -0.10419864436606      0.46177278604365
  C   0.92199069763947     -0.00978799970677      0.60871442887459
  Br  -1.25610742291795     -0.05305283563924      2.35565537107396
  H   1.21168675632018      0.93679824499385      1.06276306843780
  H   1.30461551243463     -0.84154470216527      1.19789773688357
  N   -1.12975750689298      1.19431332569565     -0.15635532959006
  O   -0.64094194945211      2.23359674148885      0.25530292839067
  O   -2.01378800860197      1.08131940830280     -0.99369977382370
  N   -1.06912598792926     -1.19469052345073     -0.24180662263003
  H   -1.54815897588698     -0.96926608378779     -1.09923194919648
  H   -0.47214796515095     -2.00409943116941     -0.27679976576358
  N   1.58957308756225     -0.08041061460997     -0.72932808050443
  O   1.01097436530530      0.45655187286117     -1.67053323996725
  O   2.67688795281598     -0.64652875844712     -0.77335155822875
