14
Coordinates from ORCA-job run
  C   -0.51899995261292      0.07120886884042      0.13591498704823
  C   0.85936688993972      0.32048032421254     -0.45310363990190
  Br  -0.55352531878824      0.94597628936896      1.95207159258115
  H   1.06313339565699      1.38167779680081     -0.53853560436751
  H   0.92488516978978     -0.17085091836748     -1.42663132983425
  N   -1.55196426180125      0.88323401164691     -0.65519975830995
  O   -2.71914148089025      0.57525297739800     -0.46828927846359
  O   -1.13432982895091      1.75892005039926     -1.40268481815985
  N   -0.92619807312164     -1.25467801460487      0.08588719283940
  H   -1.84851108208152     -1.39392689874928      0.47669374476599
  H   -0.23308219291865     -1.87707733099218      0.48004847871183
  N   1.93649316124682     -0.26360715428704      0.40212398942893
  O   2.87822383847463      0.46786202558914      0.68233557948870
  O   1.82264973605743     -1.44447202725521      0.72936886417278
