14
Coordinates from ORCA-job run
  C   -0.50583995754513     -0.18724540361717      0.38322146865474
  C   0.81206330857034     -0.38479887519266     -0.35931399121648
  Br  -0.18921765794648     -0.17773501464629      2.28006460461744
  H   0.63223615343969     -0.27514268980601     -1.43072285928771
  H   1.22006204838913     -1.36701590670363     -0.12903499542649
  N   -1.14039750872159      1.13765608968629     -0.08166686505771
  O   -1.45183517455649      1.99306171668845      0.72288994007055
  O   -1.32060447568299      1.15879944082886     -1.29627073811395
  N   -1.49833127586473     -1.17468648184257      0.07838990279802
  H   -1.61803787837565     -1.25937068715768     -0.92478726254032
  H   -1.26763449795019     -2.06854077014468      0.49076868210077
  N   1.85234109371512      0.61780868092964      0.00649894454965
  O   1.49947930706322      1.79401914512880     -0.00161191264529
  O   2.97471651546581      0.19419075584872      0.26257508149676
