14
Coordinates from ORCA-job run
  C   -0.43797110887971     -0.21858036766376      0.56061195826691
  C   1.04137345711117      0.09297594869529      0.44594627830212
  Br  -0.88353596541388     -0.14825474292579      2.45652166229609
  H   1.29706853225983      1.02301437520806      0.94523027822212
  H   1.61612728663566     -0.73250919908232      0.86630106952087
  N   -1.23616127300553      0.97016429793970     -0.06098407199153
  O   -2.32919546333420      0.69099017013006     -0.53202718791860
  O   -0.71749021366184      2.07781751947412     -0.00972592743774
  N   -0.80156709299164     -1.47234300907145      0.04628923778974
  H   -0.60711578817460     -1.49888696582520     -0.94826038116990
  H   -1.78278103127488     -1.66228638896525      0.20519943859627
  N   1.49377371420416      0.25370093844803     -0.97552527303892
  O   0.69462561703335      0.00353783330516     -1.87714207991982
  O   2.65084932949202      0.62065959033342     -1.12243500151768
