14

C	-0.51594	-0.037528	-1.414696
C	0.0	0.0	0.0
F	-0.166001	-1.267072	-1.978471
H	1.092812	0.0	0.0
H	-0.01921	0.728555	-2.021177
H	-0.369022	-0.900668	0.510929
N	-1.952477	0.103915	-1.586614
H	-2.418823	-0.218742	-0.747718
H	-2.192023	1.077034	-1.7121
C	-0.441427	1.260694	0.737343
H	-1.526702	1.356259	0.872124
H	-0.086417	2.148528	0.202448
H	0.029481	1.284406	1.722851
F	2.740864	0.0	0.0
