16

C	0.0	0.0	0.0
C	-0.407076	0.042276	-1.465822
F	1.4125	0.0	0.0
H	-1.501218	0.12184	-1.459955
H	-0.131833	-0.934013	-1.905192
C	-0.443184	1.235601	0.74764
H	-1.537895	1.259938	0.727022
H	-0.087102	1.167227	1.778473
H	-0.035365	2.12251	0.262508
N	-0.497164	-1.164585	0.671578
H	-0.368094	-1.968387	0.061109
H	-1.518736	-1.00503	0.713473
N	0.196123	1.177928	-2.169214
H	1.194849	1.020051	-2.227619
H	-0.167951	1.213325	-3.113835
H	-3.254874	0.0	0.0
