16

C	0.0	0.0	0.0
C	-0.443682	0.140322	-1.455185
F	1.429442	0.0	0.0
H	-0.412397	-0.872994	-1.901593
H	0.329428	0.732985	-1.96127
C	-0.432953	1.155259	0.874267
H	-1.519174	1.152128	0.969224
H	-0.114828	2.09895	0.430677
H	0.035828	1.046588	1.85898
N	-0.462123	-1.228739	0.544146
H	-0.056547	-2.010183	0.044678
H	-0.231797	-1.296752	1.527695
N	-1.71667	0.829274	-1.53968
H	-2.062325	0.803438	-2.492824
H	-2.461819	0.400456	-0.948058
H	-3.968343	0.0	0.0
