16

C	0.0	0.0	0.0
C	-0.533307	0.167819	-1.407995
F	1.419595	0.0	0.0
H	-1.627048	0.126407	-1.283265
H	-0.221741	-0.708529	-2.003539
C	-0.496955	1.089577	0.91626
H	-0.086975	0.949591	1.922618
H	-1.590828	1.020048	0.94106
H	-0.179397	2.0575	0.524528
N	-0.414909	-1.285058	0.47518
H	0.087933	-2.005073	-0.029904
H	-0.214207	-1.374664	1.462447
N	-0.121915	1.442222	-2.009544
H	0.632363	1.296191	-2.662189
H	-0.899598	1.844848	-2.512131
H	-3.769763	0.0	0.0
