16

C	0.0	0.0	0.0
C	-0.49394	-0.036896	-1.434647
F	1.396384	0.0	0.0
H	-0.145227	-0.982133	-1.867211
H	-1.58854	-0.069977	-1.349773
C	-0.419	1.278009	0.702051
H	-1.513274	1.296384	0.728254
H	-0.018572	1.273104	1.722664
H	-0.029582	2.144445	0.165431
N	-0.47499	-1.202867	0.641657
H	-0.289897	-1.11207	1.636468
H	-1.500552	-1.14357	0.546615
N	-0.058891	1.135555	-2.204022
H	-0.855757	1.515498	-2.697978
H	0.633734	0.868098	-2.890199
H	-3.300404	0.0	0.0
