18

C	-0.551979	-0.081053	-1.415977
C	0.0	0.0	0.0
F	-0.439694	1.128472	-2.046148
H	1.097836	0.0	0.0
N	0.30509	-1.044108	-2.266031
O	0.453119	-2.162272	-1.787957
O	0.709082	-0.671617	-3.359025
N	-1.890349	-0.554518	-1.494861
H	-2.467539	0.105751	-1.997659
H	-2.220919	-0.745956	-0.555668
N	-0.541464	-1.136258	0.774616
H	-0.078859	-1.969769	0.42192
H	-0.192884	-1.01267	1.719315
C	-0.456997	1.295123	0.651586
H	-1.548461	1.370463	0.707982
H	-0.05567	2.15519	0.116048
H	-0.051447	1.327632	1.667229
H	2.918764	0.0	0.0
