18

C	-0.609376	-0.02135	-1.378827
C	0.0	0.0	0.0
F	0.027647	0.909139	-2.206403
H	1.092447	0.0	0.0
N	-0.33567	-1.343923	-2.091404
O	-1.178472	-1.717157	-2.914003
O	0.731663	-1.892529	-1.869408
N	-2.009049	0.164986	-1.380396
H	-2.370958	0.009845	-2.311062
H	-2.203865	1.108464	-1.081851
N	-0.428615	-1.211911	0.692484
H	-1.180342	-1.014266	1.340072
H	0.370734	-1.565	1.20618
C	-0.375719	1.2916	0.722533
H	-1.42362	1.308575	1.040331
H	-0.174433	2.165314	0.099031
H	0.257659	1.373301	1.605308
H	2.900674	0.0	0.0
