18

C	-0.242603	-0.097296	-1.51273
C	0.0	0.0	0.0
F	-1.479134	-0.660415	-1.826955
H	1.09563	0.0	0.0
N	-0.401888	1.323561	-2.141583
O	0.582776	1.804699	-2.698193
O	-1.487393	1.885327	-2.018652
N	0.788207	-0.827699	-2.093642
H	1.684622	-0.620887	-1.622069
H	0.86062	-0.687242	-3.091694
N	-0.418867	-1.235097	0.660669
H	0.285765	-1.938286	0.461773
H	-1.288693	-1.559052	0.253091
C	-0.57122	1.214816	0.696764
H	-1.65986	1.273564	0.605219
H	-0.30983	1.128435	1.752665
H	-0.137345	2.140643	0.312014
H	2.879051	0.0	0.0
