18

C	-0.292291	0.001544	-1.484816
C	0.0	0.0	0.0
F	0.013644	-1.233546	-1.98683
H	1.105808	0.0	0.0
N	-1.785966	0.185647	-1.756527
O	-2.473918	-0.810861	-1.937983
O	-2.204049	1.345206	-1.71212
N	0.421626	0.97321	-2.24154
H	1.386463	0.930688	-1.901987
H	0.044369	1.888402	-2.035167
N	-0.584588	-1.18664	0.638769
H	-0.214601	-1.996534	0.152139
H	-0.175271	-1.228715	1.567832
C	-0.468617	1.245833	0.726294
H	-0.03109	1.23826	1.729442
H	-1.557231	1.276362	0.81583
H	-0.119321	2.156157	0.236492
H	2.899278	0.0	0.0
