18

C	-0.237214	-0.020613	-1.495834
C	0.0	0.0	0.0
F	-0.088367	-1.309698	-1.998702
H	1.098053	0.0	0.0
N	-1.684202	0.275186	-1.929214
O	-2.577561	0.154742	-1.092857
O	-1.864316	0.56483	-3.111219
N	0.607912	0.906597	-2.116421
H	0.611949	0.774247	-3.118942
H	1.547626	0.784275	-1.717826
N	-0.488245	-1.193984	0.665003
H	-1.306835	-0.977406	1.21874
H	0.245382	-1.527768	1.27861
C	-0.4172	1.312555	0.651314
H	0.0931	1.389617	1.616082
H	-0.113688	2.167183	0.043939
H	-1.498213	1.357982	0.814039
H	2.868197	0.0	0.0
