18

C	-0.550885	-0.061451	-1.417688
C	0.0	0.0	0.0
F	-0.446394	1.155193	-2.034038
H	1.097936	0.0	0.0
N	0.315979	-1.009841	-2.270637
O	0.447361	-2.138586	-1.810974
O	0.753541	-0.614027	-3.340663
N	-1.888903	-0.538761	-1.514152
H	-2.476804	0.167799	-1.93099
H	-2.194458	-0.80587	-0.58465
N	-0.536549	-1.155157	0.749746
H	-0.033697	-1.972908	0.415036
H	-0.237862	-1.025891	1.711846
C	-0.466234	1.279136	0.674417
H	-0.082629	2.152306	0.147595
H	-1.558404	1.33784	0.74154
H	-0.051406	1.302879	1.68672
H	2.914497	0.0	0.0
