18

C	-0.570066	-0.026763	-1.400952
C	0.0	0.0	0.0
F	-0.21595	1.089046	-2.1066
H	1.095138	0.0	0.0
N	0.046594	-1.17788	-2.239921
O	0.661921	-2.069888	-1.669074
O	-0.213796	-1.149278	-3.445061
N	-1.975326	-0.163858	-1.404963
H	-2.312735	-0.432979	-2.320441
H	-2.198679	-0.856421	-0.696722
N	-0.529743	-1.176555	0.721555
H	-0.581292	-0.934016	1.704247
H	0.179518	-1.899311	0.641854
C	-0.440076	1.278714	0.696065
H	-0.176018	2.149701	0.096759
H	0.108071	1.353071	1.639911
H	-1.51693	1.29179	0.889215
H	2.935695	0.0	0.0
