18

C	-0.311945	-0.109976	-1.495264
C	0.0	0.0	0.0
F	-0.505628	-1.413621	-1.861305
H	1.095079	0.0	0.0
N	-1.683097	0.543459	-1.775498
O	-2.670046	-0.069128	-1.38255
O	-1.712815	1.664723	-2.285339
N	0.668089	0.493964	-2.307288
H	1.555959	0.528784	-1.797095
H	0.37689	1.400821	-2.638804
N	-0.498129	-1.1107	0.786447
H	0.267734	-1.455174	1.353158
H	-1.249676	-0.816479	1.396783
C	-0.39396	1.367162	0.54443
H	0.069842	1.489136	1.52598
H	-1.482044	1.464574	0.652364
H	-0.035272	2.176684	-0.094225
H	2.858222	0.0	0.0
