18

C	0.0	0.0	0.0
C	-0.442709	-0.10136	-1.470334
Br	1.99901	0.0	0.0
H	-1.535011	-0.039245	-1.39026
N	-0.400936	1.227933	0.632001
H	-0.214996	1.980153	-0.026827
H	-1.417512	1.154877	0.722926
N	-0.450869	-1.152651	0.722624
H	-1.464743	-1.192425	0.57888
H	-0.304515	-0.959941	1.709251
C	-0.071936	-1.412774	-2.150926
H	-0.543053	-1.454246	-3.13858
H	-0.408178	-2.269094	-1.565628
H	1.011856	-1.488075	-2.278478
N	-0.000215	1.095214	-2.190563
H	0.939597	0.945328	-2.541389
H	-0.611498	1.240474	-2.984799
Br	-3.790431	0.0	0.0
