18

C	0.0	0.0	0.0
C	-0.504693	0.000829	-1.442004
Br	2.039522	0.0	0.0
H	-1.593817	-0.001264	-1.285858
N	-0.425095	1.188636	0.619795
H	-0.04835	1.311363	1.54861
H	-0.237532	1.98097	0.018266
N	-0.411921	-1.202213	0.667829
H	-1.437523	-1.150436	0.667214
H	-0.112272	-1.162092	1.636587
C	-0.100099	-1.229067	-2.237061
H	0.974528	-1.220573	-2.442191
H	-0.639241	-1.237813	-3.189521
H	-0.337083	-2.14014	-1.688359
N	-0.158977	1.273604	-2.079458
H	0.690143	1.166577	-2.624473
H	-0.910589	1.543408	-2.703521
Br	-3.927787	0.0	0.0
