14

C	-0.564571	0.01164	-1.39807
C	0.0	0.0	0.0
Br	-2.541088	0.26694	-1.408779
H	1.091261	0.0	0.0
H	-0.302658	0.944035	0.471742
C	-0.014013	1.075059	-2.225284
N	0.429231	1.936967	-2.88881
N	-0.253313	-1.328455	-2.079027
O	0.900117	-1.412184	-2.47801
O	-1.110546	-2.19282	-2.120805
N	-0.409058	-1.200416	0.701536
H	-1.16479	-1.030218	1.351532
H	0.405528	-1.534498	1.207886
H	2.727019	0.0	0.0
