14

C	-0.511748	-0.020061	-1.417386
C	0.0	0.0	0.0
Br	-0.054332	1.638658	-2.340605
H	1.092395	0.0	0.0
H	-0.359128	0.91211	0.481307
C	-0.004154	-1.146993	-2.187115
N	0.413101	-2.051648	-2.808745
N	-2.050428	-0.09226	-1.44363
O	-2.577409	-0.692133	-2.373243
O	-2.637864	0.486516	-0.538016
N	-0.45853	-1.234836	0.627089
H	0.341506	-1.669601	1.068337
H	-1.163038	-1.051485	1.324653
H	2.810514	0.0	0.0
