14

C	-0.526409	0.070505	-1.426016
C	0.0	0.0	0.0
Br	0.235771	-1.383288	-2.513206
H	1.090312	0.0	0.0
H	-0.331126	-0.965213	0.398762
C	-1.977941	-0.036708	-1.501576
N	-3.148818	-0.142237	-1.447123
N	-0.142504	1.373645	-2.123469
O	-0.825075	1.704627	-3.091849
O	0.835005	1.964677	-1.687613
N	-0.465835	1.082793	0.845403
H	-1.445209	1.305411	0.717008
H	0.104781	1.90117	0.681432
H	2.825343	0.0	0.0
