14

C	-0.579085	0.006563	-1.398619
C	0.0	0.0	0.0
Br	0.311401	-1.309697	-2.554526
H	1.089403	0.0	0.0
H	-0.337815	0.919149	0.494922
C	-2.006026	-0.293693	-1.409419
N	-3.155773	-0.52865	-1.330235
N	-0.394973	1.362769	-2.071204
O	-1.128742	1.614881	-3.024437
O	0.48994	2.082087	-1.626375
N	-0.421674	-1.227509	0.666214
H	0.405862	-1.628549	1.093995
H	-1.106046	-1.045011	1.38593
H	2.77023	0.0	0.0
