14

C	-0.430274	-0.05303	-1.474245
C	0.0	0.0	0.0
Br	0.186494	1.506378	-2.461214
H	1.092574	0.0	0.0
H	-0.356197	-0.939253	0.440919
C	0.054828	-1.24653	-2.1531
N	0.413878	-2.2065	-2.72797
N	-1.953086	-0.087947	-1.501912
O	-2.467635	-1.205693	-1.462218
O	-2.554457	0.981913	-1.408505
N	-0.45863	1.14337	0.742583
H	-1.401205	1.428321	0.50348
H	0.177412	1.913281	0.577323
H	2.7382	0.0	0.0
