17

C	0.0	0.0	0.0
C	-0.539012	0.149703	-1.436403
Cl	1.801082	0.0	0.0
H	-1.633391	0.03818	-1.327546
C	-0.394367	1.163004	0.801825
N	-0.571758	2.114901	1.466987
C	-0.486423	-1.290808	0.640166
H	-0.1195	-2.140335	0.060668
H	-1.581371	-1.269471	0.636983
H	-0.113148	-1.365511	1.663313
C	-0.032967	-0.945523	-2.265057
N	0.384799	-1.797888	-2.958788
C	-0.227575	1.497416	-2.08348
H	-0.63397	1.521754	-3.095924
H	-0.697351	2.296164	-1.507771
H	0.849052	1.673299	-2.137138
Cl	-3.591963	0.0	0.0
