17

C	0.0	0.0	0.0
C	-0.563456	0.128401	-1.430054
Cl	1.794922	0.0	0.0
H	-1.655705	0.013875	-1.291929
C	-0.392811	1.173874	0.786817
N	-0.62594	2.112243	1.453986
C	-0.488042	-1.277076	0.668953
H	-0.098248	-1.340404	1.686754
H	-1.581289	-1.246586	0.681336
H	-0.138656	-2.138921	0.097227
C	-0.076387	-0.976531	-2.253544
N	0.300291	-1.855212	-2.936457
C	-0.281856	1.474147	-2.096374
H	-0.696386	1.476308	-3.106206
H	-0.769497	2.266898	-1.527222
H	0.789468	1.675037	-2.155279
Cl	-3.647469	0.0	0.0
