17

C	0.0	0.0	0.0
C	-0.437743	0.226952	-1.472253
Cl	1.790632	0.0	0.0
H	-0.133536	-0.682485	-2.007461
C	-0.381808	1.158511	0.818583
N	-0.65185	2.086037	1.487258
C	-0.577797	-1.280498	0.574973
H	-0.303293	-2.124201	-0.062531
H	-1.666805	-1.192415	0.627736
H	-0.184634	-1.450434	1.578496
C	0.308967	1.336874	-2.075958
N	0.877413	2.215077	-2.609947
C	-1.93579	0.474229	-1.644236
H	-2.562818	-0.307884	-1.220389
H	-2.242286	1.397125	-1.150872
H	-2.159478	0.559868	-2.710629
Cl	-4.76764	0.0	0.0
