17

C	-0.394348	-0.004113	-1.467301
C	0.0	0.0	0.0
Br	0.111278	1.58796	-2.440098
H	1.096902	0.0	0.0
H	0.067363	-0.841472	-1.987176
N	-1.879102	-0.216856	-1.618921
O	-2.640099	0.714069	-1.371442
O	-2.228294	-1.362953	-1.910474
C	-0.444514	-1.31554	0.642294
H	0.013774	-1.390948	1.631059
H	-0.113244	-2.178232	0.058946
H	-1.53217	-1.374496	0.759486
C	-0.48768	1.199861	0.800166
H	-1.577499	1.221282	0.889764
H	-0.15632	2.137933	0.35342
H	-0.054413	1.142201	1.801833
Br	3.564094	0.0	0.0
