17

C	-0.562965	-0.044955	-1.409413
C	0.0	0.0	0.0
Br	0.234129	-1.408021	-2.528563
H	1.095025	0.0	0.0
H	-1.637778	-0.228198	-1.409336
N	-0.419384	1.290267	-2.091389
O	-1.462018	1.945263	-2.178912
O	0.690593	1.657937	-2.443643
C	-0.46084	-1.241046	0.760818
H	-1.554653	-1.281587	0.841126
H	-0.106988	-2.15533	0.281901
H	-0.040902	-1.217155	1.769013
C	-0.46966	1.272405	0.706645
H	-1.561951	1.363797	0.713667
H	-0.113675	1.246953	1.73901
H	-0.045757	2.165559	0.2436
Br	3.617264	0.0	0.0
