15
Coordinates from ORCA-job run
  C   -0.34434918135379     -0.22327476679575      0.94891984402270
  C   0.88527112689776      0.00019074702803      0.08071649436408
  Cl  -0.18899951375130     -1.86783022136956      1.63517880707889
  H   1.80048897476494     -0.14592687323113      0.65535744129256
  H   -0.24211819203440      0.46564553154470      1.78722088324567
  C   -1.69642612955601     -0.04567615272048      0.28717085539599
  H   -1.77257894848369      0.94726633052677     -0.15929301726093
  H   -2.47060361389940     -0.13898159560773      1.04997652594971
  H   -1.86932401566632     -0.79514549476885     -0.48161002139478
  N   0.94417824511102      1.41342182087418     -0.45416439052922
  O   0.49619692424166      2.27979815288601      0.28898304157409
  O   1.49840161010863      1.58158596487499     -1.53111520993181
  N   0.96662615486030     -0.92966480579218     -1.08561141089621
  O   1.92569354546651     -1.69451915442107     -1.10582384561670
  O   0.06754301329410     -0.84788948302791     -1.91590599729406
