15
Coordinates from ORCA-job run
  C   -0.46198091335085     -0.46856053675687      0.65607930736509
  C   0.42894353524248     -0.23753224818680     -0.54240691564938
  Cl  -0.89303095349042     -2.20134527844142      0.64281826743540
  H   -0.00661312713086     -0.57267801298076     -1.48082214540218
  H   0.12522099474422     -0.29535338660183      1.55773693666852
  C   -1.70858859045447      0.39449201123054      0.61299397262738
  H   -2.36776545078759      0.12289054127262      1.43763281948760
  H   -2.25210498961321      0.25829139511775     -0.32388177037659
  H   -1.44533810886090      1.44891690003666      0.72316084854195
  N   1.76486810629106     -0.91740821547749     -0.41430332349462
  O   2.29942535390748     -1.21552793106508     -1.47922687950433
  O   2.21809688980994     -1.08110380978573      0.71155942305053
  N   0.71174480063109      1.23017507968663     -0.67679473601642
  O   0.22084310193370      1.79205528298176     -1.65057680228115
  O   1.36527935112832      1.74368820897001      0.22603099754818
