15
Coordinates from ORCA-job run
  C   -0.40949011860218     -0.45306615778144      0.69918764366367
  C   0.42036397100666     -0.24198973946540     -0.54565375596384
  Cl  -0.73914125739354     -2.20530033942876      0.79967837904283
  H   -0.03245034808165     -0.65012879793194     -1.44619276817675
  H   0.19989788863496     -0.19560874790295      1.56524915891045
  C   -1.70506964925536      0.33461363725028      0.65874531765097
  H   -2.31408468896966      0.07808401943177      1.52569585099385
  H   -1.49930590914514      1.40681060500603      0.69467634440275
  H   -2.27646763623145      0.11025219021092     -0.24395529116046
  N   1.79443838518728     -0.84595224264184     -0.43707740758627
  O   2.29536400069573     -1.19219845651726     -1.50380168901878
  O   2.30446813750132     -0.90844406804255      0.67449543791416
  N   0.62000107659892      1.22844094338304     -0.76836437348597
  O   1.26127631167552      1.82655268535818      0.09017999461755
  O   0.08219983637860      1.70693446907192     -1.76186284180416
