15
Coordinates from ORCA-job run
  C   -0.64231478185963      0.27438616382895      0.63758573666462
  C   0.52052319437690      0.36118902831281     -0.33278641709795
  Cl  -0.16937102727893     -0.47418329807774      2.18181842707663
  H   0.27144501464877      1.03251569243076     -1.15562469537417
  H   -0.88085958785476      1.31251037902517      0.87842806119039
  C   -1.84793688823450     -0.42114354867610      0.03084926139184
  H   -1.64916241532093     -1.48141145130096     -0.11857929370420
  H   -2.70142685767469     -0.32088294358761      0.70161638897813
  H   -2.10824597647176      0.03791316883427     -0.92757799723257
  N   0.94622813292717     -0.92296135182168     -0.97016793409628
  O   1.45478818870524     -0.79867636280578     -2.08196609118175
  O   0.78507694632203     -1.96629549183939     -0.34828187121026
  N   1.72884181601330      0.96693931755378      0.33641917030812
  O   1.55521179048260      2.11472392117314      0.72521992285078
  O   2.73720245121918      0.28537677695037      0.44504733143668
