15
Coordinates from ORCA-job run
  C   -0.38186055314836     -0.45466706790061      0.68620013668053
  C   0.35098267198598     -0.18335692044312     -0.61395927378517
  Cl  -0.83789378765393     -2.19129950681285      0.63969918078735
  H   -0.22853683942341     -0.45227397019172     -1.49492370759783
  H   0.33033620608745     -0.36224403757807      1.50721561323804
  C   -1.62501946286015      0.38738484185534      0.88971127361661
  H   -1.38949918368099      1.45143788199986      0.92835676373488
  H   -2.09414890333035      0.09830256172350      1.83047776912338
  H   -2.33675959027277      0.21288070835118      0.08143966185373
  N   1.61761037863666     -0.98181633367174     -0.69021676153667
  O   2.32805065630857     -1.02514767423306      0.30719811194084
  O   1.91586258990565     -1.38390384833959     -1.81455875958278
  N   0.70879338687557      1.27021634664856     -0.72881472844051
  O   1.82018048030694      1.62576184282212     -0.34998312650021
  O   -0.17809804973687      1.98972517577019     -1.17784215353221
