14

C	0.0	0.0	0.0
C	-0.480085	0.152531	-1.435572
Br	1.970279	0.0	0.0
H	0.008037	1.028939	-1.872348
H	-0.230987	0.91611	0.554785
H	-1.553993	0.359968	-1.369548
N	-0.508824	-1.201794	0.592771
H	-0.348748	-1.17829	1.593353
H	-1.52437	-1.161728	0.451343
C	-0.249711	-1.080481	-2.301698
H	0.793324	-1.403037	-2.270265
H	-0.509386	-0.861194	-3.341254
H	-0.873575	-1.907579	-1.966484
Br	-3.820029	0.0	0.0
