18

C	0.0	0.0	0.0
C	-0.564948	-0.129681	-1.436084
F	1.362574	0.0	0.0
H	-1.240859	-0.980882	-1.411413
C	-0.504059	1.156071	0.808563
H	-1.584273	1.005654	0.907973
H	0.006297	1.175619	1.770357
H	-0.30682	2.066493	0.244017
N	-0.295881	-1.309352	0.764551
O	-0.388767	-2.352127	0.124259
O	-0.27803	-1.251123	1.992169
N	0.519275	-0.439835	-2.360181
H	1.040447	0.41693	-2.518878
H	0.096283	-0.697896	-3.245087
N	-1.303647	1.090805	-1.771674
H	-1.640244	0.949002	-2.721992
H	-2.139065	0.960318	-1.154023
F	-2.916575	0.0	0.0
