18

C	0.0	0.0	0.0
C	-0.542815	0.067348	-1.421297
F	1.372466	0.0	0.0
H	-1.635036	-0.002078	-1.251501
C	-0.550319	1.062016	0.905112
H	-0.156105	0.922736	1.912953
H	-1.64627	0.919807	0.841878
H	-0.260152	2.032607	0.505695
N	-0.330007	-1.358116	0.648034
O	0.1353	-1.522272	1.775999
O	-0.97567	-2.204018	0.040155
N	-0.063806	-0.988074	-2.318854
H	0.916056	-1.170111	-2.117354
H	-0.571633	-1.833442	-2.092028
N	-0.195899	1.390223	-1.938698
H	-0.751717	1.516808	-2.776415
H	0.772939	1.360035	-2.244085
F	-2.936085	0.0	0.0
