12
Coordinates from ORCA-job run
  C   -0.66157847682485     -0.25594622312326     -0.53800360971187
  C   0.55714745786712     -0.71730400070496      0.23404052960467
  Cl  -1.69078758461891     -1.70124523509856     -0.75357014374818
  H   0.26928825123929     -1.05996739388804      1.22685823118790
  H   -0.37594924592823      0.05632949631488     -1.54675525895726
  H   1.09885660723842     -1.50638116634898     -0.28961877551930
  N   -1.39273278826053      0.72754492954093      0.22728196039092
  H   -0.89056449009865      1.60667250826549      0.17207254610160
  H   -2.31045561281642      0.86587223046375     -0.17773030379901
  N   1.54435466810053      0.39100663978618      0.43664586883221
  O   1.41072820661653      1.41703665635773     -0.23107601635769
  O   2.44369300748572      0.17438155843483      1.23885497197601
