12
Coordinates from ORCA-job run
  C   -0.76371066146119     -0.33346626156105     -0.46747619342869
  C   0.54523157064415     -0.74228739859524      0.20440355026881
  Cl  -1.83693090509611     -1.77670976758006     -0.34078731793176
  H   0.39451235513406     -0.99080196118893      1.25357267437014
  H   -0.58937264334586     -0.17565470699204     -1.53101195045543
  H   1.03244789278522     -1.55923891838068     -0.32732070996976
  N   -1.39337998151636      0.82052775643240      0.07400488023555
  H   -1.34027505321746      0.87317772431124      1.08169135839321
  H   -1.06474867990274      1.67401079359059     -0.35243575460273
  N   1.45768935450174      0.43233005010074      0.15470950209069
  O   1.80792011979822      0.80097308086011     -0.96523036440679
  O   1.74961663167633      0.97913960900292      1.21588032543675
