12
Coordinates from ORCA-job run
  C   -0.77555594406062     -0.26024848803415     -0.35094966230218
  C   0.64095496073671     -0.68432998235997     -0.02311927629782
  Cl  -1.73927296926551     -1.76369482619030     -0.43019523239841
  H   0.67955077393190     -1.14611367188276      0.96241208084202
  H   -0.82006860194570      0.17202836759650     -1.35482708009539
  H   1.04792449156145     -1.36772091700511     -0.76992677866394
  N   -1.30135419164353      0.57596263440613      0.70344663267736
  H   -0.88971517171968      1.49779351945653      0.60941099839772
  H   -2.30437651115796      0.66934104814975      0.60060024352374
  N   1.57961248590342      0.48245384263196      0.01686841723196
  O   1.19674436613185      1.55221374609260     -0.45791394498831
  O   2.68655631152767      0.27031472713881      0.49519360207324
