12
Coordinates from ORCA-job run
  C   -0.75749202902868     -0.29767577829034     -0.01622090690463
  C   0.61735013837199      0.35804190823168     -0.02150650625032
  Cl  -1.15958934063924     -0.69976032347770      1.68236396852194
  H   0.88940160779449      0.62259231570351     -1.04598872644606
  H   -0.70584417109077     -1.24305326307940     -0.55516808237715
  H   0.64939039083942      1.23094320189052      0.62865949939693
  N   -1.79880139744469      0.51036166341482     -0.57892893500877
  H   -1.79052911881907      1.45288858068158     -0.21137151835235
  H   -1.74383098113523      0.52781484074634     -1.58856448943219
  N   1.67073385991189     -0.58373181338165      0.45674511724517
  O   2.41400589002831     -0.20279223838945      1.35546957100325
  O   1.71420515121159     -1.67562909404992     -0.10548899139580
