12
Coordinates from ORCA-job run
  C   -0.84650946045576     -0.39346743741456     -0.24054600476121
  C   0.67788909010987     -0.54891495506794     -0.25991167267707
  Cl  -1.42216577900078     -1.03785337027008      1.33883955449632
  H   0.97310037448558     -1.59006624963656     -0.14919869133926
  H   -1.23646598195971     -1.07787113685107     -0.99705427427147
  H   1.07416448611367     -0.12327945511231     -1.18444317618325
  N   -1.39438231414426      0.90161623270616     -0.47527157264090
  H   -1.42250917254384      1.11254037035517     -1.46322616703047
  H   -0.87871789179582      1.61564110710663      0.02071271926648
  N   1.32985806682713      0.19009016889233      0.85756226600251
  O   1.13763273456359      1.40587361516667      0.90246086734611
  O   2.00810584780033     -0.45430888987445      1.65007615179220
