12
Coordinates from ORCA-job run
  C   -0.66462748620761     -0.19263332441837     -0.50494113105513
  C   0.61880666718428     -0.69552715919489      0.12566683136886
  Cl  -1.73946619325040     -1.67650713152930     -0.68252140899183
  H   1.08930219942957     -1.45578813993984     -0.49596725438809
  H   -0.47842853949451      0.13621236014723     -1.52522241945460
  H   0.45415581034271     -1.06872225488683      1.13538656896611
  N   -1.21392095095902      0.86204993500291      0.24935225296815
  H   -1.47182221662084      0.58046731862200      1.18621329336586
  H   -2.00168688230987      1.29962716884078     -0.20709976820020
  N   1.56981029365897      0.44970418310812      0.22170642699636
  O   1.91079349884906      0.81695884198571      1.34156182371038
  O   1.92708379937767      0.94415820226248     -0.84413521528586
