12
Coordinates from ORCA-job run
  C   -0.64856617588862     -0.10651328256982     -0.33650939902689
  C   0.69005881389176      0.31971555667787      0.22614022210119
  Cl  -1.41890414018894     -1.24487327634722      0.87314376118322
  H   1.17958088598290      0.98310922416450     -0.48876485848302
  H   -0.49682930206954     -0.71110875239296     -1.22810822079851
  H   0.59317687950763      0.79660466002715      1.20004528389258
  N   -1.42483835111739      1.03919861866017     -0.64323300045308
  H   -2.27306758063930      0.78945862112609     -1.13355686097821
  H   -1.67363766416280      1.55546018694618      0.19132196663414
  N   1.59277573773940     -0.85292426232385      0.40816429671759
  O   1.70140391854374     -1.61248808773758     -0.55076274892208
  O   2.17884697840116     -0.95563920623055      1.48111955813307
