12
Coordinates from ORCA-job run
  C   -0.72593199105817     -0.23746634463349     -0.28408810084433
  C   0.58959073439580      0.30984631400939      0.25451209368464
  Cl  -1.35833277479814     -1.40642721134840      0.91518554804982
  H   0.99783436776367      1.03664688804679     -0.45170582873112
  H   -0.53348519189595     -0.80087022349573     -1.19651405120253
  H   0.46699106389357      0.75241962186578      1.24184314563583
  N   -1.71918130958289      0.76289925079373     -0.54755933705790
  H   -1.49609775555416      1.28591830582937     -1.38423421609033
  H   -1.83770213080223      1.39306329106151      0.23530745773892
  N   1.61504274133611     -0.76586972619096      0.38094069317765
  O   1.81109392687252     -1.44594916287856     -0.62380668800936
  O   2.19017831942986     -0.88521100305944      1.45811928364873
