12
Coordinates from ORCA-job run
  C   -0.77603477850684     -0.33356615896755     -0.44736785136621
  C   0.60029769799123     -0.72289406876639      0.08709031037853
  Cl  -1.75280562156789     -1.84784904424045     -0.40143360207420
  H   0.54235299698628     -1.08554657707007      1.11198442405418
  H   -0.69057025544781     -0.05724128867432     -1.49747225428605
  H   1.09339160568069     -1.44825669260809     -0.55960045782158
  N   -1.42926334684942      0.71660398679305      0.25488886556394
  H   -1.17751203697467      1.62803027865551     -0.09793982658647
  H   -1.30480991791514      0.66870874804739      1.25661501452993
  N   1.43792401822274      0.50778195374365      0.09995163402243
  O   1.67979659655039      1.01079825325566     -0.99609997731671
  O   1.77723304183046      0.96143060983160      1.19038372090219
