12
Coordinates from ORCA-job run
  C   -0.85202555044119     -0.38029888764894     -0.24097048381898
  C   0.66892706063992     -0.56459239291564     -0.24458985740831
  Cl  -1.45187612830732     -0.98949182797390      1.34384750696419
  H   1.08182192613493     -0.16199378726204     -1.17230277630432
  H   -1.24823636788953     -1.06997525160774     -0.98939063149577
  H   0.94332516407671     -1.60942038201333     -0.11621588532096
  N   -1.37379970859201      0.92046551162006     -0.50148715669777
  H   -0.84648790407102      1.63321808462348     -0.01627627116100
  H   -1.39765169175189      1.11302130070319     -1.49316134150385
  N   1.32731317290318      0.17815662153468      0.86682900034057
  O   2.00379850095228     -0.46567193753941      1.66135298417418
  O   1.14489152634594      1.39558294847960      0.90336491223203
