18

C	0.0	0.0	0.0
C	-0.506116	0.179894	-1.422767
F	1.403568	0.0	0.0
H	-1.59733	0.235365	-1.327721
H	-0.303494	0.876015	0.584555
C	-0.483446	-1.253729	0.689111
H	-1.576149	-1.268312	0.663641
H	-0.085202	-2.143475	0.195892
H	-0.147315	-1.261472	1.72946
C	-0.141845	-0.998763	-2.322376
H	-0.435561	-0.790048	-3.355442
H	-0.658143	-1.91045	-2.015898
H	0.93703	-1.183797	-2.305443
C	0.013171	1.492072	-2.005876
H	1.10317	1.475646	-2.098092
H	-0.414437	1.669576	-2.996984
H	-0.264293	2.336651	-1.368236
Br	-4.047628	0.0	0.0
