18

C	0.0	0.0	0.0
C	-0.416211	0.256133	-1.445035
F	1.403127	0.0	0.0
H	0.177442	-0.455452	-2.03754
H	-0.313014	0.835523	0.637606
C	-0.486417	-1.306071	0.580402
H	-0.219332	-2.138416	-0.076925
H	-0.022917	-1.470969	1.555923
H	-1.57123	-1.285459	0.705692
C	-0.016521	1.672398	-1.856816
H	-0.637848	2.404045	-1.330491
H	1.032021	1.874594	-1.628109
H	-0.171107	1.820444	-2.929907
C	-1.897719	0.005969	-1.699376
H	-2.158474	0.313514	-2.717033
H	-2.163559	-1.046733	-1.597703
H	-2.555571	0.543385	-1.013736
Br	-5.140595	0.0	0.0
