17

C	-0.521139	-0.006658	-1.430701
C	0.0	0.0	0.0
Br	0.321702	-1.473227	-2.398518
H	1.090258	0.0	0.0
C	-1.965493	-0.162731	-1.539406
N	-3.121917	-0.368572	-1.598464
N	-0.107212	1.26059	-2.201766
O	0.8726	1.850507	-1.788169
O	-0.780663	1.525161	-3.189677
C	-0.502267	-1.168925	0.832957
H	-0.177757	-2.109352	0.389814
H	-0.054492	-1.088247	1.822917
H	-1.592826	-1.161876	0.920947
N	-0.462996	1.258501	0.670531
O	-1.272773	1.974322	0.075722
O	-0.02904	1.468161	1.796062
Br	3.398185	0.0	0.0
