17

C	-0.42727	-0.016225	-1.472307
C	0.0	0.0	0.0
Br	0.332734	1.493055	-2.39976
H	1.09166	0.0	0.0
C	0.034327	-1.243193	-2.107773
N	0.376967	-2.238502	-2.631859
N	-1.975392	-0.020389	-1.641689
O	-2.499903	-1.070715	-1.289567
O	-2.535905	0.966876	-2.078985
C	-0.490549	-1.16252	0.845297
H	-0.175143	-2.104713	0.394696
H	-1.572715	-1.159095	0.967816
H	-0.00183	-1.079825	1.818775
N	-0.478219	1.274192	0.625121
O	0.348026	2.011067	1.147858
O	-1.697249	1.467284	0.598932
Br	3.404058	0.0	0.0
