17

C	-0.520662	-0.011564	-1.431639
C	0.0	0.0	0.0
Br	0.322763	-1.481284	-2.394087
H	1.090271	0.0	0.0
C	-1.964782	-0.171639	-1.535998
N	-3.121486	-0.378058	-1.583727
N	-0.114229	1.256316	-2.205548
O	0.865809	1.851774	-1.797003
O	-0.790923	1.512607	-3.19352
C	-0.495369	-1.17155	0.833481
H	-0.046348	-1.087826	1.822714
H	-1.585761	-1.173274	0.922803
H	-0.163073	-2.109221	0.389643
N	-0.467081	1.256539	0.670876
O	-1.261612	1.981448	0.065074
O	-0.047345	1.460355	1.802328
Br	3.403525	0.0	0.0
