17

C	-0.517573	-0.0079	-1.433544
C	0.0	0.0	0.0
Br	0.323558	-1.479967	-2.393758
H	1.090183	0.0	0.0
C	-1.961438	-0.166284	-1.541778
N	-3.118033	-0.373525	-1.586942
N	-0.109102	1.263262	-2.200403
O	0.869876	1.858529	-1.783584
O	-0.78547	1.525151	-3.186265
C	-0.50697	-1.165486	0.832365
H	-1.597004	-1.153875	0.925339
H	-0.188224	-2.107262	0.386656
H	-0.053393	-1.088347	1.820158
N	-0.461831	1.261357	0.67147
O	-0.028913	1.471065	1.797048
O	-1.259613	1.984369	0.066313
Br	3.387997	0.0	0.0
