17

C	-0.529347	-0.009851	-1.42888
C	0.0	0.0	0.0
Br	0.316546	-1.47221	-2.399473
H	1.090254	0.0	0.0
C	-1.97401	-0.176392	-1.523755
N	-3.13001	-0.389469	-1.571704
N	-0.133495	1.266448	-2.19519
O	0.849978	1.860367	-1.793488
O	-0.820029	1.52913	-3.171627
C	-0.489551	-1.17459	0.833296
H	-0.153969	-2.111293	0.388396
H	-0.03843	-1.090475	1.821727
H	-1.580282	-1.181059	0.925108
N	-0.472898	1.254893	0.6747
O	-0.04839	1.461834	1.803795
O	-1.280253	1.969732	0.075808
Br	3.399157	0.0	0.0
