14
Coordinates from ORCA-job run
  C   -0.59914441301008      0.09615722350472      0.16358998447574
  C   0.67644338384720     -0.57716882163550     -0.35590016832412
  F   -1.08568633030952     -0.68785568766249      1.15376312855073
  H   0.45332803883716     -1.56729164429740     -0.75090526979578
  H   1.16044573369096      0.05163107800103     -1.10218831233046
  N   -1.57277405130910      0.03091079211871     -1.01604950223019
  O   -2.49769241243810     -0.76127823284258     -0.95291258639028
  O   -1.29581786050739      0.78398484415896     -1.94641479020577
  N   -0.57624911928737      1.43957292697363      0.58855550355116
  H   -0.44793600852379      2.06018479161441     -0.19956196084024
  H   0.16614814309480      1.57768955469711      1.26265386494606
  N   1.63247539572115     -0.77186187797430      0.77085235040784
  O   2.00796471671234     -1.91482884357834      1.00355994180019
  O   1.97849478348174      0.24015389692205      1.37995781638510
