14
Coordinates from ORCA-job run
  C   -0.54949075878761      0.38597297517706      0.38386817130211
  C   0.49762950692743     -0.61866949511608      0.82097237864976
  F   -1.53620026994036      0.37225383817138      1.33543108355398
  H   1.06852105873463     -0.19036809987531      1.64607680383042
  H   0.02168269429985     -1.54498879943551      1.12783145946271
  N   -1.29320322571134     -0.17801163116951     -0.86478363000536
  O   -1.88777085613352      0.64551578667645     -1.54973453096935
  O   -1.27228116890308     -1.39311784580617     -1.03140236753967
  N   -0.08986321251099      1.68888879732452      0.21721650936774
  H   0.70100965183978      1.70522409462493     -0.41305542136398
  H   -0.82999243962972      2.28498033615968     -0.13324276239805
  N   1.47085017756071     -0.96864145418479     -0.25357906180333
  O   2.03264347016538     -2.04941519939780     -0.14574230121414
  O   1.66746537208885     -0.13862330314886     -1.14085633087284
