16
Coordinates from ORCA-job run
  C   -0.52192054503619      0.11516720328359      0.33250427004939
  C   0.88078767861687     -0.12127961294234     -0.23996307580136
  H   -0.48064314581221      0.85041281749657      1.13933665223599
  H   0.79260097490108     -0.87056014564815     -1.03073460494641
  N   -0.98645299325879     -1.15109618449774      0.98629237749228
  O   -1.46942843099610     -1.06351596260784      2.11178294414001
  O   -0.87516661149420     -2.18217504080628      0.32495418291861
  C   -1.52493666079001      0.50644853629416     -0.73587311603062
  H   -1.60123387630368     -0.28621339022833     -1.48298373973701
  H   -1.19233131200012      1.42191465370973     -1.22233871231874
  H   -2.50830474248758      0.66882803316720     -0.28989453017787
  C   1.77245305557419     -0.66767363922663      0.80362238897492
  N   2.51536533086441     -1.03570871091315      1.63633976894188
  N   1.36525087748729      1.12156591587701     -0.82566226697394
  H   1.66240631443336      1.75728598881836     -0.09403167337394
  H   2.16955408630168      0.93659953822384     -1.41235086539318
