16
Coordinates from ORCA-job run
  C   -0.45806311542919      0.03844566595901      0.35374798877671
  C   0.97974925400843     -0.09803350173025     -0.19238539455256
  H   -0.46651564222774      0.69423172130299      1.22719773542892
  H   0.95903694959114     -0.86104304536668     -0.97694781714626
  N   -0.88829260731114     -1.30221337760987      0.86755301157626
  O   -1.24378212243635     -1.37803684765366      2.04049265193811
  O   -0.85828486160915     -2.22893268735973      0.05870818987528
  C   -1.44848855248677      0.48999496140405     -0.70298317559371
  H   -1.22377494023088      1.50924909701390     -1.01966184420379
  H   -1.41302568623068     -0.17528014487913     -1.56770686908441
  H   -2.46270505296360      0.48309468971977     -0.29875075451998
  C   1.85519100047773     -0.58851528372171      0.88305883063728
  N   2.52772040267407     -0.95595046874461      1.77230148364761
  N   1.55076357506420      1.11341348752519     -0.75140400530037
  H   1.07373233672674      1.37993228324952     -1.60185562440871
  H   1.51573906238318      1.87964345089120     -0.09036440707038
