16
Coordinates from ORCA-job run
  C   -0.50237502415896      0.12935657762118      0.35609086792067
  C   0.86444012715917     -0.14828040866321     -0.28134758712543
  H   -0.39865253948622      0.85529259711204      1.16572820672983
  H   0.71615457472215     -0.88679808200942     -1.07337391387335
  N   -0.97827509769073     -1.12693564326663      1.02034371556073
  O   -0.94616471086639     -2.15160876534452      0.34062912744996
  O   -1.39089489108198     -1.03822959662933      2.17336102164489
  C   -1.53894284703326      0.56419701679863     -0.66202069255502
  H   -1.19851073531030      1.47306371916773     -1.15531133284182
  H   -1.67580140396934     -0.21799942954174     -1.41128461402231
  H   -2.49485322666518      0.75505307415006     -0.17008132723290
  C   1.78260214024048     -0.73497673492614      0.71652283461800
  N   2.54814691549817     -1.13788260428262      1.51180338000279
  N   1.36383864151013      1.08370398645558     -0.87695551091219
  H   2.13548052637300      0.87891711973012     -1.49981861155644
  H   1.71280755075926      1.70212717362828     -0.15328556380741
