17
Coordinates from ORCA-job run
  C   0.48842282629335      0.51010395219601     -0.03393861103104
  C   -0.75121920301841     -0.36870802843596      0.09587349805800
  Cl  0.24096495102579      1.85616576001002     -1.12323918524624
  H   -0.62680992906363     -1.05172724762199      0.93512021917394
  N   0.81555375751794      1.02917825972300      1.38829652016725
  O   0.77050237715037      0.16683474097680      2.25878214998052
  O   1.16130639040534      2.18756051781708      1.51918376287631
  C   1.69769171363467     -0.30766241997768     -0.45865448950290
  H   1.82374395489228     -1.17029164840018      0.19764910626025
  H   2.58416137643727      0.32626052156634     -0.40539877746898
  H   1.57855102089177     -0.64493323313618     -1.48830740815256
  N   -0.92233039541453     -1.21133994731585     -1.12706280351042
  O   -0.63442975281556     -2.39847136563579     -0.98768998640965
  O   -1.28283255005225     -0.65177397429262     -2.15462277526526
  N   -2.01282774342016      0.40433692348157      0.36693052393028
  O   -1.87429750621599      1.38400483753586      1.08849615754889
  O   -3.05515128824827     -0.05953764849044     -0.07141790140839
