17
Coordinates from ORCA-job run
  C   0.49749383093566      0.49657986005659     -0.07244197289348
  C   -0.67483762799298     -0.47681741092850      0.03825743784873
  Cl  0.14555673209472      1.83671260517079     -1.14441206299287
  H   -0.38466843244104     -1.37497923935243      0.57767785123539
  N   0.76043694583071      1.00545520249866      1.35731172277717
  O   1.16316222412568      2.14341483322074      1.50488981047749
  O   0.62084203825437      0.14767963316647      2.22423215617353
  C   1.78140697103812     -0.19545885068573     -0.49876967572816
  H   2.00428409529761     -1.02134789484149      0.17956158068791
  H   2.59269107629310      0.53362692803307     -0.46665633411512
  H   1.68713048721969     -0.57705816552202     -1.51353376821584
  N   -1.12862149394737     -0.91389775085015     -1.32711277884095
  O   -2.10415842486677     -0.35727628599939     -1.81048688713123
  O   -0.44441336698077     -1.79705401997377     -1.83430345584047
  N   -1.87736588709430      0.06738813372408      0.75615242398840
  O   -2.73825451959429     -0.77288579699582      0.98700698293210
  O   -1.90068464817213      1.25691821927890      1.04262696963738
