17
Coordinates from ORCA-job run
  C   0.50027880123985      0.49526392270660      0.06253926325765
  C   -0.76146756579552     -0.36013908230131      0.01992753573006
  Cl  0.30238346113871      2.01743344656075     -0.77630026287957
  H   -0.66767900405678     -1.18260142947470      0.72780514716464
  N   0.81538927864497      0.74843154275062      1.55824436171363
  O   0.73474476175472     -0.25165846429852      2.26292528936527
  O   1.18754456655777      1.85612579603385      1.89416118612409
  C   1.69757749317153     -0.26610401491140     -0.48341801105618
  H   2.59740521447817      0.32537462431854     -0.30743639750811
  H   1.58906240624511     -0.41419082147763     -1.55787173732268
  H   1.79176882917942     -1.23369963950873      0.01221838441351
  N   -0.93053027848611     -0.97107238666627     -1.33399648998849
  O   -0.67201453933648     -2.17119526343328     -1.40106504740617
  O   -1.26072658080600     -0.23144375889474     -2.25203653079306
  N   -2.00924448343414      0.38624764737105      0.40614652553163
  O   -3.05435901561892      0.03506101037382     -0.12116826241347
  O   -1.86013334487630      1.21916687085137      1.29132504606723
