17
Coordinates from ORCA-job run
  C   0.54667567110618      0.57721490886876      0.00419223731814
  C   -0.79618573351929      0.01753906512725     -0.46285148777805
  Cl  0.46281176717976      2.32135952586688     -0.25550367913513
  H   -0.93658386679594      0.26572211791991     -1.51412550225197
  N   0.76939131429299      0.27107098375187      1.49014051483768
  O   0.61658366449337     -0.91557675111627      1.75774103054368
  O   1.13922643967842      1.15810055538790      2.23534403091560
  C   1.74507302688457      0.00651949591924     -0.73157691544771
  H   2.63637964229417      0.53629307554650     -0.39044004806719
  H   1.63406044195970      0.15821128492745     -1.80528020415196
  H   1.84726605115348     -1.05723687477082     -0.52729305413282
  N   -1.96405842551199      0.60349430260049      0.27112423281551
  O   -2.98730063450744      0.72048484456357     -0.39452410342560
  O   -1.80885260761609      0.87635697227027      1.45462539922544
  N   -0.93365307584612     -1.48883219764944     -0.37768617058574
  O   -0.23737116411830     -2.10085211987349     -1.17712616738129
  O   -1.73146251112745     -1.94886918934007      0.42323988670141
