17
Coordinates from ORCA-job run
  C   0.59049158487066      0.55332997834629      0.01261792155021
  C   -0.76654153083859      0.05268417816538     -0.48794032818621
  Cl  0.71853492197456      2.29383932896894     -0.29691215505109
  H   -0.87266623206828      0.30352493893209     -1.54287373700179
  N   0.70805612567830      0.38225944671861      1.52858657703126
  O   -0.25201543861324      0.76858548075497      2.18080594741552
  O   1.75346136019923     -0.08226712441563      1.95767423574018
  C   1.72033319161797     -0.16231185270008     -0.69680091447772
  H   1.59644396818755     -0.04778972260905     -1.77553121847307
  H   1.74355482920290     -1.21771930000012     -0.43059547788571
  H   2.66773059656801      0.28659847978001     -0.40484380488119
  N   -2.00420281710030      0.61682219428307      0.19053238956717
  O   -2.63723483275564     -0.13073658878018      0.91955613672740
  O   -2.26450935219948      1.77164063053522     -0.10949512428762
  N   -0.86569599530821     -1.43559009707629     -0.37653899011754
  O   -0.36864357160960     -1.95474622823177      0.61742605487613
  O   -1.46709680780585     -1.99712374267147     -1.28666751254593
