17
Coordinates from ORCA-job run
  C   0.63334798444125      0.49075495708454     -0.09438346380018
  C   -0.85429003009366      0.24369231096661     -0.34666127596191
  Cl  1.20690486757282      1.55228819982067     -1.40066517004334
  H   -1.38220794351539      1.16772608924873     -0.56426474711411
  N   0.70631839651895      1.34254633075250      1.18357967144690
  O   1.71843646821850      1.24511356676927      1.85845808441853
  O   -0.24940438773209      2.08054044830713      1.39274638639716
  C   1.52632981750937     -0.71864506956754      0.01224045360516
  H   1.52193482983846     -1.26350611942875     -0.93071462648619
  H   1.18871092739333     -1.37259484836078      0.81352918155943
  H   2.54075535599604     -0.38465213228324      0.22095512487635
  N   -1.56987372597891     -0.40019658235594      0.81083011005284
  O   -0.91202283820139     -0.77436728615889      1.77385158683973
  O   -2.78019410457197     -0.49960701967360      0.65613938603279
  N   -1.05051526817934     -0.68083351861095     -1.51384233651913
  O   -0.92695487833302     -1.88014877011784     -1.28622216583162
  O   -1.31827547088294     -0.14911055639192     -2.58457619947241
