17
Coordinates from ORCA-job run
  C   0.50096867023949      0.49637020190022      0.04586450223975
  C   -0.76147699522698     -0.35910945173042      0.03422240815646
  Cl  0.29919399301120      1.99473250228518     -0.83414584479393
  H   -0.66373829798258     -1.16112140944745      0.76466275432812
  N   0.82454555679403      0.79127451328814      1.53210097261797
  O   1.19982686438442      1.90756827678471      1.83433371622056
  O   0.74612683490943     -0.18806372698061      2.26555724815475
  C   1.69482645599012     -0.28059884108491     -0.48537499155266
  H   1.79143206539246     -1.23418648201783      0.03628056731169
  H   2.59586794476755      0.31502676506531     -0.33081412145026
  H   1.58030595962176     -0.45801829609905     -1.55475485325863
  N   -0.93828167993668     -1.00755751443939     -1.30098430057109
  O   -1.27282759735173     -0.29367345130823     -2.23765212901146
  O   -0.68084811142594     -2.20925767046180     -1.33584572637008
  N   -2.00668584311450      0.39849179384980      0.40628752928424
  O   -1.85255325283213      1.25625460791207      1.26651711214829
  O   -3.05468256723991      0.03286818248427     -0.10525484345373
