17
Coordinates from ORCA-job run
  C   0.58729963161263      0.55676834376056      0.01528152598626
  C   -0.76910628367059      0.05285239629855     -0.48371404242025
  Cl  0.70478557085034      2.30045780142346     -0.27950975265625
  H   -0.88102473845444      0.31195991099573     -1.53605591089899
  N   0.71268955443058      0.37306640483199      1.52908430748166
  O   1.76381037706296     -0.08660518555662      1.94940894803330
  O   -0.24769013360147      0.74535785406305      2.18893962428154
  C   1.71772574300925     -0.14676168794121     -0.70541919456180
  H   2.66405999169337      0.30497174982914     -0.41438785382535
  H   1.58798043168928     -0.02423674169762     -1.78257784948897
  H   1.74804683647967     -1.20414521032110     -0.44792821597114
  N   -2.00717944418860      0.60349191432050      0.20475119516606
  O   -2.63503677186116     -0.15539222211427      0.92652837945494
  O   -2.27345725174864      1.76054360791506     -0.08093109878335
  N   -0.85858739053930     -1.43711170212262     -0.38525748445297
  O   -1.45826380321963     -1.99437232534067     -1.29917380891093
  O   -0.35605231954425     -1.96184490834394      0.60296123156623
