17
Coordinates from ORCA-job run
  C   0.55180070013551      0.57064254962365      0.02875579421139
  C   -0.79039567168369      0.03952182136690     -0.47220275600633
  Cl  0.48799362051311      2.32289842738332     -0.17700343550050
  H   -0.91467242514154      0.32094659365695     -1.51712592478932
  N   0.75273055569016      0.21539069046179      1.50692901910527
  O   1.12311180487337      1.07484025513082      2.28356534860705
  O   0.58459285521838     -0.97717660722207      1.73535253134983
  C   1.75416278850298      0.01158849049773     -0.70958590754374
  H   1.65883869566596      0.19864236189560     -1.77921988378430
  H   1.84304180158403     -1.05921916680337     -0.53842670220835
  H   2.64591310535999      0.52106308432346     -0.33989307465696
  N   -1.96128214650243      0.61589840242221      0.26454936525471
  O   -1.81893255338256      0.84897052205861      1.45808791769525
  O   -2.97392230807312      0.76651662024446     -0.41040587977944
  N   -0.94427801912761     -1.46697581004669     -0.43417828468358
  O   -0.24263268244962     -2.06222319305894     -1.24148236217440
  O   -1.75807012118290     -1.94232504193441      0.34128423490340
