17
Coordinates from ORCA-job run
  C   0.49527045534987      0.50093208954016      0.05351867987656
  C   -0.75739801779312     -0.36849975642178      0.03166674467232
  Cl  0.27055077409823      2.01488318562543     -0.79392232873521
  H   -0.64657437175747     -1.18401017881884      0.74509758026150
  N   0.82515727559766      0.76844567847800      1.54317681764723
  O   0.76273589327765     -0.22674103256937      2.25656880779113
  O   1.18999886930452      1.88240113226469      1.86631460314567
  C   1.69438874288276     -0.25098369663451     -0.50156355203166
  H   2.58963368457300      0.35138321229790     -0.33968158392129
  H   1.57498188228526     -0.40672093129811     -1.57377432525434
  H   1.80489436082843     -1.21447255782921     -0.00129086749191
  N   -0.93427893363994     -0.99234226067598     -1.31541185840305
  O   -0.66392608850016     -2.19021056075384     -1.37531979557067
  O   -1.28125252595762     -0.26379066459606     -2.23606750957310
  N   -2.00868835391745      0.36747024457577      0.42579226779137
  O   -3.05541736479644      0.00210821151798     -0.08857984636751
  O   -1.85907628183525      1.20814788529780      1.30347616616294
