17
Coordinates from ORCA-job run
  C   0.43735249643190      0.60751590518211      0.29401173789064
  C   -0.91212456358505     -0.10934968321944      0.25129826014503
  Cl  0.09810998136084      2.31181453835482      0.67262761027670
  H   -1.51896560687623      0.13276010998609      1.11915958273428
  N   1.16756865749924      0.05269289100355      1.52890498281796
  O   2.38752433911558      0.05707717103286      1.50090485614204
  O   0.45449526905115     -0.29998488316566      2.46103817862283
  C   1.30957437039470      0.51869043734285     -0.93159759027766
  H   0.80452305265865      0.98259956587715     -1.77746339462203
  H   1.53431279807334     -0.51986999455917     -1.16539138480107
  H   2.23720342533084      1.05374509866610     -0.73818756470875
  N   -0.80360626732871     -1.61076668320748      0.20546021524801
  O   -1.88020967795611     -2.19113683973532      0.25516183621399
  O   0.30913708715007     -2.11689113711478      0.12806445007034
  N   -1.68838429472149      0.28141141613122     -0.97291943206994
  O   -1.37143251088343     -0.27548365721931     -2.01942048094426
  O   -2.56307855571527      1.12417574464441     -0.81265186273811
