17
Coordinates from ORCA-job run
  C   0.57085199471742      0.55589887511643     -0.10859314245438
  C   -0.89092398761812      0.15198883535480     -0.30093514806245
  Cl  0.96361341983066      1.69267885767524     -1.41848124589909
  H   -1.52626298065407      1.01888778661314     -0.45882518539781
  N   0.60860349565488      1.39194999061269      1.18188918541158
  O   1.65389688225989      1.39369329165571      1.81153870753312
  O   -0.40583597611418      2.02962381882492      1.43876033477310
  C   1.59524164334669     -0.54854393883641     -0.06413973058751
  H   1.37148803830376     -1.24432668243371      0.74184631413482
  H   1.60421116957238     -1.08058291022000     -1.01418304378942
  H   2.57589765675736     -0.10718172772034      0.10224939004488
  N   -1.47312143229303     -0.60253588293525      0.86515597011345
  O   -0.74026826053721     -0.88885436179284      1.80399335037143
  O   -2.66473520450996     -0.85768098032001      0.75037189347575
  N   -1.04560206806033     -0.75103186212365     -1.49013591682371
  O   -0.75338754815015     -1.93055978707272     -1.32008201717852
  O   -1.44466684250598     -0.22342332239804     -2.52142971566524
