17
Coordinates from ORCA-job run
  C   0.61526939068097      0.51017381448714     -0.08670851769985
  C   -0.86542165944550      0.21952190613769     -0.33167524044389
  Cl  1.13957783539549      1.61340988499427     -1.37956802345170
  H   -1.42608363134066      1.13285578035729     -0.50938655941114
  N   0.67117555443540      1.34132663052010      1.20600509270397
  O   1.69011832755368      1.26237368776189      1.87297047796292
  O   -0.29946654340740      2.05568997322727      1.42799787975734
  C   1.55026085458219     -0.66909166590608     -0.00929713912153
  H   2.55517364924968     -0.30370188323693      0.19268347949165
  H   1.24606737715404     -1.34567837632565      0.78661555237700
  H   1.55211898685039     -1.20044226343491     -0.95975303046389
  N   -1.54442471043771     -0.48821817323748      0.81110335882123
  O   -0.86948094304745     -0.82823617413185      1.77511680061113
  O   -2.74709268459322     -0.65271533342906      0.65324925216865
  N   -1.04683059008778     -0.66844089361773     -1.52836498946689
  O   -0.84970272870559     -1.86673895786455     -1.35205573702848
  O   -1.37025848483653     -0.11208795630143     -2.57093265680652
