17
Coordinates from ORCA-job run
  C   0.48452549216657      0.57600652703044      0.28272207514452
  C   -0.93870721545334      0.03223666490498      0.15772155208796
  Cl  0.34291584087605      2.34000288112139      0.45943069636926
  H   -1.58841498820283      0.43772763976189      0.92815532856261
  N   1.00865392826550      0.07095826041391      1.63794424152009
  O   0.16667932935990     -0.08975903056773      2.51364939622454
  O   2.21510013625680     -0.07771077705921      1.74565068834281
  C   1.45267586977079      0.24800938590420     -0.82449677280786
  H   1.55647537525346     -0.82950428268393     -0.93383952699526
  H   2.42066588743453      0.68064033883542     -0.57955627492391
  H   1.10046540067603      0.67794298021882     -1.76088069618070
  N   -1.02952564347953     -1.46738040732314      0.26170452679688
  O   0.00691136467388     -2.11303695611099      0.35850184670673
  O   -2.17400937150805     -1.90116127537918      0.24208463499897
  N   -1.53312412439347      0.38622486473674     -1.17444839907543
  O   -2.30056022351144      1.34118771534834     -1.18808482310210
  O   -1.19172705818484     -0.31038452915193     -2.12525849366910
