17
Coordinates from ORCA-job run
  C   0.44193697549647      0.56426204245727      0.36506433174679
  C   -0.91320828914040     -0.13161609887285      0.23737317852726
  Cl  0.11703212354091      2.21283814178991      0.94740000034108
  H   -1.51874633040104      0.00905594400394      1.12821418953853
  N   1.16806105461070     -0.14165360407413      1.52281472773686
  O   2.38801667672121     -0.14374223731965      1.49385665993844
  O   0.45245807090881     -0.59882181158065      2.40631191187389
  C   1.31249734088767      0.61715607162025     -0.86385115870198
  H   0.81094497625288      1.18495061642717     -1.64607207592806
  H   1.52762315864178     -0.38725730374117     -1.22252330025797
  H   2.24505981540307      1.11644684661212     -0.60849669774623
  N   -0.81623965922858     -1.61732141934948      0.01153873983930
  O   0.29234963983140     -2.11883092585562     -0.12957338504671
  O   -1.89719261107082     -2.19148658129850     -0.00551516069053
  N   -1.68541571394673      0.40957046837441     -0.93071358819703
  O   -1.37418058695763     -0.02225400105344     -2.03634585572364
  O   -2.55099664154970      1.23670385186043     -0.67048251725001
