17
Coordinates from ORCA-job run
  C   0.49663206585305      0.53156939764773      0.34439520388020
  C   -0.92195779654554     -0.02866762408195      0.23991138330803
  Cl  0.33938411249189      2.22558267864505      0.86368727057587
  H   -1.51037922070074      0.21097806501724      1.12105201699267
  N   1.14907861590868     -0.20016091563123      1.52936720883529
  O   0.39261254653668     -0.54119529328881      2.43112088939002
  O   2.36147358063456     -0.33544880707410      1.49989007370769
  C   1.36610383488684      0.45079546844851     -0.88353977253685
  H   1.47763056425731     -0.58283414841813     -1.20439993188266
  H   0.92364208998300      1.03783401388653     -1.68702101528907
  H   2.34493770854616      0.86216202425265     -0.64495922828099
  N   -0.97548179512510     -1.52462680647856      0.07856959042775
  O   -2.10863617125556     -1.98763124235080      0.09029199195786
  O   0.07607801644094     -2.14004733046965     -0.04689334506692
  N   -1.63409127226422      0.53671957026600     -0.95494182789902
  O   -1.37136565397624      0.02278167904740     -2.03788852330024
  O   -2.40666122567171      1.46218927058212     -0.73764198481964
