17
Coordinates from ORCA-job run
  C   0.49488146930590      0.60995898248669     -0.17114930717607
  C   -0.90401090004957      0.00706753851588     -0.29863034528277
  Cl  0.73196644828716      1.65200892293222     -1.59297585237093
  H   -1.64554422346084      0.76710691830837     -0.52769503297792
  N   0.43082473445866      1.56789173453190      1.03075201444222
  O   1.47091605471302      1.76699199279565      1.63717500006538
  O   -0.65660046691745      2.09098957498897      1.24401125481839
  C   1.65331038583312     -0.34445182192232     -0.03687734032999
  H   2.56941600959302      0.23335679400827      0.06822288796627
  H   1.72620468343769     -0.96291309571803     -0.93010867100531
  H   1.52500676420879     -0.97942817312406      0.83724164802649
  N   -1.37890429202117     -0.69861241458713      0.94416777566102
  O   -2.52806894287247     -1.11452392609739      0.87442360123608
  O   -0.61122220820452     -0.79579113416133      1.89366930372224
  N   -0.94893052062523     -1.01926099599068     -1.39308428761179
  O   -0.50043696483110     -2.12792812065601     -1.11821057680757
  O   -1.42680803085501     -0.65246277631099     -2.45993207237575
