19

C	0.0	0.0	0.0
C	-0.238771	-0.0368	-1.559607
Br	1.972552	0.0	0.0
H	0.203385	0.885635	-1.945128
N	-0.563391	1.176738	0.57539
H	-0.403226	1.982463	-0.021779
H	-1.5851	1.002898	0.618705
C	-0.523003	-1.200372	0.755045
H	-1.619266	-1.173583	0.659554
H	-0.254637	-1.089832	1.807959
H	-0.125225	-2.132423	0.360966
C	-1.656291	-0.191329	-2.071282
H	-2.336635	0.520949	-1.604671
H	-2.066955	-1.164043	-1.807934
H	-1.636502	-0.075076	-3.162199
N	0.549974	-1.102897	-2.274451
O	0.361124	-2.276217	-1.957934
O	1.284801	-0.74127	-3.195088
H	-3.447646	0.0	0.0
