19

C	0.0	0.0	0.0
C	-0.574436	-0.000837	-1.407143
Br	2.04974	0.0	0.0
H	-1.678108	0.181254	-1.164341
N	-0.425454	1.117005	0.726942
H	-0.035161	1.151396	1.655772
H	-0.338352	1.989171	0.229494
C	-0.432734	-1.250555	0.732824
H	-0.136483	-1.176263	1.782403
H	-1.534747	-1.238989	0.661862
H	0.001665	-2.156887	0.312681
C	-0.393306	-1.294184	-2.167974
H	0.650142	-1.618932	-2.172342
H	-0.715533	-1.166936	-3.200971
H	-1.022919	-2.055974	-1.708662
N	-0.052479	1.144028	-2.20234
O	-0.242033	2.287166	-1.769464
O	0.531803	0.917162	-3.265602
H	-3.163505	0.0	0.0
