19

C	0.0	0.0	0.0
C	-0.23595	-0.036938	-1.556674
Br	1.967242	0.0	0.0
H	0.31501	0.817993	-1.946217
N	-0.57597	1.243657	0.441561
H	-0.372412	1.347981	1.433094
H	-1.605344	1.063107	0.381203
C	-0.491081	-1.202947	0.779979
H	-0.224178	-1.064153	1.831493
H	-1.586664	-1.18524	0.689387
H	-0.079281	-2.145291	0.424172
C	-1.645236	-0.023241	-2.122492
H	-2.245942	-0.850509	-1.757668
H	-1.550973	-0.046031	-3.216407
H	-2.172113	0.876109	-1.817957
N	0.435749	-1.213821	-2.210014
O	0.046971	-2.341143	-1.909816
O	1.282307	-0.980582	-3.073485
H	-3.332593	0.0	0.0
