17

C	0.0	0.0	0.0
C	-0.351703	0.167131	-1.493044
Cl	1.792995	0.0	0.0
H	0.347097	-0.451368	-2.055582
H	-0.286105	-1.027169	0.241007
C	-0.650611	0.936162	0.987714
H	-1.739534	0.864707	0.869629
H	-0.347502	1.970012	0.835036
H	-0.395419	0.630011	2.005427
N	-0.004765	1.553275	-1.951902
O	-0.662205	2.486976	-1.495621
O	0.894801	1.664426	-2.787907
C	-1.776376	-0.151149	-1.914383
H	-1.903814	-1.233225	-1.984576
H	-1.92696	0.296027	-2.904194
H	-2.547872	0.228951	-1.244477
Cl	-4.525658	0.0	0.0
