14
Coordinates from ORCA-job run
  C   -0.74454218101350      0.12576595609615      0.27807935845268
  C   0.78686581251741     -0.00866953174767      0.30862793679128
  F   -1.12021218830429      0.74651015692902      1.47361116420102
  H   1.01048561055931     -0.65231825665906      1.17725400057640
  N   -1.31674784767842     -1.16400174853947      0.13569795137885
  H   -1.16354243830089     -1.70612825335622      0.97879191110372
  H   -2.30939635712927     -1.11443973908685     -0.05594768629251
  C   -1.18054211697160      0.99392755234360     -0.82820031610016
  N   -1.57666684769650      1.69949590033840     -1.67815801618322
  C   1.40720962850255      1.29520891393287      0.56494260484829
  N   1.94059505536943      2.31991888072074      0.77068032473282
  N   1.21880781251772     -0.52134296320296     -0.97638765449977
  H   2.22779098428942     -0.57359884057495     -1.02684760513868
  H   0.81989507333864     -1.44032802719360     -1.12114397387071
