14
Coordinates from ORCA-job run
  C   -0.78723777674029      0.11783937202147      0.28939449425589
  C   0.74027536136977     -0.07340891108810      0.36174949059611
  F   -1.11456009430925      0.85994117021643      1.43837777872859
  H   0.92299253391259     -0.57203586317845      1.32107499024921
  N   -1.45322618433045     -1.11361506329756      0.20549136271882
  H   -2.45597805554159     -1.00998236568304      0.28627712579055
  H   -1.09731895341273     -1.79442359764377      0.86221348312737
  C   -1.15561331204347      0.95707544123609     -0.86946293900874
  N   -1.41330847722586      1.60361097818779     -1.81492224889772
  C   1.38954482121182      1.25216751131770      0.42758564053629
  N   1.97565263356103      2.27021887425342      0.43381746639799
  N   1.21350308919890     -0.93219668305032     -0.70409217415466
  H   1.01638086783665     -0.51522859031920     -1.60752125016817
  H   2.21689354651289     -1.04996227297246     -0.62998322017152
