14
Coordinates from ORCA-job run
  C   -0.71238286156018     -0.31914088961638     -0.11327837364804
  C   0.70565274080495      0.27313635704831      0.01507662587417
  F   -0.60601633441711     -1.66352626336153     -0.35939934538623
  H   0.60064128585640      1.36429678678642      0.09182780256382
  N   -1.39802962633656      0.26451425508475     -1.22454446120652
  H   -1.55861800007904      1.25408157403877     -1.08131052773831
  H   -2.29043118383898     -0.19483144199980     -1.36493658950154
  C   -1.40046838962080     -0.15630768985438      1.19406775208101
  N   -1.98117832636341      0.07777917808992      2.18797372253929
  C   1.44237689873274     -0.01711097698342     -1.21951260385072
  N   2.09335385772455     -0.25635282916331     -2.16617810438429
  N   1.36097901029881     -0.29736714358616      1.18119762744604
  H   2.24688575044831     -0.72362466418906      0.95341865037868
  H   1.49623517835034      0.39345374770589      1.90459782483267
