15

C	0.0	0.0	0.0
C	-0.610404	-0.102936	-1.376386
F	1.372282	0.0	0.0
H	-0.348527	0.767586	-1.977285
H	-1.72656	-0.095801	-1.10257
N	-0.349241	1.387615	0.55519
O	-0.449039	1.503052	1.771298
O	-0.386604	2.321323	-0.241933
C	-0.485678	-1.066809	0.940982
H	-0.039834	-0.924535	1.924369
H	-1.577286	-0.972907	0.952854
H	-0.176094	-2.034523	0.537854
C	-0.19162	-1.317738	-2.047954
N	0.131354	-2.299007	-2.609043
F	-2.850571	0.0	0.0
