15

C	0.0	0.0	0.0
C	-0.627407	-0.02645	-1.369783
F	1.358493	0.0	0.0
H	-0.511715	-1.040637	-1.764848
H	-1.73245	0.115399	-1.102783
N	-0.340437	1.336584	0.682431
O	-0.033082	1.423197	1.86891
O	-0.801297	2.246139	0.007834
C	-0.513641	-1.120339	0.864805
H	-0.166895	-2.066584	0.43965
H	-0.117324	-1.01015	1.873649
H	-1.608385	-1.035253	0.826391
C	-0.065286	0.913274	-2.32303
N	0.38022	1.632276	-3.1383
F	-2.883507	0.0	0.0
