15

C	0.0	0.0	0.0
C	-0.608521	-0.047149	-1.380657
F	1.372266	0.0	0.0
H	-0.345144	0.847216	-1.945635
H	-1.72474	-0.050898	-1.110649
N	-0.350118	1.364432	0.608742
O	-0.391145	2.328177	-0.151626
O	-0.448108	1.432795	1.828648
C	-0.488093	-1.10315	0.896458
H	-1.58014	-1.010161	0.904877
H	-0.049588	-0.996665	1.887952
H	-0.173319	-2.054139	0.45913
C	-0.187493	-1.234087	-2.100082
N	0.139906	-2.19159	-2.698957
F	-2.851884	0.0	0.0
