15

C	0.0	0.0	0.0
C	-0.457202	0.088338	-1.456612
F	1.373396	0.0	0.0
H	0.44027	-0.09594	-2.062411
H	-0.798851	1.100527	-1.662109
N	-0.375079	1.262851	0.759436
O	-0.500601	1.172337	1.974284
O	-0.377682	2.320353	0.134204
C	-0.404751	-1.235776	0.765816
H	-1.488114	-1.194054	0.868759
H	0.123961	-1.24555	1.719086
H	-0.09766	-2.102606	0.174073
C	-1.480831	-0.86392	-1.884562
N	-2.088124	-1.666907	-2.491505
F	-2.536915	0.0	0.0
