15

C	0.0	0.0	0.0
C	-0.612781	0.237402	-1.360203
F	1.367227	0.0	0.0
H	-0.351648	1.227723	-1.732627
H	-1.727529	0.177675	-1.091581
N	-0.350279	1.208615	0.8796
O	-0.417145	2.306211	0.335716
O	-0.420525	1.023729	2.088464
C	-0.489046	-1.263927	0.651293
H	-0.03966	-1.369128	1.637396
H	-0.185282	-2.104565	0.021967
H	-1.580029	-1.172163	0.689092
C	-0.197532	-0.779446	-2.306827
N	0.127342	-1.59501	-3.088917
F	-2.851938	0.0	0.0
