15

C	0.0	0.0	0.0
C	-0.61001	-0.022962	-1.38079
F	1.372245	0.0	0.0
H	-1.726018	-0.031144	-1.108032
H	-0.347336	0.881282	-1.929759
N	-0.350105	1.352344	0.634466
O	-0.388726	2.330874	-0.106996
O	-0.450363	1.397005	1.855252
C	-0.486805	-1.120094	0.876536
H	-1.578519	-1.026298	0.891491
H	-0.17645	-2.062796	0.418597
H	-0.043571	-1.034428	1.86791
C	-0.191467	-1.197332	-2.120802
N	0.130931	-2.145208	-2.737021
F	-2.851207	0.0	0.0
