15

C	0.0	0.0	0.0
C	-0.616022	-0.087269	-1.375511
F	1.358456	0.0	0.0
H	-0.522282	-1.125206	-1.71092
H	-1.714877	0.088776	-1.134001
N	-0.351373	1.361598	0.619116
O	-0.705842	2.266948	-0.125466
O	-0.155639	1.475275	1.826934
C	-0.510865	-1.092526	0.900584
H	-0.126971	-0.943399	1.908829
H	-0.148342	-2.048607	0.511752
H	-1.605851	-1.017462	0.849332
C	-0.015981	0.77908	-2.375499
N	0.485647	1.440615	-3.206945
F	-2.868438	0.0	0.0
