12

C	-0.372537	-0.005903	-1.448076
C	0.0	0.0	0.0
Br	-2.342784	-0.006059	-1.775207
H	1.093327	0.0	0.0
H	-0.0198	0.908795	-1.922292
H	-0.396277	-0.844771	0.558337
C	0.163224	-1.175799	-2.12897
N	0.569571	-2.122243	-2.695422
N	-0.45506	1.225275	0.651822
O	-0.763777	1.156691	1.842502
O	-0.446516	2.270226	-0.003158
F	2.484703	0.0	0.0
