12

C	-0.493151	0.103811	-1.434758
C	0.0	0.0	0.0
Br	-0.500033	-1.695062	-2.228992
H	1.088437	0.0	0.0
H	-1.52754	0.444778	-1.50527
H	-0.37918	-0.888484	0.501083
C	0.329029	0.963798	-2.281088
N	0.936123	1.631662	-3.032689
N	-0.476771	1.154953	0.758833
O	-0.754639	2.188859	0.136361
O	-0.537017	1.051232	1.983962
F	2.498718	0.0	0.0
