12

C	-0.380515	-0.042076	-1.468475
C	0.0	0.0	0.0
Br	0.14712	1.652306	-2.28953
H	1.091353	0.0	0.0
H	0.212428	-0.808482	-1.963897
H	-0.424242	0.849482	0.531422
C	-1.799839	-0.245557	-1.739133
N	-2.946046	-0.409003	-1.940318
N	-0.454979	-1.22147	0.663616
O	-0.544574	-2.249913	-0.018134
O	-0.660658	-1.17624	1.876508
F	2.512991	0.0	0.0
