16
Coordinates from ORCA-job run
  C   -0.58978159517341      0.04164297666850     -0.34147998576388
  C   0.64201769165776     -0.79732505743658     -0.02854565027493
  Cl  -0.58026612323590      0.54268719349358     -2.05521143175592
  H   0.47670948225785     -1.24576754314450      0.95884750341477
  H   0.67748144718525     -1.61491692008051     -0.75043890968115
  C   -0.76919725219780      1.25789994960435      0.53346349620491
  H   -0.75838181988019      0.96871178725068      1.58585808937444
  H   0.04345266569307      1.95800770931864      0.34212772753147
  H   -1.71511506005579      1.75111974815535      0.31736349900158
  N   -1.79388108922867     -0.89570982064341     -0.18693515477126
  O   -1.76782233638738     -1.93155139602860     -0.83978621018271
  O   -2.67446482632416     -0.56472368277311      0.60194288777723
  C   1.94640811753777     -0.01031085830144     -0.03365660234505
  H   1.98286321278746      0.72426268826579      0.77235604615507
  H   2.09263216738673      0.50757684046215     -0.98298008469808
  H   2.78634531797741     -0.69360361481088      0.10607478001351
