17

C	0.0	0.0	0.0
C	-0.42219	-0.269189	-1.436131
F	1.367526	0.0	0.0
H	-1.508291	-0.392685	-1.43645
H	0.040083	-1.226099	-1.712613
N	-0.58437	1.267904	0.478393
O	-1.769214	1.453033	-0.060952
O	-0.263485	1.626301	1.645237
C	-0.479617	-1.06726	0.955732
H	-0.160673	-2.056912	0.619415
H	-0.080799	-0.844133	1.946387
H	-1.578545	-1.017402	0.974359
C	0.01366	0.822322	-2.406969
H	-0.229591	0.541447	-3.437329
H	1.091595	0.994317	-2.348789
H	-0.507178	1.748867	-2.168678
H	-2.926794	0.0	0.0
