15

C	0.0	0.0	0.0
C	-0.597552	-0.119896	-1.397792
Br	1.926643	0.0	0.0
H	-1.685782	0.007433	-1.218319
H	-0.331602	-0.817879	0.635825
N	-0.416739	1.250741	0.739544
O	-0.455416	1.149733	1.958971
O	-0.619184	2.26979	0.091771
C	-0.384476	-1.498376	-1.837118
N	-0.184335	-2.588882	-2.226094
C	-0.094987	0.84248	-2.475309
H	-0.262924	1.869966	-2.165514
H	-0.656935	0.656063	-3.392757
H	0.965892	0.691502	-2.683548
Cl	-3.496019	0.0	0.0
