15

C	-0.47538	-0.122802	-1.515991
C	-0.132278	0.178561	-0.047368
Br	-2.407172	-0.55321	-1.663845
H	0.891311	0.56209	-0.056893
H	-0.803708	0.96805	0.303573
C	-0.281886	1.078394	-2.325906
N	-0.10415	2.052817	-2.959369
C	0.331475	-1.293886	-2.051517
H	0.114214	-1.471284	-3.106281
H	0.083673	-2.17616	-1.462393
H	1.395145	-1.086694	-1.901657
N	-0.241597	-1.022978	0.756498
H	0.708287	-1.370365	0.898009
H	-0.625256	-0.793613	1.662848
Br	3.173763	-1.197523	0.498148
