15

C	-0.432847	-0.010031	-1.435049
C	0.01376	-0.08639	0.021439
Br	-0.089745	-1.762465	-2.29595
H	1.107126	-0.208755	0.02642
H	-0.195802	0.899726	0.452396
C	-1.874968	0.213392	-1.538125
N	-3.016841	0.471838	-1.64258
C	0.354171	1.052629	-2.1918
H	1.423454	0.879375	-2.04581
H	0.098409	1.046737	-3.252646
H	0.109617	2.032787	-1.770714
N	-0.747757	-1.087315	0.767053
H	-0.583001	-0.93343	1.754911
H	-0.366102	-2.001245	0.550846
Br	3.627555	0.65231	-0.276837
