15

C	-0.528289	0.013677	-1.501013
C	-0.122675	-0.202508	-0.034472
Br	-0.366532	-1.728612	-2.432911
H	0.906572	-0.576441	-0.033983
H	-0.781432	-0.963659	0.395045
C	-1.937682	0.392615	-1.593272
N	-3.070951	0.694141	-1.673127
C	0.3672	1.029103	-2.193479
H	0.234464	1.99109	-1.69575
H	1.411677	0.738576	-2.072793
H	0.109747	1.119411	-3.250515
N	-0.247922	1.069895	0.656365
H	0.695005	1.453721	0.746627
H	-0.612172	0.922465	1.587821
Br	3.152067	1.331428	0.400916
