15

C	-0.419062	-0.057268	-1.436691
C	0.017802	-0.077876	0.024722
Br	-0.099112	-1.850692	-2.218739
H	1.102962	-0.217853	0.042455
H	-0.178098	0.929234	0.411225
C	-1.856743	0.184354	-1.558739
N	-2.993301	0.457216	-1.682605
C	0.389377	0.958987	-2.233551
H	0.13902	0.91146	-3.294651
H	0.158873	1.960118	-1.856206
H	1.454943	0.775065	-2.073974
N	-0.765092	-1.032798	0.807756
H	-0.602304	-0.8404	1.789182
H	-0.39899	-1.961712	0.632304
Br	3.640311	0.600553	-0.276248
