13

C	-0.330068	0.051288	-1.468332
C	0.0	0.0	0.0
Cl	-0.325183	-1.679115	-2.151169
H	1.091487	0.0	0.0
H	-0.417331	-0.870367	0.496392
H	-0.35062	0.917233	0.475551
N	-1.775442	0.468414	-1.755056
O	-2.014719	0.902272	-2.877287
O	-2.597804	0.321363	-0.857348
N	0.513844	0.933531	-2.134644
H	1.481038	0.805296	-1.840004
H	0.407653	0.910816	-3.138064
Br	3.596164	0.0	0.0
