15
Coordinates from ORCA-job run
  C   -0.62335983928207      0.07067976581634     -0.04439217743567
  C   0.47719207747088     -0.10710738203833     -1.08790529378179
  Cl  -2.17370809325785     -0.11183936722869     -1.06396723527491
  H   0.36879691057263      0.61879619851143     -1.89193111989316
  H   0.47708541558745     -1.12230812723404     -1.48088618017257
  N   -0.50211039867930      1.33853086108425      0.56016076283851
  H   -0.49100164115238      2.09998530645788     -0.10613839071783
  H   -1.21516605179213      1.50080010015058      1.25852078665942
  C   -0.67408234849170     -1.02366150654524      1.00261442861584
  H   -0.76191283003584     -2.00374905298675      0.53468161524093
  H   -1.54309696592001     -0.87383108814457      1.64679042683519
  H   0.23253573101091     -0.99185752629779      1.60661064903917
  N   1.81218408075024      0.13942924349883     -0.47059988628398
  O   2.32595385299374      1.23737965111658     -0.66865275984334
  O   2.29069010022543     -0.77024707616049      0.20409437417420
