15
Coordinates from ORCA-job run
  C   -0.52465975914010     -0.03900595496357     -0.04899387532995
  C   0.91103225553223     -0.45128176496412     -0.37056452873301
  Cl  -1.57168721969723     -0.40278793786312     -1.47441602780112
  H   0.93165180827469     -1.43227595186151     -0.84080820842175
  H   1.50762340777743     -0.44111444350042      0.54277703697789
  N   -0.57821317602070      1.38006691069992      0.16854305825484
  H   -1.48514548355100      1.65722202940314      0.52164238502725
  H   0.15079987652544      1.68796660186090      0.80075649184835
  C   -1.03293714635301     -0.90152959189961      1.10223829542203
  H   -0.44885821832736     -0.68745270336901      2.00208153407760
  H   -2.07993892985939     -0.66525434047017      1.30157296889938
  H   -0.96278057817902     -1.96683376777145      0.87207382225514
  N   1.56619887232213      0.50971790236350     -1.29840650610941
  O   1.44602108005781      0.30678075539427     -2.50214713159711
  O   2.16989321063807      1.44678225694125     -0.77734931477013
