15
Coordinates from ORCA-job run
  C   -0.46599339994618     -0.03363900315745      0.09303641636680
  C   1.01590152637048     -0.23161855080101     -0.20052887816111
  Cl  -1.35450868279878     -0.52176021627477     -1.46366693849804
  H   1.59794810985902      0.15672202594966      0.63859288177592
  H   1.23755618581499     -1.28033018024089     -0.38187084127691
  N   -0.74837273434585      1.28708157646988      0.50804631820482
  H   -0.42769275338057      1.97111196261854     -0.16468791815106
  H   -1.73596204542196      1.41105285666251      0.68897943598981
  C   -0.90400971917912     -1.02530624549711      1.15677082689623
  H   -0.72921642460448     -2.05203311373979      0.83545318308049
  H   -0.35694587955762     -0.82542533771082      2.08098621409554
  H   -1.97177486066741     -0.90805456390820      1.35199258919393
  N   1.48827851328730      0.49817603199290     -1.41388170720031
  O   1.24154290410703      1.70153018299881     -1.48052389801752
  O   2.11224926046314     -0.14750742536226     -2.24869768429857
