15
Coordinates from ORCA-job run
  C   -0.54514277616147      0.00027396779170      0.06582022981917
  C   0.89257630316374     -0.34242615109655     -0.36013852073480
  Cl  -1.56628892758022     -0.20374130980775     -1.40876429071716
  H   1.56927788282089     -0.14831764313231      0.47557365125329
  H   0.97042701608361     -1.37463431030112     -0.69542316399186
  N   -0.76784344630656      1.32250679708596      0.57541073423336
  H   -0.39027396275191      1.40044346968105      1.51238779527272
  H   -0.32741212760268      2.01753220407237     -0.01464199291049
  C   -0.99470632773221     -1.01789685868557      1.10022864815388
  H   -0.94948250223755     -2.03182431086339      0.70252014420748
  H   -0.35662769514861     -0.95707726894453      1.98797134448637
  H   -2.02173883088644     -0.79307301971290      1.38804598270286
  N   1.37465758463104      0.49496299633442     -1.49306438237573
  O   1.68218627414620     -0.07827116258886     -2.53307714507339
  O   1.43039153556217      1.71054260016748     -1.30284903432572
