15
Coordinates from ORCA-job run
  C   -0.45724365002027      0.03764634087555      0.13102924033888
  C   0.93233056562288     -0.37504214135852     -0.33730278611629
  Cl  -1.52137254531597      0.03018130370316     -1.39110753341743
  H   0.92527999643180     -1.39235961142602     -0.72056177337680
  H   1.63221020152321     -0.27176007590712      0.49539146020304
  N   -0.44001943401791      1.28427428253687      0.79630047211675
  H   -0.03224624212419      2.01124089152219      0.22305356245864
  H   -1.36876194702456      1.55368868661123      1.09352102502699
  C   -1.01915345546123     -1.03872603509185      1.04357170066312
  H   -0.38634022310165     -1.12431895275044      1.92991804755204
  H   -1.07569363261808     -1.99970286356146      0.53240180803119
  H   -2.02694907253226     -0.76328552337117      1.36053394314648
  N   1.46883460260699      0.47030389428679     -1.44444664495640
  O   1.91054512710603     -0.11162488213383     -2.42902334473057
  O   1.45657970892521      1.68948468606463     -1.28127917693964
