15
Coordinates from ORCA-job run
  C   -0.69886864160708      0.10618504110063     -0.18870476567345
  C   0.50278096260396     -0.06446803598949     -1.11930746428824
  Cl  -2.13123867274605     -0.31450013938705     -1.21830665555792
  H   0.53788187545436      0.76441485349109     -1.82667168401438
  H   0.47333662986097     -1.02449594869648     -1.62710298101439
  N   -0.82517255849530      1.48698515942357      0.18596695331190
  H   -1.51780229271853      1.59810925379625      0.91631506601486
  H   0.06890490744315      1.83953765380038      0.50759431862193
  C   -0.66776262944291     -0.88837111510241      0.96420091485284
  H   -1.59743687951878     -0.81639392332604      1.53184262204828
  H   -0.55705913277801     -1.91603707267476      0.61294141588843
  H   0.16271263099642     -0.64896813088515      1.63391867644184
  N   1.76983121769821     -0.04570748508544     -0.33205321718417
  O   2.39857722310331     -1.09689299105484     -0.24150237956615
  O   2.08231536014629      1.01960288058974      0.20286918011863
