16

C	0.0	0.0	0.0
C	-0.619793	0.135376	-1.37079
Cl	1.760274	0.0	0.0
H	-1.697209	0.327564	-1.233676
H	-0.503705	-0.799658	-1.917731
N	-0.412155	1.190847	0.887369
O	-0.057608	1.126191	2.060235
O	-1.067387	2.087892	0.378978
C	-0.524815	-1.25359	0.669569
H	-1.617774	-1.192232	0.696186
H	-0.20991	-2.128431	0.096267
H	-0.119196	-1.317479	1.678525
N	-0.067481	1.188648	-2.269254
O	0.606233	2.100213	-1.803026
O	-0.363302	1.064953	-3.455922
Cl	-3.74449	0.0	0.0
