16

C	0.0	0.0	0.0
C	-0.649288	-0.082739	-1.374198
Cl	1.762378	0.0	0.0
H	-1.718259	0.128657	-1.242595
H	-0.508105	-1.096026	-1.753503
N	-0.353115	1.356835	0.627447
O	-0.459798	2.299654	-0.147612
O	-0.418472	1.41493	1.848203
C	-0.533926	-1.111407	0.871898
H	-0.214802	-2.069924	0.458812
H	-0.145995	-1.005852	1.882849
H	-1.626126	-1.041788	0.873652
N	-0.11718	0.812001	-2.443958
O	1.038527	0.613259	-2.820644
O	-0.883065	1.637397	-2.930268
Cl	-3.754138	0.0	0.0
