17

C	-0.203175	-0.057442	-1.490936
C	0.0	0.0	0.0
Br	-2.15484	-0.450528	-2.020054
H	1.10231	0.0	0.0
H	-0.110626	0.940711	-1.932367
N	0.645195	-1.050862	-2.058887
H	0.782015	-0.883631	-3.047643
H	1.552837	-0.9727	-1.576231
C	-0.450084	-1.258433	0.723461
H	-1.539208	-1.291207	0.835143
H	-0.130532	-2.147045	0.176394
H	0.008819	-1.288398	1.717019
C	-0.541749	1.266623	0.630648
H	-1.633944	1.318166	0.55303
H	-0.269081	1.302192	1.68982
H	-0.114962	2.154811	0.154258
H	2.901176	0.0	0.0
