17

C	-0.463026	-0.009771	-1.441762
C	0.0	0.0	0.0
Br	-0.048718	1.679183	-2.385447
H	1.096093	0.0	0.0
H	0.151781	-0.731009	-1.994125
N	-1.896964	-0.211829	-1.582208
H	-2.124459	-0.337024	-2.562304
H	-2.139294	-1.066761	-1.093735
C	-0.375712	-1.337752	0.648413
H	0.220791	-1.455059	1.557289
H	-0.122551	-2.181151	-0.003801
H	-1.436139	-1.40396	0.924365
C	-0.521946	1.165279	0.82421
H	-1.615124	1.224658	0.800858
H	-0.195423	1.04558	1.861808
H	-0.112636	2.109204	0.460573
H	2.996337	0.0	0.0
