17

C	-0.189319	-0.008574	-1.500827
C	0.0	0.0	0.0
Br	-2.1226	-0.204083	-2.039448
H	1.101528	0.0	0.0
H	0.069614	0.976828	-1.895944
N	0.592715	-0.987192	-2.216267
H	1.559263	-0.795919	-1.916562
H	0.368086	-1.90618	-1.849184
C	-0.467771	-1.256802	0.711774
H	-0.052587	-2.159227	0.255166
H	-0.111604	-1.237822	1.746213
H	-1.55978	-1.340627	0.718159
C	-0.524402	1.259692	0.66233
H	-0.151321	2.152085	0.149416
H	-1.620191	1.293631	0.663488
H	-0.173591	1.309762	1.698093
H	2.926882	0.0	0.0
