17

C	-0.492265	-0.019691	-1.439379
C	0.0	0.0	0.0
Br	-0.002713	1.639795	-2.387724
H	1.095849	0.0	0.0
H	0.056509	-0.794239	-1.981725
N	-1.916581	-0.225494	-1.672658
H	-2.436064	0.45545	-1.128909
H	-2.154462	-1.144822	-1.314676
C	-0.388767	-1.325928	0.659251
H	-0.104076	-2.176702	0.030078
H	0.169649	-1.42588	1.594712
H	-1.460273	-1.397434	0.887652
C	-0.492265	1.173476	0.831776
H	-0.076144	1.090297	1.839954
H	-1.587054	1.204002	0.923803
H	-0.149586	2.121926	0.415314
H	2.98951	0.0	0.0
