16
Coordinates from ORCA-job run
  C   -0.73429566460444      0.13400272938640     -0.10536121199623
  C   0.66604924803078      0.76853097124197     -0.05058741997131
  Br  -2.07483061214959      1.49362625386533      0.25503993201345
  H   0.66726033680486      1.59750647887713     -0.76135515440456
  N   -0.93114299822608     -0.28669018115059     -1.56165360388117
  O   -1.43297253433706     -1.38484829966307     -1.76372914351057
  O   -0.58421020206029      0.51819869681925     -2.41682078245120
  C   -0.90766298750347     -1.04409478340929      0.81866649032559
  H   -0.74889738075412     -0.71986783213369      1.84879377372326
  H   -0.18772778122168     -1.82010797248083      0.55340367638537
  H   -1.90910261741380     -1.45948801051398      0.72705486118004
  N   1.62913742067422     -0.23268685677826     -0.48396014450256
  H   2.36447291449501      0.19119405595138     -1.03313478079236
  H   2.04836353789158     -0.71301326140480      0.30170530078212
  C   0.93090807852840      1.29773295705943      1.29460917457033
  N   1.20465124184568      1.66000505433361      2.37832903252980
