16
Coordinates from ORCA-job run
  C   -0.72702634245740      0.14790963671703     -0.13262059647556
  C   0.69086633400817      0.74383662482949     -0.09715208634280
  Br  -2.03104184745275      1.56886340730689      0.10049993946581
  H   0.73013016568179      1.51531079529867     -0.86885290855383
  N   -0.90963288239701     -0.37534227322978     -1.55716816991880
  O   -0.54212830059305      0.36231884350060     -2.46274177991746
  O   -1.42076489868801     -1.48016871157534     -1.68642899746671
  C   -0.95273517235800     -0.95177471934476      0.87350782553420
  H   -1.96587205085122     -1.34078235434686      0.79572915920913
  H   -0.79944430347589     -0.55638580456486      1.87927160027994
  H   -0.25603107409628     -1.76913710006956      0.68045553636442
  N   1.63084074321935     -0.31350875057299     -0.43737971486521
  H   1.98899469883917     -0.77275554821624      0.39041281534554
  H   2.41204603086018      0.05862373104025     -0.96121381674059
  C   0.94532990083494      1.36533729985163      1.21083528596968
  N   1.20746899892600      1.79665492337584      2.27184590811224
