16
Coordinates from ORCA-job run
  C   -0.68756175987905      0.13931027917566     -0.11096058549998
  C   0.69264442018381      0.60433185910680      0.39287650396467
  Br  -1.81236509402065      1.69533160582167     -0.37576560036122
  H   0.47339033598352      1.10426084052767      1.34307645124886
  N   -0.56006268503857     -0.55955281460659     -1.46156772926625
  O   -1.58542859127593     -1.02447525119227     -1.93785788709478
  O   0.56334232470568     -0.63610278312957     -1.95526494665483
  C   -1.36376809218722     -0.83134143484364      0.83745204171677
  H   -2.35803276014858     -1.07613968078409      0.46834649121990
  H   -0.77550510749685     -1.74927048790141      0.91665962624033
  H   -1.45239373055055     -0.37594985854793      1.82534409795690
  N   1.33497593983910      1.57109209796896     -0.46810796176695
  H   2.02282038892766      2.09878246463129      0.05238894054875
  H   1.78503730800319      1.10855158445847     -1.24572612813481
  C   1.51866811293604     -0.57849577837733      0.71816365045392
  N   2.20423899001839     -1.49033264230770      0.99994303542875
