16
Coordinates from ORCA-job run
  C   -0.66616218267420      0.18736192502991     -0.10829087785490
  C   0.75675206629813      0.79958442507607     -0.01840298589936
  Br  -1.98219315968813      1.59866425231010      0.12753460333367
  H   0.78125513529258      1.65561583608793     -0.69666615882593
  N   -0.83397054518525     -0.30013664182773     -1.54610554094625
  O   -0.33370964462726      0.39532495898323     -2.42542574198137
  O   -1.45883128445623     -1.33941627136310     -1.72183350570630
  C   -0.92754947313413     -0.93959731948321      0.86045975909329
  H   -0.22987519692078     -1.76032177793373      0.67832213802865
  H   -0.80367585535960     -0.57358123270005      1.88042650427835
  H   -1.93751928795470     -1.32468222606181      0.73848486876003
  N   1.83839224481923     -0.08475529291101     -0.38521204293963
  H   1.87567221278165     -0.92295819618157      0.17788571211535
  H   1.81650140567273     -0.30959665537330     -1.36997383902438
  C   0.96613019344604      1.28616656572564      1.35078896462150
  N   1.13978337168993      1.63232765062263      2.45900814294726
