16
Coordinates from ORCA-job run
  C   -0.52958061113265     -0.08035465747949     -0.31647617954160
  C   0.88125039463098      0.19537655932402      0.23374110672278
  Br  -1.04527961290328      1.34964537380297     -1.51391949857523
  H   1.11874075443905     -0.64252571332375      0.89386024801845
  N   -0.49073230075323     -1.40015958651283     -1.09117628495918
  O   -1.21722582952021     -1.54233725952805     -2.06158090841719
  O   0.22976219811032     -2.26054412397271     -0.58855676904046
  C   -1.55670134197987     -0.25058254446226      0.78489888251399
  H   -1.26268038254595     -1.09294073219748      1.41734299889693
  H   -1.58973070591644      0.65597201708278      1.38560854470164
  H   -2.53848702357735     -0.44781600670693      0.35213309206232
  N   0.86838697025026      1.40889272304611      1.02981308481279
  H   1.70458203951606      1.45098177958194      1.59917454611822
  H   0.85487042460679      2.22378453948741      0.42793430519786
  C   1.87514738049332      0.19060301621767     -0.85713346963115
  N   2.69767764628221      0.24200461564060     -1.69466369888018
