16
Coordinates from ORCA-job run
  C   -0.70249602514072      0.06950501644387     -0.07910720037093
  C   0.64406923196611      0.66814953222747      0.37174121561944
  Br  -1.98977835390373      1.50524490504188     -0.27556551766913
  H   0.41648875706895      1.13461253028352      1.33689958121423
  N   -0.56440056289334     -0.60075868667658     -1.44316982906527
  O   0.53742668663769     -0.55559523773147     -1.98685883748477
  O   -1.55655500834949     -1.16591161430951     -1.87980876009888
  C   -1.23474341073062     -0.97288611163231      0.88467151024180
  H   -2.21383608088666     -1.31519557896171      0.55467933344988
  H   -0.55314791988942     -1.82641502145728      0.92778797663541
  H   -1.32680750066864     -0.53693875785904      1.88097357576002
  N   1.14732709708005      1.70322728580436     -0.50232750670689
  H   1.80183060462734      2.29173945396774     -0.00448866026863
  H   1.60635877273905      1.29582126135497     -1.30515178961141
  C   1.59951935805390     -0.42712410046331      0.64507112611609
  N   2.38974435428952     -1.26547487603259      0.87665378223904
