16
Coordinates from ORCA-job run
  C   -0.70454900531007      0.23123732344085     -0.13744667925171
  C   0.76215229703330      0.67571916737880     -0.00072143818730
  Br  -1.87340253031617      1.74830727773307      0.18874805387715
  H   0.90665541795687      1.50949359264501     -0.69072453701575
  N   -0.87945573765108     -0.13683265003241     -1.61090481510637
  O   -1.50771333411170     -1.15702678352434     -1.86184657492733
  O   -0.38800028338659      0.62966748268346     -2.42964106497471
  C   -1.07597272904150     -0.92922772864957      0.74979914610391
  H   -0.92901569037557     -0.64587285406128      1.79358091093382
  H   -2.11681324866183     -1.20867855809296      0.60047590584836
  H   -0.45045060202606     -1.78831656154251      0.50180009221275
  N   1.60743858926917     -0.43528365060056     -0.41082200509925
  H   1.91976912021031     -0.98084329668094      0.38186039641928
  H   2.41830095028565     -0.10264753203148     -0.91443213921279
  C   1.02400391955396      1.14249150959529      1.36813865561092
  N   1.28705286657133      1.44681326173957      2.47213609276903
