16
Coordinates from ORCA-job run
  C   -0.72407955102784      0.16563934011148     -0.12967572495465
  C   0.70772500384425      0.72709572774968     -0.08791033132524
  Br  -1.99448119053721      1.61590542506920      0.11048859987854
  H   0.76640014424078      1.50477949217061     -0.85205648267646
  N   -0.91760417265676     -0.34267227890505     -1.55821715140557
  O   -0.51211606771089      0.38229844666013     -2.45787482812434
  O   -1.47434566451023     -1.42404792305190     -1.69651364229810
  C   -0.97707611954280     -0.93602974704970      0.86744321394097
  H   -0.81810732494538     -0.55156848561641      1.87657098685791
  H   -1.99807396241024     -1.30246524334795      0.78360963562632
  H   -0.29624360552344     -1.76553114707459      0.66946010986435
  N   1.62215265547711     -0.35104257480638     -0.43314534775283
  H   2.00080064101786     -0.79910416398162      0.39112559955384
  H   2.38859222757239     -0.00537088448773     -0.99425786983270
  C   0.97684481701770      1.33111887254624      1.22461957034265
  N   1.25061216969472      1.75099514401398      2.28733366230531
