16
Coordinates from ORCA-job run
  C   -0.72848482658155      0.09489076724096     -0.17033255190094
  C   0.61608453955702      0.80956741404636      0.04942287469955
  Br  -2.18294790984213      1.34999007335011      0.11854821648439
  H   0.63008165277723      1.67283169389435     -0.61898036209941
  N   -0.75804382225476     -0.26245192866352     -1.65633749731906
  O   -0.38544399723304      0.60481951316375     -2.43634867550188
  O   -1.16390112305201     -1.37792032802064     -1.95554265300431
  C   -0.91054880905952     -1.13746818062960      0.67828884895502
  H   -0.11983823194953     -1.85383465940649      0.44940510635549
  H   -1.86962012209990     -1.60764648628045      0.47129929450868
  H   -0.87079136965330     -0.85763511380332      1.73256775077514
  N   1.67909303435536     -0.10744483421686     -0.33328532821281
  H   2.05200260622599     -0.60298087126832      0.46607102953499
  H   2.43402571451868      0.38792920804259     -0.78770271169259
  C   0.71687718758338      1.28347963636287      1.43707385016371
  N   0.86245547670808      1.60487409618821      2.55785280825404
