16
Coordinates from ORCA-job run
  C   -0.55858462261133     -0.07644134517508     -0.27515923268262
  C   0.88130415605885      0.22951781314014      0.17665442508150
  Br  -1.26901213087282      1.44004240665267     -1.24149701511740
  H   1.22512149820951     -0.66147813408092      0.70844475356603
  N   -0.49943590835164     -1.29646771792504     -1.20037099038438
  O   0.20372147560128     -2.20814340155356     -0.76872841851896
  O   -1.17041999329701     -1.32107999155611     -2.21929077820178
  C   -1.46269216572386     -0.44074610174375      0.88528940559634
  H   -1.50184333181846      0.39362141987713      1.58254440589612
  H   -2.46606724691387     -0.66678185802346      0.52081346775303
  H   -1.05443071142201     -1.31854393806216      1.39237955656629
  N   0.88069955826643      1.34107440699409      1.10869957549503
  H   0.76313479241318      2.21652972465736      0.61236743477973
  H   1.76435819643326      1.37301989521533      1.60198417612128
  C   1.76309999300559      0.40845205466022     -0.99358377504244
  N   2.50104644102291      0.58642476692315     -1.89054699090776
