16
Coordinates from ORCA-job run
  C   -0.68595775748104      0.09415100698273     -0.10804435981783
  C   0.68827733345426      0.58105755709342      0.40080155637066
  Br  -1.82499004030644      1.65617135008599     -0.29684472858474
  H   0.47212205416475      1.18523321113039      1.29563435799151
  N   -0.44613297736588     -0.54023809795577     -1.47920890231766
  O   -0.86476255996498     -0.00197755257179     -2.48946244874513
  O   0.19738643172033     -1.58275232391325     -1.41536503082051
  C   -1.35547661157104     -0.91893602399445      0.79660250895467
  H   -2.33337891523476     -1.18975643831688      0.39557396852266
  H   -0.73587542817866     -1.81277366237529      0.87122716480493
  H   -1.49503348052894     -0.48856584861533      1.78986907228204
  N   1.37669770230767      1.29548095476385     -0.66254480529109
  H   2.34267948444354      1.46070576678231     -0.40893662251874
  H   0.92658702055068      2.18924993611548     -0.82107691043403
  C   1.52091157968481     -0.54164397771473      0.85051369192350
  N   2.21694616430568     -1.38440585749668      1.27926148767976
