16
Coordinates from ORCA-job run
  C   -0.55249941752870     -0.01203374041688     -0.30185800040642
  C   0.88853898274774      0.13095695597326      0.22354684032178
  Br  -1.05456167279847      1.58878091286321     -1.26183051118259
  H   1.10814407957587     -0.80295453664397      0.74782199254507
  N   -0.56578729839063     -1.21389560405703     -1.25256491549330
  O   -0.04235134853582     -2.21910486701357     -0.77538141149332
  O   -1.10845216276739     -1.12895880546205     -2.34225398276771
  C   -1.54409596012064     -0.30110177663705      0.80709812269568
  H   -1.53152915128867      0.52128408153581      1.51944750117854
  H   -2.54683846776536     -0.41599407931369      0.39230062410905
  H   -1.25288269193917     -1.22422260136352      1.31360222348704
  N   0.96135495315012      1.21719860287089      1.18157203316586
  H   1.82131536249439      1.14832156196673      1.71154763818097
  H   0.95520370361617      2.10970074830543      0.70225740429715
  C   1.83847859685554      0.23827570509603     -0.90143316172780
  N   2.62696249269503      0.36274744229641     -1.76387239691001
