16
Coordinates from ORCA-job run
  C   -0.71091257859927      0.21986929502193     -0.12217445477809
  C   0.75250195101176      0.68583055797765     -0.02256804150222
  Br  -1.89329545237060      1.72551533344541      0.21098114815881
  H   0.86980413859674      1.51878639934747     -0.71872095036348
  N   -0.91345013367509     -0.16774545846079     -1.58675852190636
  O   -1.55174264637947     -1.18752673832233     -1.81264461489338
  O   -0.43284213281338      0.58465856831524     -2.42507022399345
  C   -1.04663065107604     -0.93470506114796      0.78629492378964
  H   -0.88601201598198     -0.63524204923956      1.82345541992922
  H   -0.40894102764022     -1.78483115765979      0.53819815911792
  H   -2.08472233269386     -1.23428119191175      0.65951071891937
  N   1.60325999903267     -0.41793621720857     -0.44210102533365
  H   2.36939464459229     -0.08579119168863     -1.01119498001863
  H   1.97891610698070     -0.92541922778930      0.34808705615945
  C   1.03792747910242      1.16237055657139      1.33770584065402
  N   1.31674465191333      1.47644758274959      2.43499954606083
