16
Coordinates from ORCA-job run
  C   -0.50367525482159     -0.04745939744041     -0.29076276323089
  C   0.97011350163547      0.21965731759279      0.13242523225199
  Br  -1.20119192316127      1.47751622380388     -1.24705573416876
  H   1.30009945154976     -0.69992309894393      0.62716488020019
  N   -0.47560642496527     -1.27726592748244     -1.20188491083810
  O   -0.90796343068347     -1.21776549462353     -2.34135180091237
  O   0.00712766616353     -2.26756213666387     -0.65410203081542
  C   -1.39457944870126     -0.37726755410532      0.89167149943949
  H   -1.47848124356448      0.48956441060819      1.54679259940990
  H   -0.97458692459690     -1.22100578814255      1.44279864431204
  H   -2.39594131712566     -0.63912645679140      0.54602247381199
  N   1.18939422179570      1.32148137018805      1.03694160545935
  H   0.81791223900211      2.18569488995865      0.66289190742027
  H   0.78612621377359      1.13879774009784      1.94542270084498
  C   1.80080619475135      0.39030450728033     -1.06745145726468
  N   2.46044647894841      0.52335939466371     -2.02952284591997
