16
Coordinates from ORCA-job run
  C   -0.61718949794141      0.06643111729405     -0.07260425669677
  C   0.75583680627126      0.60702890012595      0.42125678399020
  Br  -1.80657624583233      1.57967520830568     -0.36236157815981
  H   0.53793341293938      1.00503338777687      1.41979943980938
  N   -0.48117400919344     -0.62841413441692     -1.42446865618374
  O   -1.42937256757600     -1.30917506193401     -1.79105101672802
  O   0.56207659813994     -0.45199143212843     -2.04966908877736
  C   -1.24639097161940     -0.90436984073244      0.90327822842446
  H   -2.23177112966288     -1.20752882510783      0.55558097899862
  H   -1.34188835806552     -0.42737184611722      1.88028802760894
  H   -0.61598463065176     -1.79227082179141      0.99711420593495
  N   1.44148913124268      1.64216348020121     -0.31034709867182
  H   1.59060358690509      1.35600648185747     -1.26794537105077
  H   0.90634401564630      2.49983272800728     -0.29193213738746
  C   1.64764735519548     -0.54855996291513      0.61206393290711
  N   2.32941650420261     -1.48948937842512      0.77999760598207
