16
Coordinates from ORCA-job run
  C   -0.74670927411773      0.08830985317536     -0.05801549355346
  C   0.59395876567432      0.81297074201027      0.15322220217614
  Br  -2.18778668083451      1.16888576622727      0.66994318132051
  H   0.49772464902811      1.79910899816230     -0.30552049954878
  N   -0.95532451104843      0.05760740823722     -1.57204233264412
  O   -1.36437970015267     -0.98822374478068     -2.05930808790240
  O   -0.71002231136288      1.09157207724146     -2.18045620194112
  C   -0.78371599403635     -1.30579545439408      0.51385719167688
  H   -1.74730725172977     -1.77344323645616      0.32272928264411
  H   -0.61836772347670     -1.25733882308360      1.59167487568861
  H   -0.00810708061059     -1.91081672752330      0.04142557942552
  N   1.62530784446905      0.06036938665580     -0.54482371411193
  H   2.11157097410568     -0.57316114214880      0.07627616335788
  H   2.30125138488195      0.68327231199100     -0.96543597051053
  C   0.85706888653103      0.98240740695528      1.58932663335448
  N   1.13483802267947      1.06327517773066      2.72814719056819
