16
Coordinates from ORCA-job run
  C   -0.53802730078671     -0.08338053182245     -0.30988301119730
  C   0.87422665585617      0.21672366660915      0.22559124121218
  Br  -1.12234576816141      1.37008283360582     -1.44325949274981
  H   1.14617720569164     -0.63778418874590      0.85059201129166
  N   -0.45515361203995     -1.37495194845020     -1.12980088209207
  O   0.19499942633372     -2.26478186139446     -0.58441723399792
  O   -1.06578194012318     -1.46693253356494     -2.18226894654776
  C   -1.53726151736798     -0.32688039746892      0.80333719140820
  H   -1.59612732805732      0.56038805077254      1.43040810849864
  H   -2.51895577704889     -0.54991537193266      0.38240743085278
  H   -1.19913012663861     -1.17419215104049      1.40527433445589
  N   0.84271496966514      1.39985894562447      1.06456119211577
  H   1.68999271433956      1.44836582255167      1.61692507755104
  H   0.78960618323681      2.23473984787634      0.49280655880227
  C   1.84574735739062      0.27678225395378     -0.88414024919349
  N   2.64831885771040      0.37287756342625     -1.73713333041010
