16
Coordinates from ORCA-job run
  C   -0.67169252725975      0.24808337543685     -0.08942155683405
  C   0.80638842879689      0.76271869546029      0.02780688662910
  Br  -1.85723912543471      1.62244987247155      0.58016127291146
  H   0.88647625096511      1.63034349141490     -0.63864193657024
  N   -0.99188392399992      0.01630741005984     -1.57254695225272
  O   -0.13486024683110     -0.61708207056132     -2.18966117175471
  O   -2.05528073073346      0.39793509646339     -2.03328081928189
  C   -0.91333189828816     -1.06377946333333      0.62848067756156
  H   -0.68990159052784     -0.94661308844782      1.69054480752730
  H   -1.95688682008802     -1.36441450866406      0.52234258675277
  H   -0.27470304184314     -1.83946084094268      0.20162584675920
  N   1.88192836805492     -0.15440729844586     -0.27796552721760
  H   1.74989177014512     -0.56344486346036     -1.19201228803201
  H   1.95752804798005     -0.88409671792275      0.41845471730912
  C   1.02003941852945      1.22904783850027      1.40528247865874
  N   1.24352762053456      1.52641307197110      2.51883097783395
