16
Coordinates from ORCA-job run
  C   -0.68847664536764      0.12267676160534     -0.04690385490893
  C   0.65474068219913      0.86760145047366      0.17331085248879
  Br  -2.14949018900726      1.25255594812885      0.55962250797120
  H   0.54600708674329      1.86215337905557     -0.26540676881736
  N   -0.86462197003144     -0.00749843446843     -1.55868280875271
  O   -1.37000943687106     -1.04011041660069     -1.98263185392593
  O   -0.49139440813591      0.94275146059313     -2.24051570885575
  C   -0.76909643767377     -1.23432277219096      0.60795617282071
  H   -0.64237696172830     -1.12232220974253      1.68544495565919
  H   -1.73072386009532     -1.70132556706074      0.40719139863143
  H   0.01200752434871     -1.88821268873802      0.21327284217925
  N   1.81499219802256      0.24704598183908     -0.42259273102178
  H   1.77314234499898      0.27295763159240     -1.43175552765499
  H   1.97901731008339     -0.69286003540905     -0.08995924838422
  C   0.86919300839665      1.01862199015751      1.61783535960101
  N   1.05708975411797      1.09928752076486      2.77381441297010
