16
Coordinates from ORCA-job run
  C   -0.54743347774520     -0.05258518412409     -0.30082621563610
  C   0.88643988942055      0.17485057359884      0.21249604488300
  Br  -1.09292656846066      1.45220594751302     -1.38520781324235
  H   1.13433395778184     -0.70659001942247      0.80940077151505
  N   -0.53384978202551     -1.32526232059009     -1.15403160501233
  O   -1.15732193079422     -1.36185929543657     -2.20223003741749
  O   0.07901646044507     -2.25777326463865     -0.63767720816626
  C   -1.53373837919616     -0.28333175237657      0.82657518217526
  H   -2.53138858158070     -0.45783283035864      0.42048442511585
  H   -1.54574520020265      0.59043661815056      1.47481603120424
  H   -1.21799338688781     -1.15719052713697      1.40197740526383
  N   0.92099003248789      1.33595078799977      1.08158552959785
  H   1.77957584518504      1.33438354972477      1.61834996791750
  H   0.89325358321420      2.18684046215485      0.53213038513089
  C   1.83758966677336      0.22306655603589     -0.91519971041824
  N   2.62719787158496      0.30469069890632     -1.78164315291071
