16
Coordinates from ORCA-job run
  C   -0.54370712382951     -0.07930953652655     -0.29999245012261
  C   0.87727856804084      0.21908804635906      0.21254104207501
  Br  -1.17115556491306      1.40636679257560     -1.36740166856981
  H   1.17421352091639     -0.65310811181140      0.80055457314669
  N   -0.46749934041219     -1.33959475641054     -1.16715048781063
  O   0.21528165325886     -2.23702197579781     -0.67670343911135
  O   -1.11331317332903     -1.40473924731002     -2.20047051559257
  C   -1.51378287035192     -0.37339996175865      0.82667392468347
  H   -2.50164516432437     -0.59597085155336      0.42032955511604
  H   -1.15107194444271     -1.23534823432696      1.39256474452666
  H   -1.57027339523942      0.49144385235377      1.48445316607294
  N   0.85207829661700      1.37180044812339      1.09295002294001
  H   1.71099518157029      1.41094810435466      1.62778263775103
  H   0.77697542530024      2.22548951568433      0.55234220785355
  C   1.82180378313921      0.32904141658216     -0.91641943481062
  N   2.60382214799939      0.46331449946234     -1.78305387814784
