16
Coordinates from ORCA-job run
  C   -0.55504310915396     -0.11768807612334     -0.26358866533539
  C   0.87376726347989      0.27582899209183      0.15643562828504
  Br  -1.33678916716950      1.30363542409795     -1.31520064047597
  H   1.25529943818919     -0.56453738256666      0.74215754871595
  N   -0.44796782359004     -1.38948273709851     -1.11142055729387
  O   -1.11279419736896     -1.50232653701909     -2.12838623661023
  O   0.28888731377379     -2.24461105361111     -0.62376966333100
  C   -1.43496758467090     -0.44608426822273      0.92591551884964
  H   -1.50516652539330      0.42834486846522      1.56959825755717
  H   -2.43019848837266     -0.73677110868014      0.58574200545409
  H   -0.98643461846096     -1.27208953375589      1.48334999469246
  N   0.83186551727560      1.44430301627213      1.01508971175793
  H   0.67658582229119      2.28029895987890      0.46408370174898
  H   1.71546663506256      1.54385801451954      1.49936699815863
  C   1.73837474409796      0.41600234620649     -1.03151641357783
  N   2.42911478001010      0.58031907554541     -1.96785718859559
