16
Coordinates from ORCA-job run
  C   -0.74875786048033      0.05136279935479     -0.07174735491234
  C   0.54699427251935      0.83833800699127      0.18956940226379
  Br  -2.25841889426787      1.02925926872137      0.66225993244298
  H   0.40855384068083      1.83089025094212     -0.24403275329368
  N   -0.92863030886387      0.05999085699374     -1.58989300815057
  O   -0.73092516388090      1.12547096060476     -2.15983254277350
  O   -1.26953735220887     -0.99043793420082     -2.11822595361073
  C   -0.72150631704902     -1.36098885991674      0.45412208356001
  H   -0.57559925481290     -1.33940594633693      1.53575311309179
  H   0.09160427830204     -1.90959117517004     -0.02421412337795
  H   -1.65639673818927     -1.87134086149789      0.23181602777983
  N   1.63068596542346      0.16229927006721     -0.50738039992702
  H   2.29240407415656      0.83161442835649     -0.87658231325910
  H   2.12505157783320     -0.47675646984129      0.10205767357152
  C   0.77135602647755      0.97979027439610      1.63562599543845
  N   1.02312185436004      1.04150513053587      2.78170422115652
