16
Coordinates from ORCA-job run
  C   -0.74138016852711      0.11337768537039     -0.07969497666084
  C   0.61812854311365      0.79451239249805      0.15448509321125
  Br  -2.16171984770690      1.25683298059242      0.59052833870619
  H   0.56892429198488      1.77489165330280     -0.32362966127106
  N   -0.91152555868069      0.06190865638553     -1.59789725797835
  O   -1.34523277132394     -0.97758740935964     -2.07734213824023
  O   -0.61357250395619      1.07505209963379     -2.21774439055104
  C   -0.84256759247840     -1.26775420314333      0.51547432951062
  H   -0.07604784719645     -1.90793620397196      0.07567228450226
  H   -1.81653077571974     -1.70514391698748      0.30619234251224
  H   -0.70478734811978     -1.20499039963102      1.59643484380864
  N   1.64010893241142     -0.00635957678090     -0.50270246133155
  H   2.34860142180099      0.58505533158020     -0.91517519594567
  H   2.08708301921181     -0.64486174261640      0.14239487080755
  C   0.84981318203868      0.98088154144786      1.59391081165659
  N   1.10070502314776      1.07312111167970      2.73809316726341
