16
Coordinates from ORCA-job run
  C   -0.70968584449154      0.18098117972398     -0.17589065940827
  C   0.71980256723125      0.71817476178850      0.02703995790146
  Br  -1.97850431589908      1.64481725514160     -0.01909169592681
  H   0.85104832786060      1.55810203757227     -0.65889584052784
  N   -0.76975422635121     -0.27818758753991     -1.63202838088083
  O   -0.16171657537021      0.40348940711250     -2.45016926074133
  O   -1.43715436850453     -1.27372825240796     -1.87866576043535
  C   -1.07416598348189     -0.94995260922766      0.75043617479250
  H   -0.36345939651594     -1.76560145167758      0.60763425296045
  H   -2.07661624746699     -1.31350780368289      0.53568174211555
  H   -1.03482203689867     -0.59778132448466      1.78253861682956
  N   1.65091850730544     -0.35889892072493     -0.28675833296124
  H   2.27974267954332     -0.08438786519120     -1.02800988464100
  H   2.18717221594780     -0.65040867959819      0.51845000563983
  C   0.87504968072050      1.21138268372823      1.39870689081941
  N   1.04414501637116      1.55550716946789      2.50902217446393
