16
Coordinates from ORCA-job run
  C   -0.73916270646997      0.08496314346862     -0.06684764925277
  C   0.60363441513533      0.80660533004578      0.16142350634243
  Br  -2.19218557215629      1.23755923159953      0.51649233640065
  H   0.51917167187593      1.80672658633476     -0.27330109080382
  N   -0.89101375551374     -0.04481600321858     -1.58176024383483
  O   -1.51487936848936     -1.00917236150894     -2.00257985789054
  O   -0.40008156559064      0.84911194497261     -2.26528591643763
  C   -0.82840276728161     -1.26986475006662      0.58630156496600
  H   -0.74944743379150     -1.15540250803525      1.66835091981725
  H   -0.00752684152520     -1.88808522690875      0.21951501986803
  H   -1.77551916534275     -1.74753111476814      0.34583938001980
  N   1.65320559666351      0.01199124451490     -0.47014270454432
  H   2.44642804787371     -0.12234367558205      0.14135429249557
  H   1.95873852381997      0.45889280029935     -1.32374244468808
  C   0.84004766813362      0.94930475764257      1.59915037744958
  N   1.07699325265901      1.03306060121018      2.74623251009270
