16
Coordinates from ORCA-job run
  C   -0.60241091702920      0.13649357724544     -0.09514746141287
  C   0.79513234538327      0.50310895196110      0.48203213287997
  Br  -1.60995185308597      1.78139229533663     -0.35678277603361
  H   0.57298239166274      0.88230044841193      1.48694964864588
  N   -0.47819112122564     -0.50692901603692     -1.47299726776225
  O   0.61076485509073     -0.43097261636887     -2.03778002017713
  O   -1.47952678301824     -1.05075416116524     -1.91850407755209
  C   -1.37622112963095     -0.80446142034650      0.80307829852850
  H   -2.37026340178508     -0.98360831743948      0.39849959976309
  H   -0.84787980114897     -1.75828126481439      0.87894543195940
  H   -1.46772194271798     -0.36504053600131      1.79792976228428
  N   1.62127645355951      1.48679723420418     -0.17148289757857
  H   1.18123240112065      2.39632122794138     -0.13406874853737
  H   1.78276616235879      1.22717636107340     -1.13462401009887
  C   1.54886356939694     -0.74888995706921      0.65943747479867
  N   2.11814877106941     -1.76365280693215      0.81551491029296
