16
Coordinates from ORCA-job run
  C   -0.48249824934289     -0.05743186833363     -0.32194364333683
  C   0.96669051176128      0.20298586104065      0.18291166555498
  Br  -1.06267862619049      1.40459174562517     -1.44089209534798
  H   1.23341675036930     -0.68369168428901      0.76745974492182
  N   -0.43309568303858     -1.35672597276347     -1.12951276798696
  O   -0.78586105123479     -1.37745745018807     -2.29736208845192
  O   -0.02017955197312     -2.31238003132765     -0.47379767751742
  C   -1.46302076194552     -0.26688151077529      0.81649057509841
  H   -1.10857109844036     -1.07260716745212      1.46253357316855
  H   -1.56561097634039      0.65300566790079      1.39168460588138
  H   -2.44539359711219     -0.53159154740178      0.42179745665271
  N   1.15697566899266      1.36537691841439      1.01511249153035
  H   0.69425270722018      1.25952465286683      1.90761883837396
  H   0.83174487018959      2.20644035386931      0.55525139135628
  C   1.88047693666982      0.26036107733086     -0.96666992148400
  N   2.60335215041551      0.30448095548302     -1.89068214841332
