16
Coordinates from ORCA-job run
  C   -0.49000803607850     -0.04600862548985     -0.31267767111962
  C   0.96875460156282      0.20141726959273      0.17091657538540
  Br  -1.10111687695001      1.45825203533058     -1.35702924301998
  H   1.25158071752687     -0.70620055266013      0.71444981567917
  N   -0.45090826682114     -1.30979031375366     -1.17543477008297
  O   -0.82569058733472     -1.28297717942957     -2.33638398554919
  O   -0.02035321808575     -2.28995486943107     -0.56892758350924
  C   -1.44451791325063     -0.30828837959899      0.83656128254145
  H   -1.53537643917828      0.58455804285495      1.45481749920620
  H   -2.43513133350189     -0.55717373475409      0.45255165900413
  H   -1.07444492276630     -1.14120368167292      1.43773377534756
  N   1.17309607169696      1.33125565739802      1.04325131718851
  H   0.83586435131293      2.18855083884303      0.62347067499223
  H   0.73069633553315      1.18923153924468      1.94093064909275
  C   1.85773384283266      0.30541358751281     -0.99455244031668
  N   2.56182167350181      0.38291836601348     -1.93067755483971
