16
Coordinates from ORCA-job run
  C   -0.68267099458756      0.15003206156468     -0.04785517007839
  C   0.68604141449368      0.83756693207731      0.20035442817084
  Br  -2.10423754187995      1.31816408526496      0.57930333719899
  H   0.61790295060340      1.84674463603418     -0.21230932441275
  N   -0.85242646737375      0.06651989274673     -1.56350722379949
  O   -0.44090424811015      1.02105407229598     -2.21696344056162
  O   -1.39029256623595     -0.93581048356853     -2.01893110132354
  C   -0.81927647932411     -1.21949037110181      0.57064365392290
  H   -0.69701976111855     -1.14014653428846      1.65155717191010
  H   -1.79619773997253     -1.64431738664589      0.35091515590189
  H   -0.06030421115381     -1.89222075995446      0.16448242390891
  N   1.82681922741947      0.18985851798880     -0.40543204187337
  H   1.95049648364706     -0.76495228808114     -0.09814581176562
  H   1.79110885287492      0.24362951370081     -1.41383719842141
  C   0.89632700964010      0.94136356117836      1.64953548952988
  N   1.07463407107773      0.98100455078849      2.80918965169268
