16
Coordinates from ORCA-job run
  C   -0.69373865953765      0.08841858806291     -0.04054285220247
  C   0.60700879066545      0.88737033913745      0.23754308063087
  Br  -2.21382654394848      1.09067055162130      0.64105596221854
  H   0.44414941732886      1.90357565881873     -0.12885825513166
  N   -0.86376988629332      0.05873792768768     -1.55818399294793
  O   -0.54269719818537      1.07497283522542     -2.16761845881334
  O   -1.31263593969474     -0.96631704455333     -2.05728554936883
  C   -0.70007810702711     -1.31463841991756      0.51451261440613
  H   -0.57834187554901     -1.27376477949146      1.59754420673791
  H   0.11461735476648     -1.89528718381677      0.07582991143869
  H   -1.63530272067675     -1.81715232090343      0.27810966098139
  N   1.79911150381297      0.37506429030334     -0.39754457551035
  H   1.75475243115996      0.46953105456891     -1.40230019705999
  H   2.01480221368502     -0.57559914926218     -0.13124747620869
  C   0.81368290961743      0.94508003277905      1.68989559415307
  N   0.99226630987627      0.94933761973992      2.85009032667665
