16
Coordinates from ORCA-job run
  C   -0.70286683208430      0.06588823868124     -0.07959198320786
  C   0.63726016571874      0.66133692504422      0.39451378902419
  Br  -2.00141469871784      1.49658200560707     -0.23521303505692
  H   0.40244232835208      1.09508892161192      1.37310166876971
  N   -0.55511072042994     -0.56020992533201     -1.46322544662076
  O   -1.54105492001970     -1.12018727792341     -1.92012134154465
  O   0.54747092633954     -0.48785749877392     -2.00238638792579
  C   -1.22912475680989     -1.01043197551220      0.84965947453598
  H   -1.32514662136530     -0.60682637262537      1.85916802537836
  H   -2.20542937248100     -1.34913112563568      0.50775082493246
  H   -0.54162690061897     -1.86017925497797      0.86641790668236
  N   1.13469875175471      1.72765877335758     -0.44427943988842
  H   1.78240134361050      2.30577000870593      0.07421818786739
  H   1.59856315126675      1.35060149379283     -1.25897955221434
  C   1.60086429414110     -0.43450583744355      0.63594900538487
  N   2.39707386134354     -1.27359709857670      0.84301830388343
