17
Coordinates from ORCA-job run
  C   -0.65295206476481     -0.13621304550157      0.28450280568850
  C   0.84321439580060     -0.34693182438648     -0.00383884397485
  Br  -0.96528894696556     -1.55886099417838      1.80188551982650
  H   1.00800847846166     -1.37456275117076     -0.34150098197373
  C   -1.61467791418634     -0.55808964174019     -0.80419824325541
  H   -2.63487897651188     -0.53321122021910     -0.41640455205123
  H   -1.40280858742262     -1.57019774225113     -1.14694733124617
  H   -1.53655268508096      0.13104480770001     -1.64580851424675
  N   -0.84581818864134      1.16929111760385      0.70528512459096
  H   -1.79340986753072      1.38887713118109      0.97603129505449
  H   -0.15771429443505      1.45728971595320      1.39087604476339
  N   1.63198196686639      0.09658894909493      1.11683153579682
  H   2.55659726409909      0.37690285286720      0.81837981959713
  H   1.69820795170750     -0.64971796101746      1.79605110931344
  N   1.20481712444147      0.50195800537633     -1.20773091615569
  O   0.82564583275152      0.06606760089171     -2.29159440371364
  O   1.83462851141106      1.53876499979674     -1.03081946801377
