17
Coordinates from ORCA-job run
  C   -0.56847989122681     -0.28687899048054      0.36880425368778
  C   0.93415406251115     -0.10527774945881      0.09349267379354
  Br  -0.86056509323530     -2.26489355418275      0.61368375674492
  H   1.49768710319647     -0.53790498143462      0.92924012490831
  C   -1.49632595038690      0.17616859008601     -0.73745036707925
  H   -2.53132692806608      0.05389356609708     -0.40895033045070
  H   -1.34709986753901     -0.39761786085430     -1.64680839598863
  H   -1.30211736683535      1.22806491758144     -0.95184333003956
  N   -0.83584466224188      0.43931573992722      1.56778827835757
  H   -0.35616456618329      0.03646797839684      2.36490875293473
  H   -1.82858772204686      0.46044257302041      1.76631770278103
  N   1.19672841313415      1.27451183560124     -0.19894135803718
  H   0.69250159257673      1.84208365123821      0.47174214172504
  H   2.18683921468892      1.47414847034312     -0.12422546474889
  N   1.40870846352629     -0.93186081286888     -1.08300410526255
  O   2.28232775618462     -1.76248054051344     -0.83739232819422
  O   0.92756544194314     -0.69918283249825     -2.18536200513194
