17
Coordinates from ORCA-job run
  C   -0.63835893863048     -0.25735162370795      0.33901424522553
  C   0.85855136883225     -0.43617347169195      0.01089662767686
  Br  -1.10536366164582     -1.96470020770657      1.36629461722673
  H   1.05810821312172     -1.46208726295519     -0.29020659790426
  C   -1.55183389394071     -0.24302654549243     -0.87089092664178
  H   -2.59205924458406     -0.27083178413829     -0.54203872923812
  H   -1.37097788610703     -1.10097931615834     -1.51613661319537
  H   -1.38707013925727      0.67609277859937     -1.43817113336919
  N   -0.81100627090010      0.89692672012284      1.12550009791728
  H   -1.78843792183961      1.10366582971140      1.28384738325254
  H   -0.32863307577096      0.81445462298742      2.01203315827204
  N   1.67836002835742     -0.03161693341467      1.09775339266421
  H   2.60685357737602     -0.42423242131864      1.02318183205020
  H   1.74611762858926      0.97997537965915      1.10575601452982
  N   1.14569909274984      0.37700416742466     -1.25941993897696
  O   1.45669979216154      1.55653946705705     -1.11821488048319
  O   1.02335133148798     -0.21365939897786     -2.33019854900634
