17
Coordinates from ORCA-job run
  C   -0.59829353612317     -0.23643273224152      0.41816089588463
  C   0.91590984871268     -0.26934352547641      0.12378251152059
  Br  -0.81455047695249     -1.59114281131638      1.93750167736783
  H   1.28182721680641     -1.29321058257092      0.15134877714180
  C   -1.47164300054024     -0.74443067006359     -0.71210926546527
  H   -1.44079002311408     -0.03313190919887     -1.54089576462766
  H   -2.50222629683700     -0.83409266615706     -0.36458886541696
  H   -1.14002005731794     -1.71998375128610     -1.06349787289212
  N   -0.97124320848172      1.06235265232992      0.81068553821581
  H   -1.97253102681942      1.15061506392214      0.92374717580984
  H   -0.50251282152717      1.33859390150194      1.66471679448706
  N   1.63403384864859      0.57655828026086      1.01017003918564
  H   2.61377808911302      0.32971129994025      1.04017233422217
  H   1.54372079575442      1.53784270217721      0.70084093588955
  N   1.10305447276544      0.14423433903506     -1.34298886022293
  O   1.10126615906524     -0.76090613538230     -2.17434453062021
  O   1.22122001684743      1.34276654452576     -1.58270152047979
