17
Coordinates from ORCA-job run
  C   -0.63644324757577     -0.25123170152335      0.16682552781445
  C   0.84685427793292      0.13992116625819     -0.12008415517284
  Br  -1.12580992377796     -1.67544354336230     -1.12848849729179
  H   1.12097055725738      0.85714933625952      0.65960044114151
  C   -1.52813121913573      0.94682656534153     -0.11554487490110
  H   -1.47964870333737      1.25271982089200     -1.15874245675916
  H   -2.55822029675417      0.68193299327316      0.12420553269853
  H   -1.22238225047210      1.78871951960915      0.51743406061997
  N   -0.91459767419170     -0.73668005370285      1.48231636356192
  H   -0.19803569903471     -1.36832868960701      1.81716913117627
  H   -1.00792422464057      0.03483984777345      2.13215291562412
  N   1.18466549240071      0.66929745672641     -1.39718290193995
  H   0.88369203223941      1.62838195240101     -1.48794420560289
  H   0.81143283539666      0.10378274637045     -2.14847067033803
  N   1.73420468098091     -1.05589163863251      0.14472518259884
  O   1.92232625247026     -1.34285607923099      1.32953056731040
  O   2.16804711024181     -1.67213969884584     -0.81850196054026
