13

C	0.0	0.0	0.0
C	-0.41206	0.344865	-1.435441
F	1.376521	0.0	0.0
H	0.516935	0.582224	-1.964346
H	-0.357328	0.780361	0.669226
H	-0.367365	-0.972269	0.317009
N	-1.316287	1.420961	-1.560421
H	-1.531246	1.568508	-2.537873
H	-2.184895	1.172638	-1.071986
N	-0.837978	-0.938934	-2.200969
O	-0.354688	-2.009824	-1.848336
O	-1.533628	-0.777445	-3.197782
Cl	-3.595258	0.0	0.0
