13

C	0.0	0.0	0.0
C	-0.444909	0.412061	-1.403094
F	1.376566	0.0	0.0
H	0.430648	0.855822	-1.890579
H	-0.36766	-0.984578	0.278872
H	-0.351066	0.752786	0.705362
N	-1.534835	1.299579	-1.43392
H	-2.355803	0.914902	-0.94621
H	-1.799993	1.499107	-2.389405
N	-0.629706	-0.867441	-2.276083
O	-1.335137	-0.756963	-3.274058
O	0.019821	-1.867934	-1.97923
Cl	-4.029387	0.0	0.0
