13

C	0.0	0.0	0.0
C	-0.505292	0.179846	-1.41992
F	1.386405	0.0	0.0
H	-1.544746	0.503662	-1.344533
H	-0.342141	0.822105	0.626775
H	-0.367038	-0.945355	0.399365
N	-0.405993	-0.949166	-2.293193
H	-1.229166	-1.517574	-2.141834
H	0.427443	-1.488984	-2.100187
N	0.2789	1.341455	-1.991074
O	1.137246	1.121578	-2.841027
O	0.029156	2.446933	-1.513176
Cl	-3.41312	0.0	0.0
