13

C	0.0	0.0	0.0
C	-0.426688	0.468755	-1.405022
F	1.385004	0.0	0.0
H	0.439548	1.024917	-1.781979
H	-0.369347	-0.991997	0.25371
H	-0.346532	0.730711	0.732561
N	-1.60084	1.235514	-1.592659
H	-1.456604	2.175936	-1.252801
H	-2.418893	0.829648	-1.121448
N	-0.46121	-0.761513	-2.324028
O	0.379359	-1.629629	-2.082734
O	-1.257174	-0.793146	-3.250176
Cl	-4.036964	0.0	0.0
