13

C	0.0	0.0	0.0
C	-0.345927	0.053207	-1.484977
F	1.381793	0.0	0.0
H	0.286442	0.82399	-1.928805
H	-0.368646	0.892831	0.507452
H	-0.37746	-0.900434	0.480468
N	-1.685319	0.189027	-1.922307
H	-2.39419	-0.12278	-1.251154
H	-1.889313	1.150783	-2.145927
N	0.210457	-1.232925	-2.095852
O	-0.153968	-2.290691	-1.590759
O	0.928559	-1.130312	-3.087448
Cl	-4.157426	0.0	0.0
