13

C	0.0	0.0	0.0
C	-0.502467	0.30912	-1.383514
F	1.38223	0.0	0.0
H	-1.59884	0.336502	-1.3192
H	-0.360715	-0.988797	0.278276
H	-0.353572	0.742735	0.710188
N	-0.038777	-0.631093	-2.342348
H	0.968631	-0.582292	-2.419099
H	-0.440371	-0.439488	-3.249018
N	-0.079702	1.751255	-1.731154
O	0.373216	1.959946	-2.859016
O	-0.251951	2.618449	-0.880955
Cl	-3.502963	0.0	0.0
