13

C	0.0	0.0	0.0
C	-0.194489	0.0549	-1.566696
F	1.38237	0.0	0.0
H	0.426746	0.910536	-1.835783
H	-0.414873	-0.888821	0.464212
H	-0.428247	0.893183	0.441893
N	-1.397269	0.059031	-2.346113
H	-2.038763	-0.659282	-2.010554
H	-1.89823	0.929916	-2.195762
N	0.623755	-1.088762	-2.140405
O	0.236339	-2.241467	-1.930574
O	1.595106	-0.792511	-2.840883
Cl	-3.343256	0.0	0.0
