13

C	0.0	0.0	0.0
C	-0.508268	0.236344	-1.417734
F	1.386403	0.0	0.0
H	-1.50803	0.660723	-1.337861
H	-0.338049	0.800816	0.656487
H	-0.370183	-0.957202	0.363547
N	-0.544173	-0.890532	-2.297519
H	-1.409868	-1.380535	-2.106702
H	0.241689	-1.506474	-2.135388
N	0.380879	1.314323	-1.995568
O	0.229131	2.44304	-1.529839
O	1.220121	1.005325	-2.834626
Cl	-3.396798	0.0	0.0
