17

C	0.0	0.0	0.0
C	-0.448079	0.408006	-1.461123
F	1.426707	0.0	0.0
H	-0.975084	-0.471969	-1.848573
N	-0.426548	0.99742	0.946598
H	-1.4504	0.888937	0.902444
H	-0.121392	0.694739	1.868663
N	-0.446997	-1.347443	0.232869
H	-0.225239	-1.587744	1.196805
H	-1.471893	-1.219559	0.175915
N	0.735886	0.749391	-2.255025
H	0.398137	0.866175	-3.203542
H	1.391298	-0.021909	-2.233124
N	-1.367772	1.515723	-1.582186
H	-0.968386	2.278878	-1.044921
H	-2.205998	1.184306	-1.08759
F	-2.858567	0.0	0.0
