17

C	0.0	0.0	0.0
C	-0.40617	-0.070791	-1.481729
F	1.412052	0.0	0.0
H	-1.497916	-0.074538	-1.473185
N	-0.448702	1.249202	0.555084
H	-0.285176	1.190611	1.558471
H	-1.472921	1.142329	0.424433
N	-0.449901	-1.190309	0.671564
H	-1.474073	-1.093978	0.5324
H	-0.285439	-1.03839	1.664907
N	0.083729	-1.337242	-2.040524
H	0.026263	-1.279261	-3.051783
H	1.062578	-1.433387	-1.792022
N	0.073628	1.142439	-2.156492
H	0.028441	0.984516	-3.157572
H	1.048804	1.275547	-1.909628
F	-2.827168	0.0	0.0
