17

C	0.0	0.0	0.0
C	-0.492523	-0.097943	-1.479953
F	1.438372	0.0	0.0
H	0.426347	-0.167913	-2.073912
N	-0.467467	1.192186	0.626178
H	-1.489011	1.002719	0.613605
H	-0.182517	1.136937	1.601036
N	-0.320191	-1.193942	0.764819
H	-0.40722	-1.970466	0.118966
H	0.463725	-1.360829	1.386305
N	-1.26608	1.052725	-1.942775
H	-0.792526	1.888633	-1.612738
H	-2.123333	0.973304	-1.378681
N	-1.26993	-1.318215	-1.645101
H	-2.103627	-1.116335	-1.06333
H	-1.570023	-1.324923	-2.614466
F	-2.929655	0.0	0.0
