15

C	0.0	0.0	0.0
C	-0.472546	0.070902	-1.442329
F	1.346161	0.0	0.0
H	-1.570375	0.140222	-1.458106
H	-0.428377	-0.855014	0.511411
N	-0.375565	1.229453	0.784204
O	-0.247202	2.306393	0.20672
O	-0.634334	1.057406	1.968164
N	-0.052857	-1.195767	-2.139046
O	0.04868	-1.145575	-3.359612
O	0.101208	-2.195928	-1.44518
N	0.139217	1.190516	-2.229862
O	1.36067	1.187651	-2.352457
O	-0.635611	2.005846	-2.715954
Cl	-3.223616	0.0	0.0
