15

C	0.0	0.0	0.0
C	-0.5127	0.151806	-1.418669
Cl	1.873352	0.0	0.0
H	-1.579194	0.372174	-1.302675
H	-0.02282	1.017837	-1.869077
N	-0.240818	1.351716	0.75723
O	-0.227776	2.388188	0.105122
O	-0.383746	1.275097	1.971939
N	-0.503972	-1.085802	0.687084
H	-0.396026	-0.946704	1.684752
H	-1.498392	-1.173318	0.4598
N	-0.359036	-1.091215	-2.157082
H	0.507861	-1.095263	-2.676517
H	-1.132032	-1.194231	-2.799159
Br	-3.782662	0.0	0.0
