15

C	0.0	0.0	0.0
C	-0.53449	-0.183688	-1.409797
Cl	1.76825	0.0	0.0
H	-1.586964	0.116832	-1.377308
H	0.010609	0.48327	-2.076068
N	-0.295357	1.48853	0.426157
O	-0.427859	1.688308	1.628184
O	-0.316458	2.345092	-0.448561
N	-0.559016	-0.911521	0.899192
H	-0.294282	-0.677553	1.848378
H	-1.580957	-0.83115	0.809914
N	-0.322035	-1.570393	-1.826994
H	-0.836737	-2.159925	-1.182324
H	-0.768763	-1.67842	-2.730881
Br	-3.800989	0.0	0.0
