15

C	0.0	0.0	0.0
C	-0.534782	-0.185263	-1.409039
Cl	1.768247	0.0	0.0
H	-1.58878	0.110864	-1.373506
H	0.007048	0.486305	-2.074651
N	-0.298451	1.48672	0.425619
O	-0.312043	2.343717	-0.44902
O	-0.438659	1.684939	1.626648
N	-0.555723	-0.914708	0.899117
H	-0.290067	-0.682748	1.848219
H	-1.578274	-0.836182	0.810604
N	-0.319348	-1.571199	-1.828368
H	-0.763686	-1.678602	-2.733164
H	-0.834627	-2.160977	-1.18451
Br	-3.79844	0.0	0.0
