15

C	0.0	0.0	0.0
C	-0.504299	-0.114635	-1.428261
Cl	1.847269	0.0	0.0
H	-0.057673	0.693451	-2.009274
H	-1.582277	0.064222	-1.358676
N	-0.256357	1.472317	0.492547
O	-0.413008	1.61726	1.69928
O	-0.236521	2.373529	-0.336475
N	-0.519414	-0.940303	0.870377
H	-1.526597	-1.007939	0.694136
H	-0.369231	-0.650686	1.829769
N	-0.245765	-1.444128	-1.960618
H	-1.063382	-1.775081	-2.454428
H	0.537953	-1.429226	-2.598359
Br	-3.78127	0.0	0.0
