15

C	0.0	0.0	0.0
C	-0.538724	-0.045578	-1.422178
Cl	1.846945	0.0	0.0
H	0.018121	0.679496	-2.019999
H	-1.573207	0.295631	-1.332535
N	-0.249979	1.45205	0.544407
O	-0.220044	2.378203	-0.25762
O	-0.412796	1.562384	1.753944
N	-0.512493	-0.966412	0.84343
H	-0.399624	-0.681935	1.809503
H	-1.507334	-1.080334	0.631148
N	-0.517563	-1.399484	-1.948118
H	0.243049	-1.524022	-2.601192
H	-1.396255	-1.593251	-2.409498
Br	-3.790312	0.0	0.0
