15

C	0.0	0.0	0.0
C	-0.574605	-0.063867	-1.401482
Cl	1.837243	0.0	0.0
H	-0.095102	0.692463	-2.027517
H	-1.634795	0.179815	-1.268613
N	-0.270359	1.378739	0.618285
O	-0.288146	1.433012	1.841353
O	-0.388152	2.327295	-0.147361
N	-0.542117	-0.965083	0.797088
H	-0.772193	-1.820979	0.321085
H	-0.274196	-0.999458	1.761125
N	-0.461302	-1.434898	-1.890863
H	-1.25415	-1.639934	-2.486995
H	0.391765	-1.548255	-2.42553
Br	-4.030982	0.0	0.0
