15

C	0.0	0.0	0.0
C	-0.377604	-0.259697	-1.477468
Cl	1.825641	0.0	0.0
H	0.339541	0.29356	-2.082737
H	-0.173281	-1.326009	-1.614233
N	-0.294561	1.486779	0.364931
O	-0.552062	1.722928	1.540067
O	-0.206568	2.319775	-0.531004
N	-0.571507	-0.890345	0.90472
H	-0.444848	-0.572833	1.857905
H	-1.575027	-0.943519	0.714762
N	-1.696015	0.057734	-1.932835
H	-2.450488	-0.367332	-1.399819
H	-1.854596	1.055256	-1.882002
Br	-4.336859	0.0	0.0
