9
Coordinates from ORCA-job run
  C   0.91682181570456      0.01412813723353     -0.40876021606042
  C   -0.41475146731026     -0.51287251356471      0.11101211704467
  Cl  1.77092108950699      0.93775709157436      0.84833494666495
  H   -0.85854981825426     -1.16990201868660     -0.64408143542402
  H   0.76934548384511      0.67253821510581     -1.26378809659891
  H   1.55485637479427     -0.82061564531566     -0.69744058951948
  H   -0.25402027920925     -1.10516433735606      1.01486167397708
  C   -1.36223446898291      0.55985117575596      0.40898692070658
  N   -2.12338873009426      1.42427989525338      0.62987467920954
