16

C	0.0	0.0	0.0
C	-0.607999	0.008883	-1.407303
Cl	1.714177	0.0	0.0
H	-1.692978	0.17969	-1.337182
N	-0.519351	1.222747	0.780363
O	-1.701049	1.590536	0.521395
O	0.09438	1.498129	1.819237
N	-0.529988	-1.343454	0.589674
O	-1.756374	-1.215671	0.901653
O	0.264669	-2.183502	1.088246
C	-0.336174	-1.237766	-2.09483
N	-0.235893	-2.306384	-2.571711
N	-0.023485	1.154045	-2.208442
O	-0.092525	1.039338	-3.441393
O	0.136228	2.207031	-1.576276
H	-1.60962	0.0	0.0
