15
Coordinates from ORCA-job run
  C   -0.67599244348701      0.02788241688179      0.08952100349845
  C   0.76631047885062     -0.15205103235574     -0.41447527231499
  F   -1.06292403749746     -1.19156738911753      0.63892955353970
  H   1.05485226156309      0.77265209369163     -0.92596748823425
  C   -1.54503673962306      0.29825922715232     -1.06893522805864
  N   -2.26385520668876      0.51016116513436     -1.97225442998529
  C   -0.82999865187336      1.10168593519943      1.14653340200931
  H   -1.87612470428840      1.16131407258696      1.44874341396177
  H   -0.52014121791084      2.07329295747844      0.75616945217015
  H   -0.22330188693990      0.84928577004383      2.01714619173767
  N   0.79511722633604     -1.23691296615547     -1.37477311732612
  H   1.70302437256585     -1.30073594687927     -1.81708798889792
  H   0.60008643229167     -2.11491463493324     -0.90973167903700
  C   1.66896043528705     -0.32945358625591      0.74212689353286
  N   2.41002368141446     -0.46789808247160      1.64305529340430
