15
Coordinates from ORCA-job run
  C   -0.75973234878636      0.06459710989456     -0.19636101510209
  C   0.66421718519592     -0.39157307876439     -0.58371489366011
  F   -1.57348041434645     -1.04392722941146     -0.43419024621647
  H   0.63944345889619     -0.60975987333097     -1.66253201954383
  C   -1.19101651491919      1.13664205363749     -1.10850630119277
  N   -1.52343736501216      1.99747568487046     -1.83473326399599
  C   -0.90039608085622      0.47248468511469      1.25287620373034
  H   -1.95260229178368      0.66272119472812      1.46871962653408
  H   -0.32712595108918      1.37919028471901      1.45203285643231
  H   -0.53080416061668     -0.33543876200547      1.88232114918877
  N   1.02767866463219     -1.53130455761562      0.24681712946320
  H   1.99936446155581     -1.77428937207284      0.09819278542089
  H   0.45598104934329     -2.32364352064442     -0.02085034401380
  C   1.60556679978717      0.71012801455118     -0.36740973065926
  N   2.36734350799935      1.58569736632964     -0.19166193638526
