15
Coordinates from ORCA-job run
  C   -0.76336822848011      0.07465117954581     -0.17732610148637
  C   0.64316794683206     -0.40399078389320     -0.59872084529338
  F   -1.59828652563338     -1.02411408124760     -0.38765459355904
  H   0.58718963412577     -0.62854744428627     -1.67505323665513
  C   -1.20512585612184      1.14737743985174     -1.08345004848906
  N   -1.54799786691387      2.00916788176501     -1.80367214285040
  C   -0.86077731795147      0.49226331017048      1.27277448695251
  H   -1.90384528842162      0.70158385421560      1.51368553073701
  H   -0.26744552419556      1.39031506317809      1.45191171348398
  H   -0.48874664843365     -0.31837977860149      1.89732350821073
  N   1.01159373088775     -1.54412906404805      0.22940788746197
  H   0.42496256764501     -2.33098167691270     -0.02207797328722
  H   1.97691159985719     -1.79914377326631      0.06043491960544
  C   1.60602215853820      0.68473479104999     -0.41420115197457
  N   2.38574561826553      1.54919308247892     -0.26338195285647
