15
Coordinates from ORCA-job run
  C   -0.58709203961507     -0.00633890238712      0.20165197037971
  C   0.80999781059895     -0.18122489132061     -0.44875940374672
  F   -0.80249432698671     -1.12519583771995      0.99877420779739
  H   0.97128885202387      0.67047343658615     -1.11991107145465
  C   -1.58183435422308     -0.02991826669282     -0.88562497589653
  N   -2.33757391209278     -0.02558263007162     -1.78437068286969
  C   -0.72999317527737      1.23653531124126      1.05355348943373
  H   -0.01073591938589      1.19678628540586      1.87259644238152
  H   -1.73749494359803      1.28264430057694      1.46874743147025
  H   -0.55186808285767      2.13406271972523      0.45762660702470
  N   0.98274782530141     -1.40073290239762     -1.20912245542231
  H   0.71748463767492     -2.20137263767590     -0.64852320060586
  H   0.41308130277203     -1.38183683817486     -2.04617244089474
  C   1.82661032154925     -0.11529987934247      0.61202373465426
  N   2.61787600411618     -0.05399926775246      1.47651034774893
