15
Coordinates from ORCA-job run
  C   -0.67394762693098     -0.01572694872599      0.21938702327930
  C   0.75345464116458     -0.23779821335849     -0.33093549133933
  F   -0.99856322937787     -1.08102363169757      1.03297582799465
  H   1.03326279250025      0.67881040956364     -0.87456733120511
  C   -1.59015320106707     -0.01285360736669     -0.93653611037682
  N   -2.27570900177152      0.03417835573836     -1.88842554117648
  C   -0.80654948574845      1.26471916973406      1.02047979265493
  H   -1.82732461610336      1.35118622356488      1.39366507018497
  H   -0.12411074576386      1.22900547587066      1.87124970815604
  H   -0.57965648950677      2.13813594581159      0.40667078740871
  N   0.78776850632648     -1.44560477661461     -1.14267838989454
  H   1.72315463100328     -1.82778348618254     -1.18672200845017
  H   0.47918083278656     -1.24068431713771     -2.08522359319665
  C   1.67309044536380     -0.37091952816003      0.80320427689846
  N   2.42610254712493     -0.46464107103955      1.69845597906206
