16

C	-0.388469	-0.03809	-1.474427
C	0.0	0.0	0.0
Br	-0.163287	1.925538	-2.151102
H	1.101627	0.0	0.0
H	-0.400094	0.887814	0.488444
N	0.491537	-0.912376	-2.131385
H	0.363853	-0.932721	-3.134208
H	1.463783	-0.723017	-1.890663
C	-1.840292	-0.358841	-1.760741
H	-2.492749	0.35264	-1.254326
H	-2.052234	-1.360307	-1.384159
H	-2.041078	-0.313014	-2.834381
N	-0.535949	-1.206577	0.662617
H	-0.015545	-1.990201	0.27881
H	-0.254716	-1.149554	1.636551
Br	3.668727	0.0	0.0
