16

C	-0.388624	-0.056074	-1.474089
C	0.0	0.0	0.0
Br	-0.165337	1.899373	-2.175486
H	1.101566	0.0	0.0
H	-0.400736	0.893381	0.477198
N	0.493019	-0.936892	-2.119538
H	0.364032	-0.969496	-3.120703
H	1.465118	-0.743026	-1.882563
C	-1.841106	-0.378285	-1.757449
H	-2.054381	-1.373528	-1.367473
H	-2.491245	0.341787	-1.26113
H	-2.043263	-0.346539	-2.831304
N	-0.535366	-1.198589	0.676929
H	-0.016912	-1.986892	0.300156
H	-0.250887	-1.131691	1.64956
Br	3.668693	0.0	0.0
