16

C	-0.422903	-0.098695	-1.458505
C	0.0	0.0	0.0
Br	-0.17162	1.819561	-2.285125
H	1.101352	0.0	0.0
H	-0.315601	-0.953143	0.444178
N	0.416423	-1.023522	-2.090489
H	1.396792	-0.860942	-1.866327
H	0.27493	-1.065391	-3.09001
C	-1.892947	-0.3829	-1.681119
H	-2.493373	0.348293	-1.140955
H	-2.100756	-1.386364	-1.29467
H	-2.151807	-0.352813	-2.742662
N	-0.65226	1.081388	0.734188
H	-0.215415	1.950962	0.447194
H	-0.416966	0.958302	1.713351
Br	3.66956	0.0	0.0
