16

C	-0.545371	-0.129606	-1.415827
C	0.0	0.0	0.0
Br	-0.01409	-1.936559	-2.092604
H	1.096938	0.0	0.0
H	-0.329425	0.992176	0.337814
N	-1.987367	-0.070388	-1.486211
H	-2.257977	0.908056	-1.499364
H	-2.329918	-0.489899	-0.624746
C	0.101579	0.885551	-2.336038
H	-0.156254	1.892978	-1.987933
H	1.185032	0.779652	-2.302404
H	-0.259319	0.75989	-3.358805
N	-0.619079	-0.99191	0.88985
H	-0.166664	-1.880553	0.702089
H	-0.367423	-0.748307	1.840919
Br	3.704981	0.0	0.0
