16

C	-0.52147	0.029708	-1.44147
C	0.0	0.0	0.0
Br	-0.216886	-1.766228	-2.204903
H	1.093519	0.0	0.0
H	-0.360499	-0.904221	0.503525
N	-1.949722	0.282973	-1.552961
H	-2.445979	-0.422925	-1.01578
H	-2.095249	1.173335	-1.078672
C	0.244496	1.042767	-2.263367
H	0.079471	2.027748	-1.820481
H	1.311932	0.82862	-2.227268
H	-0.117773	1.043255	-3.292871
N	-0.455576	1.234126	0.66689
H	-1.14453	1.016051	1.376173
H	0.340913	1.654749	1.133052
Br	3.725535	0.0	0.0
