16

C	-0.306013	0.097136	-1.486898
C	0.0	0.0	0.0
Br	-2.297517	0.306357	-1.69425
H	1.100274	0.0	0.0
H	-0.332704	0.930539	0.484699
N	0.30214	1.260576	-2.09217
H	1.310843	1.10525	-2.049462
H	0.11466	2.070452	-1.507481
C	0.117969	-1.147609	-2.232001
H	-0.3847	-2.02183	-1.824051
H	1.197194	-1.266824	-2.081418
H	-0.095048	-1.037212	-3.296177
N	-0.500813	-1.213666	0.626883
H	-1.404994	-1.044868	1.048504
H	0.146689	-1.495353	1.351248
Br	3.613597	0.0	0.0
