16

C	-0.317146	0.014783	-1.48459
C	0.0	0.0	0.0
Br	-2.323761	0.209356	-1.70947
H	1.098183	0.0	0.0
H	-0.334974	0.952951	0.428254
N	0.293081	1.190035	-2.04266
H	1.244909	1.243427	-1.680242
H	0.341892	1.112716	-3.052113
C	0.061423	-1.288607	-2.160995
H	-0.16776	-1.24822	-3.229761
H	1.141461	-1.413973	-2.024121
H	-0.453896	-2.13069	-1.702083
N	-0.494592	-1.185549	0.683238
H	0.15593	-1.425912	1.419682
H	-1.396356	-0.99606	1.100429
Br	3.604736	0.0	0.0
