14
Coordinates from ORCA-job run
  C   0.69418827354997      0.46161254993287     -0.20300423832859
  C   -0.78065368810986      0.08542535530661     -0.36776280910398
  Cl  1.03533231877980      1.81750878531309     -1.28736029638265
  H   -0.95926640367469     -0.18352935621720     -1.41192243642183
  C   1.04749807699497      0.80272074945524      1.16336682264030
  N   1.29577425423026      1.12886999724074      2.26561178428091
  N   1.56383176521288     -0.71865734607283     -0.69314988998938
  O   2.63946581249060     -0.86365101716964     -0.14202585272384
  O   1.09907892058299     -1.35153433970885     -1.62843648402769
  C   -1.65862594974495      1.16497547075931      0.05526861587295
  N   -2.36335234859488      2.04134950620286      0.39566129808251
  N   -1.12131285450910     -1.16483035806073      0.43676914099278
  O   -2.28319137248929     -1.52862495186747      0.35784732704533
  O   -0.20776680471870     -1.69163504511399      1.05913701806317
