14
Coordinates from ORCA-job run
  C   0.69287949043725      0.45908059639296     -0.21076766019732
  C   -0.78352623282195      0.08351849799493     -0.36337677757650
  Cl  1.02825525365842      1.80905421937168     -1.30419022070513
  H   -0.97081735153026     -0.18973322401337     -1.40493546910506
  C   1.05496921467993      0.80820500845794      1.15145810600402
  N   1.31092918036829      1.14337713079703      2.24923761049405
  N   1.55830714502652     -0.72428233597124     -0.69962570993661
  O   2.64050178373082     -0.86215518776851     -0.15934070879659
  O   1.08440690671725     -1.36631820486219     -1.62400818872331
  C   -1.65664237172039      1.16621519649461      0.06225052508168
  N   -2.35527444310995      2.04708033349894      0.40356034749977
  N   -1.11935811180512     -1.16229324869130      0.45024280886457
  O   -2.28164633370807     -1.52614504306106      0.38062569016987
  O   -0.20198412992271     -1.68560373864044      1.06986964692656
