14
Coordinates from ORCA-job run
  C   0.76039896252154      0.33974609441063     -0.30771823126130
  C   -0.78052243436538      0.25370975403361     -0.31120485413291
  Cl  1.35625489610415      0.09694075340558     -1.93504459098994
  H   -1.15017822435608      0.99026330420126     -1.02879167892695
  C   1.16584404707706      1.63684914849730      0.21128668847056
  N   1.47895064719558      2.70076986164626      0.60361674222017
  N   1.35233716041448     -0.74248058028463      0.66223692093933
  O   1.96516474315852     -1.67005026692462      0.17719266660997
  O   1.10959538335174     -0.50821262479589      1.83502091194646
  C   -1.38605822638601      0.46734123154565      0.99511693266273
  N   -1.92993716577697      0.68957723934481      2.01285427590591
  N   -1.21282409887896     -1.09867006679790     -0.84662468955254
  O   -0.89277695344904     -2.06634710545730     -0.16782757128577
  O   -1.83624873661066     -1.08843674282475     -1.89911352260571
