14
Coordinates from ORCA-job run
  C   0.64622173884183      0.30694975680878      0.29050290407718
  C   -0.66720874818454     -0.30783798118342     -0.23407537431589
  Cl  0.42179073911654      1.95600283189837      0.80671084097714
  H   -0.47856940507308     -1.35205231315876     -0.49453181142044
  C   1.25850003861921     -0.50050258942391      1.33473516333829
  N   1.79472312122051     -1.12873828407211      2.17228015487746
  N   1.61902330448592      0.23523227240812     -0.94399513515222
  O   2.06808603536238      1.27199997186565     -1.38662323049975
  O   1.80175170455989     -0.90881840940508     -1.33382315555041
  C   -1.16983193945321      0.43627383060052     -1.37723092559773
  N   -1.54196915011177      1.01340276778065     -2.33056280862027
  N   -1.68582186289204     -0.32953119955107      0.89237340776182
  O   -2.57214169564311      0.51229834279564      0.87487691785470
  O   -1.49455388084852     -1.20467899736337      1.72836305227016
