14
Coordinates from ORCA-job run
  C   0.67342790534491      0.50075582810172     -0.17352996928716
  C   -0.74259001126507     -0.01167905681821     -0.44837358471796
  Cl  1.02162182294964      1.78938680916910     -1.33483716614069
  H   -0.78887354788624     -0.37753178189333     -1.47724773124861
  C   0.85476242682630      0.97953496754203      1.18516074250645
  N   0.96016096558152      1.41661902548173      2.27176467979246
  N   1.67853374783247     -0.63624190950475     -0.46992941863777
  O   1.36263919732741     -1.38231450104974     -1.38350564528489
  O   2.70109604281026     -0.63963714377953      0.19057979711330
  C   -1.73998730515732      1.01965889297750     -0.21024580095500
  N   -2.54017974319090      1.85841482910412     -0.01894895708783
  N   -1.06912187491684     -1.21822013315843      0.42585803894647
  O   -2.18549729627290     -1.68407894270789      0.26675032932267
  O   -0.18699232998329     -1.61566688346433      1.17650468567855
