14
Coordinates from ORCA-job run
  C   0.70030521161513      0.32700989609708     -0.44078860049985
  C   -0.82066080359736      0.23299560708365     -0.19535098717004
  Cl  1.03407122900888     -0.00084243562572     -2.12708823952806
  H   -1.30815355284525      0.93043839030546     -0.88087657899309
  C   1.16143712955295      1.65439213205604     -0.06337395774595
  N   1.49497339697174      2.74820105054939      0.21277338835963
  N   1.45424726099851     -0.69486677820618      0.47890378631928
  O   1.39560874184395     -0.39810609331684      1.66125802362481
  O   1.99844650029850     -1.64331767109834     -0.04644016751709
  C   -1.21597422902054      0.50860135106006      1.17822854039930
  N   -1.60695790485016      0.75386197435339      2.25894482395310
  N   -1.31415697642616     -1.14723323974139     -0.58746781874148
  O   -0.87048648811330     -2.07801723285452      0.07302456122816
  O   -2.10369951543689     -1.19311695066208     -1.52074677368868
