14
Coordinates from ORCA-job run
  C   0.54961783349044      0.46174432952401      0.28552827742599
  C   -0.57857092300473     -0.45329846734729     -0.23190221759352
  Cl  0.03110246190062      2.12178893982345      0.39292003733404
  H   -0.21453783787929     -1.48348701094080     -0.23083354291851
  C   1.10976621388852     -0.00541920430274      1.54451025572872
  N   1.59990137200472     -0.36025295864290      2.55325454971924
  N   1.69094202095275      0.30107038334704     -0.78625786674773
  O   2.05467045326448      1.28604253029883     -1.39443230398557
  O   2.08085315044215     -0.85271883079763     -0.88972802681170
  C   -1.00747360747866     -0.05001172739377     -1.56108810823474
  N   -1.31291449215832      0.24813298556301     -2.65572093537091
  N   -1.73651355824281     -0.41165311827816      0.75004318542723
  O   -1.55063203149721     -1.05505210998892      1.77617860984342
  O   -2.71721105568266      0.25211425913583      0.44652808618405
