14
Coordinates from ORCA-job run
  C   0.66095080190387      0.24587670152482      0.31325058269480
  C   -0.68717474177496     -0.23977609002890     -0.25600821563743
  Cl  0.61837324775370      1.94427512515561      0.70063977681190
  H   -0.62028228586236     -1.31623298203194     -0.43068121881836
  C   1.10455296440501     -0.55004128792612      1.44773711205268
  N   1.50754082508443     -1.18011080248327      2.35566310546208
  N   1.68883996922641     -0.03739123667271     -0.84482820130034
  O   1.73760590673544     -1.21938779852945     -1.15209487781207
  O   2.30174934269590      0.89836765778950     -1.31457031660347
  C   -1.02044582199133      0.47018488604743     -1.48011795568591
  N   -1.25457412662368      1.00804597186114     -2.49809802984624
  N   -1.76484068224708     -0.04705284994096      0.79654227919780
  O   -1.73191808987346     -0.86573941091622      1.70751252838430
  O   -2.53937730943187      0.88798211615107      0.65405343110028
