14
Coordinates from ORCA-job run
  C   0.71061096575074      0.44071316057763     -0.30489279064318
  C   -0.81416091467588      0.21067096807443     -0.24753593543764
  Cl  1.23734953767919      0.41207735422801     -1.97338027556901
  H   -1.28621074933482      0.97692234917806     -0.86731392124357
  C   1.02511408880002      1.71487605985305      0.32280031992095
  N   1.25942097646919      2.76163246364068      0.80586523339844
  N   1.44958791510686     -0.66786019756454      0.52464124901337
  O   2.11992798007681     -1.47996793737948     -0.07740038643197
  O   1.24780324759523     -0.57270939090724      1.72437829016923
  C   -1.36528636076015      0.23275229691607      1.09958918486533
  N   -1.88631595133756      0.25943146345555      2.15261204346001
  N   -1.15328851409909     -1.11642115385283     -0.90087676557951
  O   -1.83951396174188     -1.06006838930028     -1.91200236774222
  O   -0.70403825952862     -2.11204904691907     -0.34748387818026
