14
Coordinates from ORCA-job run
  C   0.65932255172825      0.27772288144220      0.29298484995886
  C   -0.67884379052755     -0.27614978439813     -0.23725430759846
  Cl  0.51584774045312      1.94307367545574      0.78500809355508
  H   -0.54105935267794     -1.33200844771509     -0.48202507985089
  C   1.21793979998874     -0.54625132961174      1.35420870245392
  N   1.70608682457582     -1.19713621991365      2.20376214091059
  N   1.63938044682186      0.13890704762633     -0.93025636290387
  O   2.14545438880649      1.14505501057000     -1.38181968594673
  O   1.76678937320498     -1.01831130406512     -1.30272452594825
  C   -1.13152941528470      0.47777289921492     -1.39470265958043
  N   -1.46946174315318      1.06827394799006     -2.35256929049709
  N   -1.70837597309050     -0.23094510954953      0.87862911223518
  O   -2.54530401895407      0.65953841707540      0.84543769850359
  O   -1.57524683189132     -1.10854168412135      1.72332131470851
