14
Coordinates from ORCA-job run
  C   0.71876489381400     -0.09342265587014     -0.61322495556829
  C   -0.63242440607630     -0.72012670960490     -0.29180435240179
  Br  1.73117770394929     -1.20534546965484     -1.83958559218043
  H   -0.43942366656967     -1.73243100868038      0.06975470045855
  H   -1.18335649862081     -0.79829081769044     -1.23277828107945
  C   0.59290730978681      1.23958438398709     -1.18365748172033
  N   0.43391371810725      2.28584395234969     -1.69588038302301
  N   1.51327702000594     -0.00322149505588      0.70029154974277
  O   1.84767981799524      1.11389929618201      1.07369423819705
  O   1.69142532227730     -1.06152901933997      1.28285938064321
  C   -1.41204655216460      0.09508724677484      0.73593695171021
  H   -0.90268473425358      0.11644826517033      1.70152167906473
  H   -1.56856074126813      1.12303218750009      0.40239973922728
  H   -2.39164918698275     -0.36052815606749      0.89147280692949
