14
Coordinates from ORCA-job run
  C   0.68686187793052      0.19637654474135     -0.28630021685433
  C   -0.44986333427406     -0.65333984264916      0.26672806859714
  Br  0.77657105032147      0.10651780257941     -2.22901421071042
  H   -0.30134098332565     -1.67067085464844     -0.09897335273326
  H   -0.31698203112954     -0.67232585001099      1.35525267812595
  C   0.57722107427652      1.59105782446775      0.11352620361076
  N   0.39916745736032      2.70381502509236      0.44906748455337
  N   2.02725751743606     -0.36022413462443      0.22615420254105
  O   2.14760884990170     -1.57527345729825      0.18028072015577
  O   2.85220986509917      0.45113673903419      0.62401489430048
  C   -1.83293211394660     -0.12285491732691     -0.08799399255141
  H   -1.98915021781700      0.88409622053695      0.30370761587003
  H   -2.59214196075850     -0.77466165237618      0.34819674260080
  H   -1.98648705107442     -0.10364944751765     -1.16764683750594
