14
Coordinates from ORCA-job run
  C   0.68988860922251      0.22277141238403     -0.26037551998733
  C   -0.45084816294380     -0.67450346804950      0.20219917828863
  Br  0.79642675573071      0.31163810309051     -2.20240525963146
  H   -0.29641465333251     -1.65469585540905     -0.25192703376743
  H   -0.32837527428461     -0.79175585791879      1.28585691776355
  C   0.57457296548228      1.57480181885165      0.26454204909156
  N   0.39199406134265      2.65215657981661      0.69863758281849
  N   2.02549652583158     -0.37885083457854      0.21099203163834
  O   2.14987831371267     -1.58322803872073      0.04676509011830
  O   2.84300203416558      0.39045540242426      0.69808901103555
  C   -1.83150638111842     -0.11600430323927     -0.11659521119084
  H   -2.59335151108194     -0.80328800668557      0.25579722843712
  H   -1.99210154724228      0.85335206221735      0.35912960900005
  H   -1.97666173548436     -0.00384901418293     -1.19170567361450
