14
Coordinates from ORCA-job run
  C   0.75113803421559      0.04535787656029     -0.58129648292904
  C   -0.55049289608496     -0.72864310895421     -0.41136701813016
  Br  1.91198793955823     -0.81438848847584     -1.87732287921753
  H   -0.28250020235997     -1.75838340965658     -0.16540575732001
  H   -1.05110590644593     -0.73410704814785     -1.38316339666540
  C   0.52754431711146      1.42317225034822     -0.99278868296034
  N   0.27466912146039      2.50914623147929     -1.36544453664597
  N   1.47926703331318      0.03769308995676      0.77301290741238
  O   1.71758217532942     -1.06643771670402      1.23687276139430
  O   1.70904871312504      1.12405512173320      1.28871542261551
  C   -1.44422782018508     -0.11770519167840      0.66408176291206
  H   -2.38293872386662     -0.67259106121907      0.71235725425642
  H   -0.97960609937387     -0.17221585047114      1.65069388862188
  H   -1.68136568579692      0.92604730522930      0.44805475665586
