14
Coordinates from ORCA-job run
  C   0.72141433747928      0.04626710222841     -0.61616245804953
  C   -0.55843200836904     -0.74354682755482     -0.37299979513369
  Br  1.83381558724401     -0.81815583109316     -1.95157473252087
  H   -1.10351816197254     -0.77371591727331     -1.32008056855602
  H   -0.26331133332576     -1.76468964422369     -0.12238064958636
  C   0.45847200673473      1.41376573518087     -1.03871063198081
  N   0.17273138380443      2.48973561584972     -1.41679368663267
  N   1.51375885355384      0.07185744060412      0.70161085641196
  O   1.78356344794489     -1.02088001138226      1.17519079420790
  O   1.76068247211416      1.17014759027792      1.18289235230420
  C   -1.41016352494093     -0.12741168710619      0.73325288130375
  H   -0.90088661196899     -0.16390804880568      1.69840960995663
  H   -1.66846005337093      0.91077684366675      0.51459930704326
  H   -2.33966639492715     -0.69124236036868      0.83074672123224
