14
Coordinates from ORCA-job run
  C   0.70086494672795     -0.02314657782718     -0.55195561434363
  C   -0.78866875818396      0.27522485943737     -0.35273753098710
  Br  0.99866045061531     -1.76693585675604     -1.32885804012873
  H   -1.26814080345173      0.15961971230106     -1.32804474700996
  H   -0.85568107478885      1.33078261037012     -0.07204813775449
  C   1.33810153434916      0.97604662517849     -1.39775620996427
  N   1.80909987626738      1.78684738166762     -2.10687087721168
  N   1.35200779266025      0.06412855497004      0.84545395355462
  O   1.65089179929272     -0.96438249035083      1.42577905156376
  O   1.43388943132853      1.21070473573853      1.26966038555815
  C   -1.45636921021219     -0.60079292775957      0.69934938761869
  H   -1.32227880385165     -1.66185718321181      0.48601344503450
  H   -2.52723242816277     -0.39012767470326      0.71491297216026
  H   -1.06614475259013     -0.39611176905454      1.69810196190989
