18

C	-0.155542	0.061692	-1.529176
C	0.0	0.0	0.0
Br	-2.047266	0.486806	-2.115399
H	1.09927	0.0	0.0
C	0.821193	1.063831	-2.134168
H	0.869037	0.973363	-3.221205
H	1.784576	0.826472	-1.648648
H	0.523251	2.081208	-1.875156
C	0.085335	-1.266149	-2.094511
N	0.289956	-2.327659	-2.55857
N	-0.528296	-1.194636	0.632332
H	-1.461796	-1.404427	0.288931
H	0.075669	-1.976736	0.411204
C	-0.506896	1.23975	0.70988
H	-0.13116	2.15708	0.251669
H	-0.142228	1.199265	1.737826
H	-1.602034	1.278823	0.728712
F	2.685548	0.0	0.0
