18

C	-0.155178	0.045537	-1.529957
C	0.0	0.0	0.0
Br	-2.04563	0.472022	-2.120302
H	1.099235	0.0	0.0
C	0.82476	1.036885	-2.146151
H	0.870873	0.935445	-3.232407
H	1.787934	0.802154	-1.659458
H	0.530881	2.057788	-1.896997
C	0.079402	-1.289562	-2.080143
N	0.273719	-2.362495	-2.520743
N	-0.528984	-1.186692	0.646522
H	-1.461363	-1.400364	0.303689
H	0.074904	-1.971841	0.435096
C	-0.505467	1.248319	0.695529
H	-0.130069	2.160239	0.226181
H	-1.600642	1.28806	0.715602
H	-0.139331	1.219904	1.723568
F	2.685487	0.0	0.0
