18

C	-0.219859	0.042348	-1.511657
C	0.0	0.0	0.0
Br	-2.102842	0.510977	-2.045682
H	1.10525	0.0	0.0
C	0.762109	1.021701	-2.151564
H	0.776842	0.918855	-3.237767
H	1.735983	0.785699	-1.69406
H	0.481995	2.046097	-1.89901
C	-0.011887	-1.294114	-2.070845
N	0.17175	-2.371427	-2.505423
N	-0.592924	-1.210851	0.58316
H	0.078732	-1.962334	0.448832
H	-0.643776	-1.07066	1.587311
C	-0.511601	1.229217	0.72045
H	-0.074393	1.251456	1.723865
H	-1.603415	1.21213	0.804716
H	-0.209926	2.149356	0.218074
F	2.702824	0.0	0.0
