15
Coordinates from ORCA-job run
  C   0.98056724195691      0.51407855993873     -0.18063802980133
  C   -0.43136061682570     -0.03968063151741     -0.36225861220911
  Br  1.13177880451360      1.74819049089219      1.27409835082061
  H   -0.40517888594407     -0.64460684465577     -1.27343424370551
  H   1.30887723194364      1.01642144014492     -1.08809282770432
  N   1.89132628755749     -0.68764557226459     -0.01865763240560
  O   2.02563543137202     -1.32879699756526     -1.05823525505820
  O   2.36513343858053     -0.95669373734407      1.07401491880998
  N   -1.30723320365092      1.13646704791074     -0.72432406726951
  O   -2.29253469252764      1.36396684051283     -0.03208129285197
  O   -0.95268642620419      1.77595410732047     -1.71137981003986
  C   -0.97464701110762     -0.82132586095767      0.80946557958970
  H   -1.00605906933996     -0.21495528722795      1.71290793416542
  H   -0.34585659627512     -1.69581253905221      0.98883195453059
  H   -1.98476193404896     -1.16556101613495      0.58978303312912
