15
Coordinates from ORCA-job run
  C   0.99711570916559     -0.37337250702898      0.03803480540448
  C   -0.40261774566399      0.05270390589968     -0.35087599529188
  Br  1.74686230102649     -1.54834251940430     -1.29677793630716
  H   -0.38475800599384      0.56264380640045     -1.31330438040199
  H   1.04223152157470     -0.87671009351759      1.00016123267236
  N   1.90875614812771      0.82332762141813      0.15394176008272
  O   2.82994981826785      0.72271484661612      0.95323121286992
  O   1.66153159961807      1.78135648033532     -0.57100676661583
  N   -0.86467886623559      1.09114303150086      0.63761971192311
  O   -1.72432700022427      1.87025456237536      0.24649962729470
  O   -0.38687260182018      1.04182702538499      1.77025719893217
  C   -1.41495813920632     -1.08102396072266     -0.32092901450682
  H   -2.40671338681681     -0.68116088849025     -0.53608826337311
  H   -1.42899400750007     -1.55547443808600      0.66299586625814
  H   -1.17252734431936     -1.82988687268115     -1.07375905894082
