15
Coordinates from ORCA-job run
  C   1.04912713234656      0.09618792080315     -0.56782846364187
  C   -0.47676035429093      0.05117906891634     -0.54776432029281
  Br  1.69942388261178      1.66500018397924     -1.46369809130781
  H   -0.80412919958237      0.12970243704888     -1.58567737692833
  H   1.41498501032431     -0.77319354304355     -1.11295093656661
  N   1.65495113279170     -0.04331608691109      0.81847400779907
  O   2.10274709597092      0.93414045449932      1.39216818871026
  O   1.61947519491875     -1.19739928858077      1.24034922039330
  N   -1.02052202680261      1.28091459158550      0.11801019523866
  O   -0.74146318909565      1.42241342458737      1.30602293641238
  O   -1.71708387674365      2.02831949424485     -0.56222746079485
  C   -1.07867060333608     -1.17173438575180      0.12357816268173
  H   -0.84415016666208     -1.19535462045486      1.18549636940191
  H   -2.16297581749021     -1.14411536220872     -0.00426536796405
  H   -0.69595421496041     -2.08274428871387     -0.33868706314098
