15
Coordinates from ORCA-job run
  C   1.00082861411718      0.43895015159844     -0.25083324147361
  C   -0.44483023313348     -0.04432363192383     -0.34463976436814
  Br  1.27012911647924      1.77508845481884      1.09247569438418
  H   -0.48377023084064     -0.72201657929679     -1.20259511698835
  H   1.32646772612076      0.84656356693169     -1.20552475518967
  N   1.84848545114158     -0.79695332607300     -0.01749526235792
  O   1.90891098873053     -1.52811866294335     -1.00316066601269
  O   2.34737056460828     -1.00241102635104      1.07781682428057
  N   -1.26536251142176      1.14767820481804     -0.77881513434563
  O   -0.90790105591757      1.68321098085190     -1.82489665873371
  O   -2.21405391543205      1.48733296932791     -0.08143425365133
  C   -0.99206935461505     -0.69318259456881      0.90370447949045
  H   -0.40598380393341     -1.58342485674069      1.14101581337278
  H   -0.96268393436800     -0.01172728488286      1.75199133323125
  H   -2.02553742153561     -0.99766636556646      0.74139070836183
