15
Coordinates from ORCA-job run
  C   1.04611539657086      0.07606373820646     -0.57631651905993
  C   -0.47998289860001      0.04097575016587     -0.54648180624599
  Br  1.70110705700278      1.61824315381914     -1.51398796794849
  H   -0.81293437822289      0.09672756994724     -1.58406834307922
  H   1.40345736320670     -0.80881361759632     -1.10179405819165
  N   1.65909476336042     -0.03307848108677      0.80965423615764
  O   1.62057560506214     -1.17617884838822      1.26022523721092
  O   2.11337903079200      0.95622613808575      1.35758516807444
  N   -1.01251254441543      1.28983803174483      0.09285161907285
  O   -0.72769941164763      1.45692031769604      1.27615501850218
  O   -1.70628148034140      2.02629653648860     -0.60203149425526
  C   -1.08430462037318     -1.16213641971960      0.15777558213150
  H   -0.70729871817914     -2.08617135425319     -0.28275227672626
  H   -2.16904868222603     -1.13322878664296      0.03439089132133
  H   -0.84466648198919     -1.15968372846686      1.21879471303596
