15
Coordinates from ORCA-job run
  C   1.01358109577349      0.44897377653453     -0.16768832022326
  C   -0.43812335098136      0.01352791008117     -0.35553627639603
  Br  1.27785996441088      1.57805576583763      1.35471649879149
  H   -0.46985207185392     -0.53763081392945     -1.30009876265838
  H   1.36656587130350      0.97928497068765     -1.04960052430518
  N   1.83425234358607     -0.82449788869403     -0.09425412866441
  O   1.90741401978300     -1.40878161078732     -1.17271643195157
  O   2.30042138023235     -1.19430162105267      0.97198364308883
  N   -1.22764401610457      1.27060910552647     -0.63493294257690
  O   -0.83778423444338      1.93938686844661     -1.58872436345148
  O   -2.18549792800541      1.52893714837327      0.08456438094064
  C   -1.02388316510198     -0.79168953570505      0.77921762793394
  H   -0.45629452611117     -1.71613403498280      0.90361352646710
  H   -1.00437921769326     -0.23438876335777      1.71401372259817
  H   -2.05763616479425     -1.05235127697824      0.55444235040705
