15
Coordinates from ORCA-job run
  C   1.03310065125754      0.11469294689456     -0.59319907223831
  C   -0.49054977808071      0.03800707724656     -0.53689627170180
  Br  1.62900652727869      1.69114907447645     -1.51327439517501
  H   -0.84411694237815      0.10372963725751     -1.56703861062518
  H   1.40458753539236     -0.75029397448715     -1.14147958976341
  N   1.67418305906822     -0.00323005929128      0.77955301985301
  O   1.67429036270764     -1.15520566177512      1.20859594616017
  O   2.11298799376147      0.98760943597936      1.33713261345678
  N   -1.04403623635950      1.26011536184198      0.13530017759293
  O   -0.74281253603435      1.41219153067257      1.31661503565287
  O   -1.76895547025661      1.99105743246092     -0.53314630631216
  C   -1.05031000016497     -1.19345833674217      0.15503814223079
  H   -0.65930458731247     -2.09884292835529     -0.31130017957056
  H   -0.79039345876042     -1.20593624889417      1.21119272292846
  H   -2.13767712011874     -1.18958528728473      0.05290676751141
