15
Coordinates from ORCA-job run
  C   1.02900085263480     -0.21317164980879      0.17375332131081
  C   -0.38166884897641     -0.10240804430239     -0.36458279367124
  Br  2.00073966352367     -1.60598389524872     -0.74239875822545
  H   -0.36025324633259      0.11257705635977     -1.43225573614386
  H   1.06711984082749     -0.41464342637296      1.24105067472694
  N   1.78376773203779      1.07738873811062     -0.02973438499809
  O   2.65717494697413      1.32449713160718      0.79100303314075
  O   1.47206507549748      1.75533132783192     -1.00327643752117
  N   -1.02719055865956      1.10311085127305      0.26679616103613
  O   -1.93512098273529      1.62817991473551     -0.36472857669083
  O   -0.63307699783979      1.43039656202189      1.38537395798580
  C   -1.25322763208002     -1.30423765914640     -0.03800980479096
  H   -1.27847565219629     -1.47643764443271      1.04045892682578
  H   -0.87359126863407     -2.19743487168147     -0.53240162728825
  H   -2.26826292404137     -1.11716439094650     -0.39104795569636
