17

C	-0.674095	-0.091149	-1.372693
C	0.0	0.0	0.0
Br	-0.053129	1.392698	-2.626218
H	1.089059	0.0	0.0
N	-0.254154	-1.306036	-1.986773
H	-0.235455	-2.005201	-1.251441
H	-0.895893	-1.574899	-2.724128
N	-2.106363	0.006429	-1.215683
H	-2.545814	-0.047478	-2.129664
H	-2.362785	0.901282	-0.815938
N	-0.352035	-1.17521	0.742867
H	0.37998	-1.32739	1.428796
H	-1.2488	-1.062293	1.195809
N	-0.445593	1.256809	0.697096
O	0.083706	2.314055	0.356208
O	-1.303738	1.165703	1.589912
H	2.675303	0.0	0.0
