17

C	-0.380183	-0.053146	-1.480561
C	0.0	0.0	0.0
Br	0.035607	1.791769	-2.270615
H	1.106039	0.0	0.0
N	0.469975	-1.045301	-2.011653
H	1.440635	-0.865763	-1.727178
H	0.373688	-1.093731	-3.017694
N	-1.744506	-0.320043	-1.86042
H	-2.000409	-1.170563	-1.36399
H	-2.313233	0.426953	-1.477745
N	-0.487055	-1.226382	0.65338
H	-0.113207	-1.973819	0.072046
H	0.040825	-1.285764	1.52353
N	-0.593725	1.111447	0.771893
O	-0.026123	1.397565	1.826741
O	-1.639717	1.638011	0.380057
H	2.76603	0.0	0.0
