18

C	0.0	0.0	0.0
C	-0.449548	0.041261	-1.478162
F	1.401841	0.0	0.0
H	-1.541793	0.081839	-1.413007
N	-0.473991	1.191081	0.628575
H	-0.274557	1.075439	1.617237
H	-1.50048	1.091149	0.514878
N	-0.465121	-1.17226	0.684665
H	-1.492354	-1.059077	0.605733
H	-0.172416	-2.01065	0.194291
C	0.080099	-1.112101	-2.306271
H	-0.389823	-2.041081	-1.985392
H	-0.162033	-0.967753	-3.361798
H	1.160991	-1.192268	-2.20839
N	0.001824	1.317266	-2.109617
O	1.170445	1.391268	-2.494823
O	-0.821504	2.22115	-2.230289
F	-2.821296	0.0	0.0
