18

C	0.0	0.0	0.0
C	-0.201729	-0.262234	-1.548242
F	1.430831	0.0	0.0
H	0.013623	0.68934	-2.033018
N	-0.536164	1.281556	0.299228
H	-1.556761	1.107027	0.174645
H	-0.400519	1.406139	1.29968
N	-0.460857	-1.006687	0.893019
H	-0.178203	-1.916271	0.544481
H	-1.486122	-0.915328	0.819833
C	-1.486155	-0.881507	-2.058788
H	-2.339228	-0.341189	-1.641002
H	-1.466819	-0.894152	-3.154059
H	-1.565598	-1.906827	-1.693161
N	0.905215	-1.163092	-2.016836
O	1.682082	-0.736383	-2.870462
O	0.950421	-2.302872	-1.552628
F	-2.924488	0.0	0.0
