17

C	-0.277945	-0.135659	-1.523244
C	0.0	0.0	0.0
Br	-2.107809	-0.761604	-1.935903
H	1.093765	0.0	0.0
N	-0.218224	1.259532	-2.245946
O	-1.085458	2.08189	-1.983692
O	0.708006	1.407417	-3.03583
N	0.657154	-1.04308	-2.016805
H	0.6616	-1.078874	-3.025982
H	1.592944	-0.826187	-1.658265
N	-0.432317	-1.086211	0.809279
H	-1.362007	-1.400055	0.567244
H	0.233469	-1.841122	0.72107
N	-0.553856	1.276018	0.542134
O	-1.692109	1.231653	1.00433
O	0.157817	2.273722	0.47481
Cl	3.268188	0.0	0.0
