17

C	-0.321212	0.045233	-1.496017
C	0.0	0.0	0.0
Br	-0.390527	-1.867843	-2.220014
H	1.093632	0.0	0.0
N	-1.749421	0.490101	-1.789107
O	-1.953074	1.068201	-2.847606
O	-2.596479	0.193956	-0.95252
N	0.587842	0.849067	-2.143862
H	0.500627	0.866077	-3.147581
H	1.539298	0.696747	-1.812013
N	-0.500233	-1.082995	0.750071
H	0.022303	-1.163715	1.610155
H	-1.489845	-0.990505	0.931961
N	-0.37616	1.358239	0.626693
O	-0.214002	1.415397	1.843307
O	-0.792238	2.278519	-0.072858
Cl	3.245715	0.0	0.0
