15

C	-0.229974	0.094347	-1.496244
C	0.0	0.0	0.0
Cl	-1.979727	0.428883	-1.923858
H	1.105388	0.0	0.0
N	0.580612	1.187136	-1.954363
H	1.517614	1.038896	-1.549932
H	0.63878	1.181585	-2.963316
C	0.080301	-1.185808	-2.153314
N	0.356789	-2.157096	-2.755716
C	-0.558215	-1.203041	0.593622
N	-0.959661	-2.168101	1.132505
N	-0.46733	1.205262	0.699069
H	0.242187	1.390553	1.407574
H	-0.376778	1.965625	0.029849
H	2.652882	0.0	0.0
