15

C	-0.20461	0.113294	-1.503281
C	0.0	0.0	0.0
Cl	-1.935514	0.53966	-1.958676
H	1.105351	0.0	0.0
N	0.669867	1.160023	-1.945467
H	1.590624	0.976946	-1.503412
H	0.765449	1.147528	-2.953153
C	0.04402	-1.180517	-2.164024
N	0.263974	-2.149366	-2.791467
C	-0.583762	-1.201569	0.56881
N	-1.015532	-2.17398	1.069372
N	-0.445326	1.205128	0.713106
H	0.321734	1.434072	1.348158
H	-0.460077	1.956029	0.029046
H	2.647221	0.0	0.0
