15

C	-0.337874	0.107965	-1.486187
C	0.0	0.0	0.0
Cl	-2.131854	0.387834	-1.70098
H	1.098871	0.0	0.0
N	0.371175	1.202381	-2.098845
H	0.164356	1.999795	-1.499313
H	1.362978	0.99385	-1.933085
C	-0.027781	-1.142891	-2.188679
N	0.201407	-2.139271	-2.766938
C	-0.537864	-1.187481	0.642826
N	-0.958938	-2.129326	1.209602
N	-0.326593	1.250699	0.668938
H	0.435065	1.456844	1.308885
H	-1.19614	1.191102	1.181597
H	2.634116	0.0	0.0
