15

C	-0.532325	-0.112794	-1.427112
C	0.0	0.0	0.0
Cl	-0.213372	-1.755183	-2.076337
H	1.105152	0.0	0.0
N	-1.956502	0.128469	-1.447342
H	-2.081759	1.017745	-0.97025
H	-2.27529	0.226788	-2.406132
C	0.189216	0.837607	-2.302871
N	0.597118	1.632131	-3.067855
C	-0.515778	-1.056965	0.848232
N	-0.8845	-1.867982	1.616977
N	-0.350046	1.341071	0.500292
H	-0.898969	1.275905	1.348057
H	0.538954	1.780936	0.738457
H	2.608906	0.0	0.0
