15

C	-0.536457	-0.247476	-1.409666
C	0.0	0.0	0.0
Cl	-0.119339	-1.909534	-1.938855
H	1.106209	0.0	0.0
N	-1.971492	-0.096179	-1.427731
H	-2.306179	-0.072948	-2.384869
H	-2.151827	0.803475	-0.989609
C	0.11948	0.681659	-2.355542
N	0.484408	1.443998	-3.173365
C	-0.535463	-0.971133	0.932963
N	-0.949774	-1.714096	1.745349
N	-0.371836	1.382486	0.370972
H	0.515708	1.884907	0.416258
H	-0.759002	1.393337	1.306936
H	2.62305	0.0	0.0
