15

C	-0.579774	-0.260456	-1.400094
C	0.0	0.0	0.0
Cl	-0.113554	-1.908643	-1.924995
H	1.106371	0.0	0.0
N	-2.026291	-0.147318	-1.501307
H	-2.427329	-0.866163	-0.904252
H	-2.247683	0.755712	-1.085642
C	0.001185	0.703186	-2.348471
N	0.382772	1.478377	-3.143609
C	-0.547322	-0.961664	0.935054
N	-1.028971	-1.717892	1.697625
N	-0.373507	1.382618	0.359496
H	0.513722	1.888916	0.396551
H	-0.758633	1.409367	1.296298
H	2.618989	0.0	0.0
