15

C	-0.459448	0.121829	-1.456191
C	0.0	0.0	0.0
Cl	0.169202	-1.328541	-2.392079
H	1.101444	0.0	0.0
N	-1.883144	0.244315	-1.54573
H	-2.178076	0.309133	-2.513662
H	-2.310993	-0.573703	-1.124602
C	0.140629	1.307104	-2.086805
N	0.512626	2.271415	-2.644853
C	-0.579804	-1.203341	0.579074
N	-1.071335	-2.166186	1.04355
N	-0.338964	1.173614	0.784513
H	-1.141929	1.662262	0.410368
H	0.479523	1.77595	0.787215
H	2.606322	0.0	0.0
