15

C	-0.282425	-0.141761	-1.510912
C	0.0	0.0	0.0
Cl	0.104019	1.484342	-2.301423
H	1.104664	0.0	0.0
N	0.546579	-1.193523	-1.959381
H	0.552648	-1.270431	-2.968156
H	1.495555	-1.027821	-1.598848
C	-1.693932	-0.377911	-1.835118
N	-2.822263	-0.591579	-2.085442
C	-0.4529	-1.203884	0.682599
N	-0.865527	-2.101919	1.321077
N	-0.514056	1.210622	0.604695
H	-1.179453	1.005558	1.33387
H	0.271112	1.708636	1.006459
H	2.692242	0.0	0.0
