15

C	-0.563534	-0.157108	-1.420256
C	0.0	0.0	0.0
Cl	-0.128184	-1.78238	-2.043604
H	1.104496	0.0	0.0
N	-2.006524	-0.004593	-1.537849
H	-2.217479	0.89246	-1.104422
H	-2.434043	-0.731832	-0.970066
C	0.055454	0.851393	-2.294207
N	0.475688	1.668967	-3.024512
C	-0.534265	-1.033607	0.863336
N	-0.993306	-1.836775	1.591811
N	-0.360531	1.350197	0.457075
H	-0.926025	1.318229	1.295891
H	0.523839	1.805153	0.688957
H	2.612194	0.0	0.0
