15

C	-0.563375	0.007846	-1.417558
C	0.0	0.0	0.0
Cl	0.184692	-1.413117	-2.327427
H	1.102918	0.0	0.0
N	-1.991548	-0.052803	-1.42264
H	-2.345312	-0.048987	-2.37273
H	-2.28795	-0.90872	-0.965868
C	-0.146029	1.21895	-2.133984
N	0.096641	2.163957	-2.787832
C	-0.491871	-1.178849	0.704505
N	-0.912454	-2.103263	1.301641
N	-0.328709	1.256925	0.648869
H	0.469757	1.514609	1.223101
H	-1.16796	1.207487	1.208957
H	2.614113	0.0	0.0
