15

C	-0.512238	0.037867	-1.416942
C	0.0	0.0	0.0
Cl	-2.484788	0.044954	-1.334978
H	1.103464	0.0	0.0
N	-0.041226	1.167463	-2.0679
H	-0.483444	1.34497	-2.957318
H	-0.080041	1.953421	-1.428092
C	-0.253747	-1.188499	-2.167019
N	-0.04131	-2.160695	-2.792062
C	-0.467809	-1.165053	0.731072
N	-0.797185	-2.086209	1.385558
N	-0.272452	1.276243	0.647973
H	-1.104891	1.241137	1.222031
H	0.541901	1.490223	1.220604
H	2.545549	0.0	0.0
