15

C	-0.294469	0.049209	-1.500224
C	0.0	0.0	0.0
Cl	-2.071474	0.367016	-1.789287
H	1.106688	0.0	0.0
N	0.467266	1.093355	-2.13873
H	1.446405	0.864112	-1.921827
H	0.267685	1.923645	-1.582926
C	0.003968	-1.241863	-2.131435
N	0.233507	-2.274307	-2.642092
C	-0.55973	-1.156484	0.677129
N	-1.016755	-2.063586	1.272621
N	-0.331608	1.279374	0.607186
H	0.403545	1.502549	1.271194
H	-1.22409	1.250991	1.081967
H	2.632195	0.0	0.0
