14

C	0.0	0.0	0.0
C	-0.55299	-0.013866	-1.408264
F	1.401003	0.0	0.0
H	-1.60928	0.265931	-1.270018
H	-0.003748	0.753063	-1.968183
N	-0.414459	1.205753	0.664371
H	-0.503405	1.077013	1.661886
H	0.281329	1.914976	0.470087
C	-0.401709	-1.195156	0.76984
N	-0.540297	-2.165933	1.414993
N	-0.370485	-1.327745	-2.03598
H	-1.177144	-1.879166	-1.75242
H	-0.456511	-1.21191	-3.038877
H	-3.296741	0.0	0.0
