14

C	0.0	0.0	0.0
C	-0.419004	0.046675	-1.458653
F	1.416991	0.0	0.0
H	-1.512646	-0.056392	-1.424363
H	-0.171287	1.061199	-1.816951
N	-0.550705	1.033048	0.806673
H	-1.578129	0.80098	0.774299
H	-0.453532	1.90486	0.292075
C	-0.340348	-1.317019	0.596758
N	-0.455572	-2.372982	1.095052
N	0.196484	-1.029572	-2.224903
H	-0.30228	-1.161481	-3.095864
H	1.159745	-0.804096	-2.429777
H	-3.015049	0.0	0.0
