14

C	0.0	0.0	0.0
C	-0.488606	-0.039087	-1.452125
F	1.380389	0.0	0.0
H	-1.464334	-0.534714	-1.420518
H	0.231108	-0.617332	-2.040341
N	-0.514884	1.072733	0.782559
H	-1.537738	0.879316	0.791384
H	-0.391151	1.903365	0.207531
C	-0.349581	-1.29822	0.647416
N	-0.456149	-2.369053	1.116266
N	-0.606277	1.328962	-1.969717
H	-1.578212	1.595132	-1.828451
H	-0.434664	1.321534	-2.967294
H	-3.044186	0.0	0.0
