13

C	-0.402826	0.059385	-1.435239
C	0.0	0.0	0.0
Cl	-2.190185	0.043999	-1.71619
H	1.095377	0.0	0.0
H	-0.018842	0.951345	-1.919685
H	-0.389529	-0.914624	0.458324
N	0.150131	-1.104037	-2.205793
O	-0.038688	-2.227129	-1.750198
O	0.745434	-0.846535	-3.249868
N	-0.418569	1.244188	0.651755
H	-1.214476	1.094767	1.256397
H	0.364441	1.543076	1.219118
F	2.62842	0.0	0.0
