13

C	-0.304219	0.057866	-1.467539
C	0.0	0.0	0.0
Cl	-2.073867	0.082946	-1.881333
H	1.094973	0.0	0.0
H	0.131628	0.932972	-1.942514
H	-0.405197	-0.922767	0.420469
N	0.272602	-1.120582	-2.196046
O	0.957406	-0.881069	-3.189685
O	0.011962	-2.23637	-1.757082
N	-0.46476	1.168304	0.731555
H	-1.387457	1.464178	0.432398
H	0.19316	1.923137	0.577737
F	2.617396	0.0	0.0
