13

C	-0.356514	-0.177307	-1.464007
C	0.0	0.0	0.0
Cl	0.142635	1.187719	-2.470615
H	1.09298	0.0	0.0
H	0.104569	-1.07908	-1.860914
H	-0.376999	-0.895743	0.511476
N	-1.840822	-0.384083	-1.621161
O	-2.584947	0.594651	-1.611088
O	-2.220401	-1.556445	-1.622898
N	-0.482174	1.215475	0.632866
H	-1.352105	1.543544	0.230846
H	0.223327	1.925445	0.490482
F	2.635586	0.0	0.0
