13

C	-0.586902	-0.063258	-1.395521
C	0.0	0.0	0.0
Cl	0.146978	-1.334296	-2.373438
H	1.096582	0.0	0.0
H	-1.659682	-0.238004	-1.38425
H	-0.394545	0.914467	0.45609
N	-0.431961	1.27946	-2.07283
O	-1.258743	2.122007	-1.709112
O	0.473592	1.472463	-2.870561
N	-0.480271	-1.196464	0.727093
H	-0.756036	-0.915608	1.660753
H	0.343904	-1.776003	0.85151
F	2.658368	0.0	0.0
