13

C	-0.470349	0.02812	-1.430218
C	0.0	0.0	0.0
Cl	-2.201287	0.476344	-1.623785
H	1.091572	0.0	0.0
H	0.112939	0.73806	-2.012657
H	-0.320398	0.954942	0.443949
N	-0.242474	-1.310834	-2.086346
O	0.897999	-1.476837	-2.505785
O	-1.146264	-2.133886	-2.122596
N	-0.477557	-1.179748	0.702124
H	0.263347	-1.476145	1.325336
H	-1.315895	-1.000725	1.240767
F	2.637092	0.0	0.0
