13

C	-0.272996	0.066716	-1.468357
C	0.0	0.0	0.0
Cl	-2.031431	0.163746	-1.926833
H	1.094956	0.0	0.0
H	0.209134	0.921578	-1.932915
H	-0.423572	-0.9122	0.421479
N	0.268362	-1.133848	-2.190374
O	0.901537	-0.921139	-3.220483
O	0.024355	-2.237675	-1.717034
N	-0.434389	1.188049	0.723805
H	-1.313057	1.550306	0.375598
H	0.284012	1.89225	0.619337
F	2.613995	0.0	0.0
