13

C	-0.301987	0.073335	-1.483842
C	0.0	0.0	0.0
Cl	0.048986	1.670791	-2.14979
H	1.093068	0.0	0.0
H	0.27832	-0.664822	-2.030963
H	-0.45794	0.854842	0.50453
N	-1.744997	-0.259057	-1.762203
O	-2.610189	0.579631	-1.528739
O	-1.96448	-1.428319	-2.095156
N	-0.3801	-1.267461	0.613851
H	-1.209882	-1.688188	0.216201
H	0.39601	-1.90326	0.491779
F	2.633382	0.0	0.0
