13

C	-0.315249	-0.010311	-1.469888
C	0.0	0.0	0.0
Cl	-2.080911	-0.086186	-1.868782
H	1.093366	0.0	0.0
H	0.079979	0.873166	-1.96346
H	-0.35966	0.96409	0.378642
N	0.318688	-1.163841	-2.19482
O	0.050118	-2.296874	-1.808005
O	1.060907	-0.889954	-3.134764
N	-0.504332	-1.093679	0.809059
H	0.144521	-1.863295	0.715592
H	-1.406313	-1.415315	0.477918
F	2.619751	0.0	0.0
