14

C	-0.332768	-0.092263	-1.470403
C	0.0	0.0	0.0
F	-1.659407	-0.475159	-1.709695
H	1.096691	0.0	0.0
H	0.311816	-0.866021	-1.901313
C	-0.105444	1.168181	-2.193086
N	0.034737	2.182281	-2.766606
C	-0.399223	-1.278682	0.734557
H	-1.476913	-1.453537	0.723062
H	0.112965	-2.12445	0.266801
H	-0.051283	-1.218966	1.767884
C	-0.554152	1.181582	0.630903
N	-1.012898	2.123096	1.166883
H	2.667992	0.0	0.0
