14

C	-0.48573	-0.036406	-1.439646
C	0.0	0.0	0.0
F	-0.130127	1.118145	-2.113817
H	1.095596	0.0	0.0
H	-1.582125	-0.10049	-1.483944
C	0.043794	-1.201749	-2.176543
N	0.355769	-2.143595	-2.804225
C	-0.416127	-1.261164	0.756858
H	-1.499288	-1.426597	0.754298
H	0.087358	-2.125319	0.316644
H	-0.074382	-1.180369	1.790295
C	-0.519865	1.195925	0.63886
N	-0.932927	2.14754	1.193441
H	2.693171	0.0	0.0
