14

C	-0.49724	-0.054151	-1.437212
C	0.0	0.0	0.0
F	-0.113458	1.074371	-2.139209
H	1.095604	0.0	0.0
H	-1.594176	-0.086146	-1.471463
C	0.002224	-1.24627	-2.152877
N	0.389008	-2.177395	-2.753978
C	-0.417913	-1.248049	0.777487
H	-1.500594	-1.414793	0.773698
H	0.088262	-2.11797	0.353229
H	-0.08087	-1.150435	1.810902
C	-0.515748	1.208225	0.622055
N	-0.94319	2.177997	1.132374
H	2.698419	0.0	0.0
