14

C	-0.498267	-0.030116	-1.437095
C	0.0	0.0	0.0
F	-0.11536	1.109177	-2.120903
H	1.095604	0.0	0.0
H	-1.593952	-0.063964	-1.473035
C	0.009726	-1.210701	-2.16593
N	0.398399	-2.131037	-2.783157
C	-0.416716	-1.260125	0.75725
H	0.092049	-2.122883	0.319542
H	-1.49898	-1.429185	0.749873
H	-0.080756	-1.177745	1.791847
C	-0.521992	1.19861	0.636188
N	-0.953312	2.158167	1.162825
H	2.699649	0.0	0.0
