14

C	-0.336896	-0.086797	-1.470087
C	0.0	0.0	0.0
F	-1.653784	-0.503601	-1.708261
H	1.09671	0.0	0.0
H	0.326036	-0.840071	-1.910254
C	-0.146599	1.185425	-2.182144
N	-0.031449	2.20727	-2.747635
C	-0.391244	-1.284691	0.728731
H	-1.46852	-1.461344	0.726338
H	-0.032761	-1.231295	1.758859
H	0.117792	-2.126124	0.250196
C	-0.554319	1.175675	0.641515
N	-1.011714	2.112911	1.186203
H	2.665432	0.0	0.0
