14

C	-0.33272	-0.116971	-1.468523
C	0.0	0.0	0.0
F	-1.650862	-0.532077	-1.702468
H	1.096784	0.0	0.0
H	0.329154	-0.881329	-1.890034
C	-0.132826	1.139324	-2.207075
N	-0.009786	2.149968	-2.791606
C	-0.39295	-1.268917	0.755732
H	0.121484	-2.119555	0.300339
H	-1.469787	-1.448461	0.748267
H	-0.04457	-1.191769	1.787514
C	-0.554298	1.189546	0.615826
N	-1.012177	2.138506	1.139788
H	2.665566	0.0	0.0
