14

C	-0.339243	-0.085926	-1.46946
C	0.0	0.0	0.0
F	-1.673624	-0.447305	-1.702496
H	1.096731	0.0	0.0
H	0.290104	-0.87054	-1.90431
C	-0.094851	1.171152	-2.191763
N	0.061056	2.18254	-2.766266
C	-0.404506	-1.277359	0.73368
H	0.102286	-2.125706	0.264871
H	-0.054727	-1.219994	1.766506
H	-1.483362	-1.446023	0.72427
C	-0.54817	1.183649	0.633628
N	-1.002056	2.127055	1.170428
H	2.670972	0.0	0.0
