14

C	-0.401455	-0.007032	-1.468924
C	0.0	0.0	0.0
F	0.006972	-1.191658	-2.061177
H	1.096106	0.0	0.0
H	0.104937	0.813879	-1.987077
C	-1.861747	0.097	-1.666591
N	-3.02568	0.158125	-1.812625
C	-0.483372	-1.23328	0.753981
H	-0.077738	-1.207516	1.767537
H	-1.574317	-1.301754	0.806085
H	-0.085378	-2.121134	0.260964
C	-0.469674	1.235082	0.604508
N	-0.840442	2.237541	1.096063
H	2.708672	0.0	0.0
