14

C	-0.498065	-0.043661	-1.434761
C	0.0	0.0	0.0
F	-0.109054	1.087698	-2.130995
H	1.095463	0.0	0.0
H	-1.595945	-0.070098	-1.469442
C	-0.002953	-1.23159	-2.157615
N	0.382376	-2.153836	-2.772774
C	-0.414229	-1.255332	0.769858
H	-1.495808	-1.425116	0.764291
H	-0.073832	-1.163303	1.80215
H	0.091828	-2.121502	0.335417
C	-0.518248	1.20225	0.631615
N	-0.950154	2.164007	1.154345
H	2.700357	0.0	0.0
