15
Coordinates from ORCA-job run
  C   -0.62623520084671      0.28678894454929      0.05228279796715
  C   0.28760275381896     -0.22052730504357      1.15085036168086
  F   -1.78981172178957      0.65496446975184      0.69082587281806
  H   0.52964539975773      0.59532393760755      1.83179844982324
  H   -0.20004193306584     -1.03213221643066      1.68778475647964
  C   -0.93549986114631     -0.68705158611532     -1.04569091949199
  H   -0.04416287406351     -0.92191386902109     -1.62426647026600
  H   -1.67925600769484     -0.25563812147897     -1.71334039934401
  H   -1.33954068516679     -1.59775432882650     -0.59937688768699
  N   -0.07707169413491      1.60202515742542     -0.50282609085759
  O   0.29340036530463      2.41493612385605      0.33658141484051
  O   -0.10637032677151      1.76777695004293     -1.71562533570939
  N   1.57040091939226     -0.74725011570565      0.61218118479638
  O   2.04814848982465     -1.73080401456206      1.16729122128249
  O   2.06779237658175     -0.13074402604927     -0.32846995633235
