15
Coordinates from ORCA-job run
  C   -0.45760612220658      0.17730912315860      0.00415595474493
  C   0.65890688745150     -0.75410314055612      0.42023772525089
  F   -1.07823473990145      0.65771033265575      1.11456351730042
  H   0.24842595276281     -1.66342108246216      0.85594087317423
  H   1.29996756136483     -0.98682904214217     -0.42934051893603
  C   -1.46751876084733     -0.48365706447609     -0.90293186647235
  H   -0.98849486947427     -0.86044991714088     -1.80614419512465
  H   -1.94935169073711     -1.30404510590578     -0.36919363445531
  H   -2.22827598002744      0.24970926682200     -1.17642556452537
  N   0.11599427652485      1.36905453676982     -0.75613340705347
  O   -0.25709143409977      2.48341742616195     -0.43266127925803
  O   0.86004396906995      1.07243350408853     -1.68486301236458
  N   1.52523219521040     -0.13574152621573      1.46873189309369
  O   1.88645333413855     -0.86472410001238      2.38605203303035
  O   1.83154942077104      1.04133678925468      1.30801148159527
