15
Coordinates from ORCA-job run
  C   -0.40343776587478      0.35799048083310      0.00004368920508
  C   0.99947615408268      0.10119380571141      0.52899915367698
  F   -1.22795099747139      0.60010097695967      1.05281767044206
  H   1.69597594665838     -0.07047636595268     -0.28755605475836
  H   1.31093414776476      0.93172451215973      1.16161163406835
  C   -1.00580615991390     -0.69107958460753     -0.89744670584227
  H   -0.35808767456732     -0.88496430260891     -1.75100204681092
  H   -1.14764592294358     -1.61423147430454     -0.33758804271037
  H   -1.97637945788724     -0.33245256546137     -1.24547524678403
  N   -0.29952383938778      1.65641780528435     -0.80057838637343
  O   -1.03817440134726      2.57873392014760     -0.49163954257200
  O   0.52182752728542      1.63734581512424     -1.71294770798843
  N   0.98545617366875     -1.11830489499978      1.38482274903423
  O   0.93571925663005     -0.95316729358187      2.59993873935234
  O   1.00861701330319     -2.19883083470343      0.79700009806078
