16

C	-0.329362	0.10421	-1.495739
C	0.0	0.0	0.0
F	-1.645701	0.543683	-1.677732
H	1.097554	0.0	0.0
N	0.550662	1.064076	-2.074085
H	1.502164	0.927736	-1.727073
H	0.544999	1.003782	-3.084535
C	-0.288621	-1.21965	-2.169977
N	-0.235835	-2.237724	-2.754338
C	-0.536675	-1.210301	0.605453
N	-0.998234	-2.150087	1.138375
C	-0.467943	1.247489	0.753827
H	-0.084153	2.133127	0.248247
H	-1.556894	1.299803	0.799194
H	-0.063159	1.220592	1.767036
Br	3.435051	0.0	0.0
