16

C	-0.298797	-0.022568	-1.506846
C	0.0	0.0	0.0
F	-0.041826	1.28258	-1.993501
H	1.097928	0.0	0.0
N	0.506191	-1.000256	-2.116105
H	0.44492	-0.96183	-3.124366
H	1.473226	-0.897396	-1.806038
C	-1.733263	-0.247253	-1.80774
N	-2.877379	-0.390618	-2.032299
C	-0.47513	-1.23766	0.609516
N	-0.874136	-2.200374	1.152015
C	-0.548757	1.225331	0.720117
H	-0.119811	2.124427	0.280603
H	-1.639973	1.272174	0.656781
H	-0.25959	1.182526	1.771607
Br	3.456096	0.0	0.0
