16

C	-0.486996	0.031987	-1.45172
C	0.0	0.0	0.0
F	0.11634	-1.0302	-2.131896
H	1.094947	0.0	0.0
N	-1.909317	-0.043455	-1.533241
H	-2.200297	-0.06287	-2.503358
H	-2.22345	-0.893083	-1.076139
C	-0.058313	1.272243	-2.133908
N	0.205007	2.258469	-2.712512
C	-0.489626	-1.237433	0.601882
N	-0.953184	-2.207574	1.076317
C	-0.468807	1.218029	0.798997
H	-0.08659	1.141158	1.818116
H	-1.556862	1.296245	0.818097
H	-0.047011	2.122054	0.355829
Br	3.451302	0.0	0.0
