16

C	-0.309327	-0.010983	-1.512018
C	0.0	0.0	0.0
F	-0.027769	1.263028	-1.980161
H	1.098183	0.0	0.0
N	0.487515	-0.933512	-2.261461
H	1.451731	-0.853297	-1.930768
H	0.171486	-1.882415	-2.102158
C	-1.749388	-0.254432	-1.773828
N	-2.892812	-0.448412	-1.957571
C	-0.448398	-1.270728	0.560689
N	-0.838987	-2.28793	1.001259
C	-0.564217	1.193416	0.759478
H	-1.656479	1.225	0.70367
H	-0.153047	2.110017	0.338534
H	-0.267127	1.133493	1.808023
Br	3.445909	0.0	0.0
