17

C	-0.255161	-0.142553	-1.500512
C	0.0	0.0	0.0
Cl	-1.895656	-0.780586	-1.890004
H	1.097639	0.0	0.0
N	-0.163136	1.271413	-2.118174
O	0.943901	1.594371	-2.529582
O	-1.161672	1.983405	-2.08752
N	0.727281	-0.942324	-2.152881
H	1.631263	-0.721709	-1.701028
H	0.518669	-1.917494	-1.981399
C	-0.353613	-1.261906	0.783456
H	0.09725	-1.184453	1.77593
H	-1.430576	-1.410939	0.880399
H	0.091492	-2.13129	0.294765
C	-0.56812	1.170846	0.62981
N	-1.004418	2.095729	1.212166
H	2.652786	0.0	0.0
