17

C	-0.548567	0.019636	-1.41879
C	0.0	0.0	0.0
Cl	-0.098533	1.50886	-2.266123
H	1.092966	0.0	0.0
N	0.173751	-1.151361	-2.176401
O	-0.43079	-2.228269	-2.136633
O	1.266351	-0.961643	-2.680235
N	-1.960049	-0.130675	-1.482792
H	-2.273276	-0.09427	-2.446303
H	-2.207116	-1.034046	-1.09956
C	-0.371314	-1.256504	0.793863
H	0.161893	-1.198683	1.746289
H	-1.442683	-1.345792	0.997096
H	-0.014609	-2.150146	0.280555
C	-0.464334	1.181937	0.70388
N	-0.800375	2.114491	1.336818
H	2.666729	0.0	0.0
