14
Coordinates from ORCA-job run
  C   0.67244307887068     -0.32931206779306     -0.49162174695172
  C   -0.82029137836743     -0.35408176374502     -0.15796965089445
  Cl  1.01097358463052      0.62128470560039     -1.93545474638563
  H   -0.95211059049919     -1.08608579715991      0.64353252713127
  H   -1.33246287474198     -0.73480822271167     -1.04540045465451
  N   1.38221386956249      0.29377943844265      0.73300393949445
  O   1.38661606028310     -0.43747548641961      1.71525854197834
  O   1.79034089049669      1.43869947450064      0.65617821925020
  C   1.20669804769105     -1.67594496930207     -0.66030705630141
  N   1.59511933127561     -2.77332226832347     -0.82132933603163
  C   -1.37065733478654      1.00399852816687      0.25822740475511
  H   -0.95636448119888      1.32658559802455      1.21524310390674
  H   -2.45343734986715      0.93377411296827      0.37518595871429
  H   -1.15908085334895      1.77190871775143     -0.48654670401105
