14
Coordinates from ORCA-job run
  C   0.72000849674486     -0.30477016864739     -0.43777919087779
  C   -0.80041303037453     -0.32925482200328     -0.27005834896484
  Cl  1.22170864703403      0.73909515112495     -1.76464613167612
  H   -1.21601007719881     -0.63991154077825     -1.23214158136650
  H   -1.02474380190807     -1.11244033255562      0.45925243896994
  N   1.29628436352673      0.21968979549838      0.89810459208727
  O   1.18576288987660     -0.57809899548488      1.82057048448385
  O   1.72020131644629      1.36038428887454      0.94793892958260
  C   1.25819230471548     -1.64477494639452     -0.64318440368998
  N   1.65011220257975     -2.73522862207825     -0.83885696821794
  C   -1.38217056537561      1.00538280111625      0.17832035385286
  H   -2.47165689973561      0.94223825631858      0.17584134108782
  H   -1.08808425290708      1.81884060592461     -0.48576392572642
  H   -1.06919159342403      1.25684852908487      1.19340241045524
