14
Coordinates from ORCA-job run
  C   0.70874347027633     -0.31627505987063     -0.44833186126975
  C   -0.80763609089787     -0.32930678358709     -0.24531992104044
  Cl  1.18537260549939      0.70056567546182     -1.80476381496534
  H   -1.01885032876415     -1.09758130488801      0.50350687707608
  H   -1.24702743209273     -0.65560605491312     -1.19151333987082
  N   1.31793254145858      0.22829722925759      0.86442095985162
  O   1.74857649915688      1.36739530447113      0.88433006619733
  O   1.22434482099261     -0.55229358159062      1.80326689576942
  C   1.23431010309438     -1.66312655905868     -0.64167077431325
  N   1.61554066314726     -2.75907979907430     -0.82730451722384
  C   -1.37263470405273      1.01639620756578      0.19117732160178
  H   -1.09329765714502      1.81524735225298     -0.49659462056461
  H   -2.46203324026080      0.95735266140580      0.21837927448446
  H   -1.03234125041211      1.28701471256734      1.19241745426736
