14
Coordinates from ORCA-job run
  C   0.70323519350851     -0.22848909201844     -0.28400302275173
  C   -0.41092637900126      0.64709751624655      0.28142589611132
  Cl  0.92518655502497      0.04144092938099     -2.01979610721378
  H   -0.15132053851511      1.67999128074089      0.03667449440553
  H   -0.37180429401599      0.53752521849364      1.37134481012102
  N   2.00171646234448      0.18850300344988      0.43453598730342
  O   2.46362946656587     -0.60851343599695      1.24085028892726
  O   2.40953762916759      1.31073198101830      0.18267386630444
  C   0.46886493054487     -1.64624716547524     -0.04101947901193
  N   0.19522536696120     -2.77508781207820      0.13833773111567
  C   -1.79212542703970      0.27713120575767     -0.24125418189731
  H   -1.84678095177907      0.37728156445077     -1.32577368763381
  H   -2.53673077942322      0.94438115534968      0.19642945205229
  H   -2.05870723434312     -0.74674634931955      0.02757395216761
