14
Coordinates from ORCA-job run
  C   0.77125552607794     -0.28781064211550     -0.35764391460693
  C   -0.73822782696494     -0.09178667236451     -0.51459386449757
  Cl  1.68908224126210      0.98751000254649     -1.15342891766848
  H   -0.93551103705464     -0.03570018419523     -1.58824349393073
  H   -1.21522380323946     -0.99937968665941     -0.13443614005689
  N   1.05482188824532     -0.27729893167673      1.16161953083398
  O   0.65513002053544     -1.28071830750013      1.73857047158770
  O   1.55098563025310      0.71789019488836      1.65888332223530
  C   1.19587971548022     -1.58583403797594     -0.86989004400130
  N   1.49977584244462     -2.62649221699867     -1.32316622286398
  C   -1.27006378188306      1.13842963436415      0.20939680978663
  H   -2.32659095970545      1.26798543688307     -0.03129328710192
  H   -0.74044511285332      2.04388881196338     -0.08847599650908
  H   -1.18986834259787      1.03131659884069      1.29270174679328
