14
Coordinates from ORCA-job run
  C   0.70376772607060     -0.22892307965472     -0.28498140937751
  C   -0.41263042496034      0.64830889335347      0.27390726768615
  Cl  0.91430375091254      0.01643097000040     -2.02534903805881
  H   -0.36743255301889      0.55396297314776      1.36496384993679
  H   -0.16025231573259      1.67923488211451      0.01328513114451
  N   2.00204428664153      0.20692691802615      0.42303744151652
  O   2.45152367768156     -0.56307380967390      1.26208809083545
  O   2.41890571441642      1.31669838129766      0.13428441162151
  C   0.47978137818886     -1.64438242988770     -0.01966376716601
  N   0.21365117373663     -2.77265579671113      0.17380208809282
  C   -1.79435254470416      0.26374918861693     -0.23664316679352
  H   -1.85535974248090      0.34987602559646     -1.32199972300445
  H   -2.05339187303238     -0.75819155444762      0.04655791931251
  H   -2.54055825371887      0.93203843822172      0.19671090425405
