14
Coordinates from ORCA-job run
  C   0.78553348399777     -0.28607509108124     -0.49030281650841
  C   -0.51468608410789      0.47476200543106     -0.71441907554878
  Cl  1.89475904461517     -0.05920895006907     -1.85108333590198
  H   -0.97759646012896      0.05854597503545     -1.61312324051244
  H   -0.24095137049955      1.51079057177043     -0.92730317630392
  N   1.44577600150157      0.30698110599437      0.76830987972258
  O   1.53789642131528     -0.42524981768080      1.74508206894193
  O   1.75691722506418      1.48498982734849      0.69240846532967
  C   0.56442837614035     -1.71082784722991     -0.27552105354114
  N   0.32005091289437     -2.85458878999169     -0.16057699894153
  C   -1.45610422803017      0.38534347116528      0.48169592705685
  H   -1.68736393768399     -0.65043062784745      0.73858185832151
  H   -1.03546967281896      0.87465166761420      1.36237011132964
  H   -2.39418971225917      0.88931649954089      0.24288138655604
