14
Coordinates from ORCA-job run
  C   0.70585158589412     -0.25728000767746     -0.25305767866189
  C   -0.40889160753130      0.67073618929105      0.22002638801347
  Cl  0.95710550548818     -0.13369220404803     -2.00097585056788
  H   -0.13584633738670      1.67782142746146     -0.10495159863911
  H   -0.38826432125590      0.65058872669532      1.31573083874694
  N   1.99602902930433      0.20901774888968      0.45201473845262
  O   2.43255948665836      1.29265629128173      0.09988655018481
  O   2.41832819373039     -0.50886878822663      1.34925840477022
  C   0.45608583176126     -1.64831951023083      0.10285375750984
  N   0.16873052770609     -2.75665214051476      0.36844254534035
  C   -1.78495320651270      0.27047169975063     -0.29405656897711
  H   -2.06194853961089     -0.72910364450921      0.04561795917305
  H   -1.82343784432025      0.29075178870477     -1.38344487178858
  H   -2.53134830392499      0.97187242313228      0.08265538644326
