14
Coordinates from ORCA-job run
  C   0.79668690100368     -0.16298023156876     -0.52673875565370
  C   -0.58447352425712      0.46335879832549     -0.66623927925150
  Cl  1.83183903767057      0.27699130210879     -1.89371073485437
  H   -0.43161834416776      1.53556342169051     -0.81026222920226
  H   -1.02580194796820      0.06154015745200     -1.58220076136125
  N   1.42794769503926      0.41124557188973      0.75510726597344
  O   1.63005995543613     -0.37242648279128      1.67367574837608
  O   1.60729483147836      1.61879833842404      0.75777478103206
  C   0.73778415781856     -1.61476169668112     -0.40843451456791
  N   0.62203800393336     -2.78357537205064     -0.36831452430591
  C   -1.47501572452015      0.18844276529011      0.54049516418208
  H   -2.46884152692630      0.60117526988726      0.35890556443619
  H   -1.58479511414545     -0.88173499694634      0.72736570228261
  H   -1.08410440039494      0.65936315497021      1.44457657291446
