14
Coordinates from ORCA-job run
  C   -0.75436190283236     -0.03371623410346      0.15048094611281
  C   0.61977866963284      0.52919209630248     -0.18824019602820
  Br  -1.18347660666428      0.19438192642470      2.03580896233393
  H   0.69922352693964      0.50594032571217     -1.28193374567757
  H   0.62513497900601      1.57652301157899      0.11810908449439
  N   -1.82549987634651      0.75220281028306     -0.62648090609484
  O   -2.71196258746624      0.10326166651215     -1.16515644033067
  O   -1.69344547196806      1.96696528030005     -0.62705308294370
  C   -0.87143178526824     -1.44366946702849     -0.18915498612522
  N   -0.87327613156875     -2.58828289105898     -0.45815647132508
  C   1.76777563428310     -0.24873500183764      0.44169603130466
  H   1.70975212714243     -0.23113023543162      1.53070667679256
  H   2.71567548355804      0.20600842616515      0.14796064289190
  H   1.77711394155236     -1.28894171381855      0.11041348459506
