14
Coordinates from ORCA-job run
  C   -0.78360897899155     -0.07908799248247      0.42404158860330
  C   0.72855180765843     -0.32606511691889      0.42519354049690
  Br  -1.26621791154392      1.49949068681405      1.42723661538490
  H   1.03889226247386     -0.38088275647752      1.47177352860699
  H   0.87875853252040     -1.31528749392879     -0.01791852359534
  N   -1.19779357020715      0.07391055943000     -1.05570182116583
  O   -1.41986061246298      1.18782608582878     -1.49626576207181
  O   -1.16898507061123     -0.98129916185390     -1.67774057984863
  C   -1.50921390648059     -1.21758754896978      0.96959186647379
  N   -2.05386376346469     -2.14680101863001      1.44079715656840
  C   1.52627736383291      0.72606141881405     -0.33394126573273
  H   1.32505804263550      1.73162102884476      0.03689411658667
  H   2.59203984019296      0.52512789586250     -0.21074606659413
  H   1.30796596444807      0.70097341366723     -1.40321439371248
