14
Coordinates from ORCA-job run
  C   -0.83891388889014      0.12762269286978      0.42559573852188
  C   0.59437795578667      0.63964188201021      0.49118588516145
  Br  -2.03408646575150      1.26001763481219      1.45383407644488
  H   0.57758099678620      1.68372508105206      0.17155595277249
  H   0.89739172966181      0.61444496841597      1.54115013963044
  N   -1.29216971992197      0.18809275476132     -1.04276441977245
  O   -1.64039255741526     -0.86402391462670     -1.56298874976032
  O   -1.21550525429165      1.28556880927159     -1.57273221723915
  C   -0.96311499918513     -1.24114984377350      0.90389722027221
  N   -0.99693825043722     -2.33135618884338      1.34294281642670
  C   1.53930295858023     -0.18882783057271     -0.37414499203724
  H   2.55792994331886      0.18575312412280     -0.25816643392400
  H   1.28158606605065     -0.11662071906756     -1.43266548649582
  H   1.53295148570844     -1.24188845043207     -0.08569953000105
