14
Coordinates from ORCA-job run
  C   -0.75370211213748      0.00977581588080      0.47722337177679
  C   0.70462874556104     -0.44458525800828      0.35966944167008
  Br  -0.93887175977530      1.59292911241264      1.56871966907344
  H   1.07474046080009     -0.58779860091764      1.37806093591307
  H   0.68349077309738     -1.42443272769803     -0.12703209365698
  N   -1.24007462074820      0.28548982181774     -0.96241463078302
  O   -1.38884148421680     -0.73492141366364     -1.62424379822730
  O   -1.34676545821077      1.43794934681722     -1.34218954777438
  C   -1.59915184971631     -1.03745357641498      1.03283870048465
  N   -2.25802798577819     -1.88227331563624      1.51694474916815
  C   1.58868840115047      0.51985358786862     -0.42035183281423
  H   1.55300907914520      1.52748123923692     -0.00469802527499
  H   1.29839938129953      0.56797615256038     -1.47163440158697
  H   2.62247842952935      0.17200981574448     -0.37989253796831
