14
Coordinates from ORCA-job run
  C   -0.79049533205204      0.27207257483914      0.45120688660980
  C   0.70229766917056      0.57507514176774      0.42222729868813
  Br  -1.75813987001034      1.62743961582557      1.44962123165520
  H   1.05201113938635      0.56557604677557      1.45792301490484
  H   0.81723806001826      1.59090204604562      0.03802151660785
  N   -1.30317054192112      0.30603818065832     -0.99765876930353
  O   -1.11522277417381      1.35196012693346     -1.59918620994627
  O   -1.80052758868015     -0.72296761275072     -1.43704182015385
  C   -1.08233455921190     -1.03165091562693      1.02812055847096
  N   -1.24788712982824     -2.07394266592263      1.54621806877101
  C   1.47492694033008     -0.42884042717355     -0.42845807705877
  H   1.32932687529665     -1.45266978797226     -0.07779406982591
  H   1.18043008525813     -0.37550777424226     -1.47857471838741
  H   2.54154702641755     -0.20348454915707     -0.37462491103206
