15

C	-0.116676	-0.00091	0.065255
C	-0.623179	0.058689	-1.375743
Br	1.824652	-0.487144	0.026157
H	0.220239	0.162318	-2.07369
H	-0.616181	-0.826451	0.553511
C	-0.295619	1.283294	0.841948
H	0.134429	1.179104	1.840343
H	0.169029	2.138783	0.345895
H	-1.37746	1.405495	0.906969
C	-1.547777	1.158306	-1.638067
N	-2.037116	2.163175	-2.004332
N	-1.254709	-1.246699	-1.798489
O	-0.890453	-2.265272	-1.227747
O	-1.975837	-1.204281	-2.787152
F	-2.572837	-0.158829	-0.026209
