13

C	-0.50393	-0.043011	-1.442323
C	0.0	0.0	0.0
Cl	-0.091033	1.439021	-2.35468
H	1.095647	0.0	0.0
H	-0.039359	-0.876804	-1.968096
H	-1.592251	-0.141985	-1.475541
C	-0.463228	-1.238081	0.628405
N	-0.88918	-2.223004	1.107225
C	-0.498703	1.206723	0.79464
H	-0.078694	2.118927	0.371826
H	-1.591599	1.273832	0.781238
H	-0.161355	1.129182	1.829478
Cl	3.379299	0.0	0.0
