13

C	-0.502233	-0.051258	-1.442817
C	0.0	0.0	0.0
Cl	-0.097266	1.431448	-2.355625
H	1.095639	0.0	0.0
H	-1.589548	-0.156933	-1.477492
H	-0.031599	-0.883353	-1.966168
C	-0.463122	-1.2352	0.634301
N	-0.891332	-2.216433	1.118775
C	-0.499659	1.210931	0.787701
H	-1.592503	1.278468	0.772017
H	-0.078565	2.120652	0.360723
H	-0.164513	1.13888	1.82351
Cl	3.379777	0.0	0.0
