13

C	-0.350632	0.013585	-1.476294
C	0.0	0.0	0.0
Cl	-2.120892	0.108541	-1.794073
H	1.097941	0.0	0.0
H	0.012479	-0.888206	-1.966471
H	0.105485	0.887024	-1.94188
C	-0.491542	-1.214093	0.645604
N	-0.910226	-2.175934	1.174463
C	-0.466751	1.247547	0.748173
H	-1.55582	1.322347	0.778207
H	-0.059721	2.132863	0.253218
H	-0.080277	1.228935	1.768424
Cl	3.340826	0.0	0.0
