13

C	-0.350684	0.013472	-1.476277
C	0.0	0.0	0.0
Cl	-2.120965	0.108544	-1.793961
H	1.097942	0.0	0.0
H	0.012327	-0.888391	-1.966399
H	0.105466	0.886843	-1.941963
C	-0.491539	-1.214039	0.645722
N	-0.910559	-2.175663	1.174706
C	-0.466778	1.247579	0.748103
H	-1.555863	1.32214	0.778485
H	-0.060122	2.132917	0.25286
H	-0.079965	1.229224	1.768238
Cl	3.340823	0.0	0.0
