13

C	-0.493497	0.065958	-1.438514
C	0.0	0.0	0.0
Cl	-0.058879	-1.37911	-2.388315
H	1.09507	0.0	0.0
H	-0.026978	0.922575	-1.925737
H	-1.581199	0.160299	-1.479041
C	-0.515018	-1.18579	0.679127
N	-0.971879	-2.101649	1.255532
C	-0.439337	1.264269	0.74905
H	-1.529047	1.364187	0.781391
H	-0.010385	2.141104	0.258219
H	-0.056817	1.237998	1.770409
Cl	3.364464	0.0	0.0
