11
Coordinates from ORCA-job run
  C   -0.80556310793575      0.42599562425763      0.10513546006439
  C   0.51220984332422     -0.28095787457620     -0.18712063358833
  F   -0.57479136154689      1.78434399215261      0.22368478742352
  H   0.29777269672015     -1.31088285671466     -0.49523651254718
  H   -1.21339314113406      0.07575420197129      1.05692282886589
  H   0.95547209211068      0.22834358581544     -1.04793971581012
  C   -1.78626207507880      0.20074234855489     -0.96806212811680
  N   -2.54376827841340     -0.01910169323248     -1.83713577743788
  N   1.36904231849881     -0.20418251854121      0.98558909939022
  H   1.52937756749235     -1.11381468094047      1.39058759501413
  H   2.25990344596270      0.21575987125316      0.77157499674214
