11
Coordinates from ORCA-job run
  C   -0.94824525261765     -0.29834726468395     -0.01948648307354
  C   0.53625654405091     -0.58588396214323     -0.12351463152705
  F   -1.27870992797270     -0.16053997106269      1.32383830148522
  H   0.78513587180461     -0.71947791110343     -1.17997406222120
  H   -1.53687054511365     -1.13143312078440     -0.41500832241521
  H   0.71322652616233     -1.54342506570983      0.38906371265607
  C   -1.32083038274078      0.93697681870080     -0.72455903038814
  N   -1.64730826976262      1.91654633441629     -1.28056028718846
  N   1.27830669337703      0.54424656621202      0.40590097688709
  H   2.26618045930422      0.44345065935262      0.21728274202525
  H   1.15285828350830      0.59788691680582      1.40801708375997
