11
Coordinates from ORCA-job run
  C   -0.85443713997719     -0.18618274213995     -0.10065797609122
  C   0.61505324029789      0.18544121259107     -0.10275278344802
  F   -1.32601715169486     -0.12820074479667      1.20486452423724
  H   0.70312382188169      1.21521479718857      0.27243641484824
  H   -0.97902031078264     -1.21421161589409     -0.44890624986333
  H   0.96923665927836      0.17261063406952     -1.13699690800808
  C   -1.64888278845074      0.72858122794000     -0.93367057641040
  N   -2.27014461329202      1.44816064154910     -1.62111148099134
  N   1.33763083371846     -0.81760060310032      0.66502475220206
  H   2.33489940138017     -0.69056426872225      0.55527175804608
  H   1.11955804764087     -0.71324853868498      1.64749852547877
