11
Coordinates from ORCA-job run
  C   -0.69550139295289      0.40106458535228      0.06934777213648
  C   0.52229323965606     -0.47385116495676     -0.22394792515505
  F   -0.29398010916830      1.72977303342464      0.09194221790295
  H   0.90040944555594     -0.19442552838014     -1.21097652948327
  H   -1.10923187400816      0.17191261639628      1.05640528876645
  H   0.20066292412170     -1.51750132967785     -0.27987372051314
  C   -1.74199506707072      0.23132398931719     -0.94818733521395
  N   -2.55707143763137      0.05159302438922     -1.77299998908018
  N   1.59593319702447     -0.34772960562807      0.74088619201976
  H   1.87406045655332      0.62135736723051      0.82392353194744
  H   1.30542061791995     -0.67251698746730      1.65448049667251
