11
Coordinates from ORCA-job run
  C   -0.92009567315172     -0.28751042445654     -0.35606480563180
  C   0.42378946141109     -0.61555722192442      0.27787144716092
  F   -1.88479093449709     -1.16257642485932      0.11135174317409
  H   0.67668169313584     -1.63588143430954     -0.01915606558314
  H   -0.85094184693868     -0.39020685518568     -1.44101657909321
  H   0.30177645488310     -0.60256190661725      1.36895623270623
  C   -1.31799373947874      1.09078302568562     -0.02756537016078
  N   -1.58790159740365      2.19558123848905      0.26127544421005
  N   1.41404662129719      0.30828051565901     -0.25564281401564
  H   1.40223747261577      1.17919148648492      0.25982813466965
  H   2.34319208812690     -0.08154199896584     -0.18183736743638
