11
Coordinates from ORCA-job run
  C   -0.94376395355959     -0.31570117759607     -0.07496448682322
  C   0.55047659471228     -0.56957126144902     -0.09435282212699
  F   -1.35551290721468     -0.20496232645413      1.24840136696078
  H   0.71762846470804     -1.53230127467796      0.41173468200826
  H   -1.48988612972622     -1.15509565797558     -0.51563682099393
  H   0.86535049694600     -0.67859246278372     -1.13585470177869
  C   -1.29820590872457      0.91979168152191     -0.78870907733423
  N   -1.57279778491016      1.88246918452241     -1.39957340226675
  N   1.23405614407846      0.56579396806607      0.49835724645151
  H   2.23225742237419      0.49737674546367      0.35570158306838
  H   1.05839756131625      0.59179258136242      1.49389643283488
