11
Coordinates from ORCA-job run
  C   -0.94249745405998     -0.35866203034915     -0.19623752038054
  C   0.35513286503481     -0.39047199501096      0.59784363919612
  F   -1.99691477795646     -0.74166510971892      0.61394210762482
  H   0.22712043418495      0.23572651211256      1.49056445441375
  H   -0.87773079557138     -1.05238959211771     -1.03708063398061
  H   0.50182397340446     -1.42084517641304      0.92942665060410
  C   -1.19524908821293      0.99733355756637     -0.70950835072886
  N   -1.34940601213725      2.09413150024611     -1.09691244862812
  N   1.44053878120308     -0.00421570377040     -0.29156371103658
  H   1.51598668656799      1.00366156142760     -0.34412636006767
  H   2.32319538754271     -0.36260352397246      0.04465217298361
