11
Coordinates from ORCA-job run
  C   -0.94402538110600     -0.30102603260144     -0.06649854137630
  C   0.54575923109363     -0.57356180853756     -0.12151375085687
  F   -1.32957994911137     -0.22421517136208      1.26718602839512
  H   0.71021328710408     -1.55221918156011      0.35379096960744
  H   -1.51034920270067     -1.11899068219892     -0.52181226583341
  H   0.83933397734363     -0.65658753288905     -1.17158944627940
  C   -1.29701600390581      0.95944369813853     -0.73646485495414
  N   -1.60875638478440      1.93231577084579     -1.31229849098339
  N   1.25413801173703      0.53679812252178      0.48938558046242
  H   2.24950580012222      0.45608085551053      0.33340250830625
  H   1.09077661420768      0.54096196213254      1.48741226351229
