11
Coordinates from ORCA-job run
  C   -0.98721887010268     -0.33412404173200     -0.10394356293367
  C   0.50015240573547     -0.62617864109975      0.03116183371190
  F   -1.59225599209906     -0.34349296224068      1.13502143869789
  H   0.89240350513175     -0.84337372558728     -0.97400455877258
  H   -1.47309421792506     -1.10064447290839     -0.71657961980196
  H   0.58156796927807     -1.54117821710105      0.62324198555705
  C   -1.19576085974866      0.97948432628833     -0.73558740602195
  N   -1.31183328986184      2.01650304116654     -1.27176654594866
  N   1.16353122217810      0.45922270788931      0.73176687003934
  H   2.00227878295550      0.13304809743706      1.19010016195376
  H   1.42122934445841      1.19873388788791      0.09158940351888
