16
Coordinates from ORCA-job run
  C   0.78897758042503      0.59563413465377     -0.15980539523262
  C   -0.59721031438390     -0.09416892938481     -0.14895708090876
  Br  2.10134453759291     -0.42496683500083     -1.14152067617851
  H   -1.24242251850518      0.62445939202118      0.36823449942413
  N   1.21399923933544      0.75176209988212      1.31325800230115
  O   0.52647313555501      1.55938728718476      1.92856880402065
  O   2.10051577749567      0.04511601555664      1.76090613557878
  C   0.70029495185930      1.92715523826938     -0.73860462280949
  N   0.62191311711311      3.00799129483585     -1.19398234787831
  C   -0.58815367815982     -1.40729285676922      0.62638631649323
  H   0.10117916912380     -2.12400443539558      0.17469758275533
  H   -1.59361833148285     -1.83286105058642      0.59676116827429
  H   -0.31300512618087     -1.27612191105110      1.67521200918819
  N   -1.04277953375987     -0.17560434177830     -1.52603566292628
  H   -2.05192072900455     -0.14252342703766     -1.57579961454235
  H   -0.72558727702321     -1.03396167539979     -1.95931911755944
