16
Coordinates from ORCA-job run
  C   0.43623835183898      0.88213269381193     -0.10978144154121
  C   -0.21444171732983     -0.47464297086093     -0.43488656204942
  Br  0.05063748932996      2.22632300842269     -1.46225457662926
  H   0.07082590603289     -0.70333398051707     -1.46652178813355
  N   1.95941133415741      0.69856927435047     -0.12252662110943
  O   2.39772429986020     -0.03296566288597     -0.99970327993139
  O   2.60316343925545      1.31502300804158      0.71273395723256
  C   0.03279632367430      1.37369343021211      1.19652179340717
  N   -0.38260807760858      1.74555734084304      2.23147578617640
  C   -1.72792361414972     -0.41506893991844     -0.30737926804835
  H   -2.14771272247893     -1.37435050612465     -0.61830278588832
  H   -2.01636389410091     -0.22988418164178      0.73063861342592
  H   -2.16137629069498      0.36515157535285     -0.93290062719924
  N   0.36575582818774     -1.40525524607534      0.51887222114979
  H   -0.33474895331699     -1.97714673171720      0.96807719936910
  H   1.06862229734302     -1.99380211129329      0.09493737976924
