14

C	0.0	0.0	0.0
C	-0.603757	0.175948	-1.390727
Cl	1.794014	0.0	0.0
H	-1.716933	0.153853	-1.107474
H	-0.344018	-0.664635	-2.037845
C	-0.475691	1.097428	0.944567
H	-0.091895	0.915859	1.950205
H	-1.570055	1.03255	0.905486
H	-0.105799	2.061097	0.589301
C	-0.401583	-1.319008	0.510904
N	-0.569526	-2.39195	0.955872
C	-0.201106	1.421449	-2.016635
N	0.119	2.426068	-2.536248
F	-2.82627	0.0	0.0
