14

C	0.0	0.0	0.0
C	-0.632604	-0.044562	-1.382888
Cl	1.798377	0.0	0.0
H	-1.7481	-0.04676	-1.070906
H	-0.38281	0.870523	-1.928388
C	-0.487371	1.244071	0.737423
H	-1.581743	1.155073	0.722961
H	-0.145937	2.134489	0.20185
H	-0.088995	1.264145	1.753825
C	-0.388516	-1.20166	0.754016
N	-0.588209	-2.172005	1.384642
C	-0.275807	-1.211043	-2.166466
N	-0.025435	-2.156422	-2.8192
F	-2.863563	0.0	0.0
