14

C	0.0	0.0	0.0
C	-0.354767	0.154365	-1.491354
Cl	1.796351	0.0	0.0
H	0.028539	-0.728481	-2.015856
H	0.231911	1.002674	-1.86107
C	-0.414982	1.192679	0.85691
H	-1.507104	1.187061	0.838729
H	0.008458	2.102914	0.420475
H	-0.020221	1.072062	1.868652
C	-0.452326	-1.277861	0.548266
N	-0.606398	-2.35711	0.987063
C	-1.749156	0.375836	-1.919339
N	-2.528016	0.658113	-2.761373
F	-2.566757	0.0	0.0
