14

C	0.0	0.0	0.0
C	-0.580759	-0.101842	-1.406742
Cl	1.792213	0.0	0.0
H	-1.693105	-0.108816	-1.154925
H	-0.311464	0.801021	-1.964117
C	-0.48044	1.290282	0.654678
H	-0.08328	2.140195	0.091618
H	-0.12072	1.349852	1.683931
H	-1.575589	1.226917	0.60311
C	-0.397968	-1.169921	0.793854
N	-0.572229	-2.148988	1.418602
C	-0.136941	-1.271839	-2.143565
N	0.218386	-2.202057	-2.767715
F	-2.813728	0.0	0.0
