14

C	0.0	0.0	0.0
C	-0.606528	0.023671	-1.398176
Cl	1.793191	0.0	0.0
H	-1.718922	-0.01411	-1.12209
H	-0.362308	0.977147	-1.876696
C	-0.492028	1.211582	0.783059
H	-0.115979	1.180214	1.807678
H	-0.127343	2.1214	0.297282
H	-1.58731	1.128693	0.7403
C	-0.392965	-1.240195	0.685677
N	-0.596263	-2.264549	1.222656
C	-0.185993	-1.074864	-2.248673
N	0.131055	-1.953959	-2.961814
F	-2.845227	0.0	0.0
