14

C	0.0	0.0	0.0
C	-0.588094	0.218216	-1.394338
Cl	1.784202	0.0	0.0
H	-0.229723	-0.548654	-2.086762
H	-1.698746	0.112508	-1.146826
C	-0.478476	1.07481	0.970651
H	-0.123104	0.854337	1.979258
H	-1.573087	1.031986	0.903435
H	-0.079277	2.041452	0.654364
C	-0.41462	-1.333357	0.457784
N	-0.617475	-2.427232	0.833633
C	-0.297173	1.538804	-1.924299
N	-0.104756	2.611768	-2.364778
F	-2.816971	0.0	0.0
