12

C	-0.277297	-0.062179	-1.487134
C	0.0	0.0	0.0
Cl	-2.032066	-0.471033	-1.852395
H	1.095318	0.0	0.0
H	-0.172728	0.934299	-1.929021
H	-0.332342	-0.924168	0.478077
N	0.581849	-1.066531	-2.033217
H	0.676717	-0.946538	-3.034385
H	1.505361	-0.943634	-1.595025
C	-0.566991	1.157217	0.657913
N	-1.012348	2.103791	1.19261
H	2.770903	0.0	0.0
