12

C	-0.35801	-0.048766	-1.497381
C	0.0	0.0	0.0
Cl	-0.427978	-1.795556	-1.994963
H	1.092572	0.0	0.0
H	-1.361016	0.328835	-1.704347
H	-0.390041	-0.840446	0.575455
N	0.595497	0.646982	-2.312419
H	0.381303	1.635314	-2.292581
H	1.523274	0.514954	-1.898714
C	-0.475325	1.25549	0.557377
N	-0.861654	2.286806	0.968247
H	2.82336	0.0	0.0
