12

C	-0.497866	0.049224	-1.422665
C	0.0	0.0	0.0
Cl	-2.41437	0.004738	-1.407331
H	1.093132	0.0	0.0
H	-0.317727	1.018282	-1.88403
H	-0.325346	-0.933919	0.471374
N	0.04285	-0.98118	-2.198234
H	-0.359137	-1.038698	-3.121626
H	0.020574	-1.876565	-1.733011
C	-0.482215	1.117642	0.794201
N	-0.837814	2.030427	1.442275
H	2.782639	0.0	0.0
