12

C	-0.320526	0.144307	-1.487299
C	0.0	0.0	0.0
Cl	-0.274938	-1.605766	-2.224069
H	1.094389	0.0	0.0
H	-1.348417	0.429485	-1.718334
H	-0.381453	-0.928276	0.424251
N	0.613687	1.024303	-2.041564
H	0.583229	1.071375	-3.048875
H	1.554116	0.813834	-1.69235
C	-0.512968	1.138968	0.742602
N	-0.942156	2.044436	1.356863
H	2.81862	0.0	0.0
