12

C	-0.522216	-0.067611	-1.430397
C	0.0	0.0	0.0
Cl	-0.145873	1.460437	-2.285344
H	1.094758	0.0	0.0
H	0.044509	-0.845033	-1.946732
H	-0.279931	-0.943272	0.489452
N	-1.9423	-0.328631	-1.604953
H	-2.460221	0.376627	-1.089499
H	-2.143733	-1.225512	-1.173371
C	-0.589502	1.090331	0.755614
N	-1.079605	1.968232	1.365043
H	2.785304	0.0	0.0
