12

C	-0.279268	-0.089152	-1.485464
C	0.0	0.0	0.0
Cl	-2.034039	-0.510237	-1.840667
H	1.095864	0.0	0.0
H	-0.179677	0.899811	-1.944991
H	-0.331504	-0.915454	0.495105
N	0.580828	-1.101362	-2.01683
H	1.506464	-0.968659	-1.587032
H	0.666344	-1.002139	-3.020508
C	-0.567893	1.168969	0.637127
N	-1.019678	2.125033	1.149472
H	2.773418	0.0	0.0
