12

C	-0.48505	0.019513	-1.43428
C	0.0	0.0	0.0
Cl	-0.147928	1.605836	-2.211199
H	1.092741	0.0	0.0
H	0.143133	-0.685533	-1.990595
H	-0.27281	-0.973443	0.430498
N	-1.910045	-0.223537	-1.533115
H	-2.166138	-0.415546	-2.492193
H	-2.145421	-1.027839	-0.966312
C	-0.574562	1.04605	0.827403
N	-1.016897	1.878724	1.52819
H	2.789712	0.0	0.0
