12

C	-0.242317	0.000717	-1.501045
C	0.0	0.0	0.0
Cl	-2.009221	0.049774	-1.915894
H	1.095438	0.0	0.0
H	0.173163	0.929027	-1.896711
H	-0.376843	0.900997	0.489976
N	0.389752	-1.097172	-2.187608
H	0.061736	-1.966168	-1.77559
H	1.381845	-1.014207	-1.944344
C	-0.511483	-1.192812	0.646545
N	-0.91284	-2.176035	1.150521
H	2.772585	0.0	0.0
