11
Coordinates from ORCA-job run
  C   0.74874367251368     -0.42759342387766      0.21415580750682
  C   -0.42422067711986      0.43203778029215     -0.24611043441426
  Cl  0.38959183122757     -1.17566394583179      1.80223654966019
  H   -0.59823330768701      1.21349158742253      0.50626229478162
  H   0.88110744994156     -1.24924224394462     -0.49176134333795
  H   -0.11801875333207      0.92174000033955     -1.17519237107910
  C   1.97831838925355      0.35261878492768      0.30981578690647
  N   2.96749829601955      0.98358212923200      0.35117655600535
  N   -1.56506460921933     -0.42417360018067     -0.52880884513868
  H   -2.00989992227816     -0.70919880400219      0.33440116618913
  H   -2.24982236931948      0.08240173562302     -1.07417516707959
