11
Coordinates from ORCA-job run
  C   0.75997984795024     -0.58699034880169      0.29015217775257
  C   -0.46403680161807     -0.30540019810693     -0.57565557522970
  Cl  0.25189503196816     -1.09772701868793      1.93172302210059
  H   -0.09910553781929     -0.07484256859270     -1.58122247020642
  H   1.32823713473807     -1.42361642183607     -0.12292693477907
  H   -1.04510477425320     -1.23680454319719     -0.63399932871057
  C   1.63335505528215      0.57935815511197      0.38274493358978
  N   2.36814409593071      1.49382925390876      0.41443204029300
  N   -1.18600756891639      0.84361055971688     -0.06509573392057
  H   -1.74990330106214      0.58507428534546      0.73356379759277
  H   -1.79745318220025      1.22450884513944     -0.77371592848238
