11
Coordinates from ORCA-job run
  C   0.72675433481351     -0.33022987225577      0.17542098329413
  C   -0.52117648452845      0.50447884335381     -0.17426757249758
  Cl  0.42442859525495     -1.33261432099170      1.62731571611487
  H   -0.74394389734048      1.15057119200128      0.67818147116539
  H   0.94895608962022     -1.02732626819017     -0.63639340102494
  H   -0.25236901746093      1.15069842524732     -1.01559561463269
  C   1.88581697055621      0.52648725859541      0.40093878682475
  N   2.79011625425825      1.26004903227400      0.55315348452916
  N   -1.70666884214722     -0.24361388068232     -0.51926236297567
  H   -1.55502906683949     -0.82137898491311     -1.33577120878355
  H   -1.99688493618654     -0.83712142443874      0.24627971798615
