11
Coordinates from ORCA-job run
  C   0.72499668038953     -0.59381264006280      0.27123603356968
  C   -0.52235320565944     -0.40486299507367     -0.61440448669051
  Cl  0.24843696586982     -1.08193620576116      1.92618991683230
  H   -1.07153030316622     -1.34985426530445     -0.60674363434839
  H   1.35113806177627     -1.39907691613164     -0.12047715959871
  H   -0.16732342454996     -0.23743186467143     -1.63641218421166
  C   1.50303984190055      0.63953509856330      0.32885968687488
  N   2.08461925921027      1.65964257982418      0.32074497336710
  N   -1.41776686935289      0.66493288336491     -0.25052636663165
  H   -0.95822317164231      1.56498395068618     -0.30452245931099
  H   -1.77503383477560      0.53888037456658      0.68705568014796
