14

C	-0.549708	-0.007121	-1.407465
C	0.0	0.0	0.0
Cl	0.149492	1.31884	-2.370495
H	1.091498	0.0	0.0
H	-0.34263	0.934344	0.460171
N	-0.175557	-1.310398	-2.126527
O	-0.935991	-1.671108	-3.023299
O	0.857632	-1.857219	-1.784473
C	-2.008647	0.100183	-1.45029
N	-3.171929	0.262411	-1.400839
N	-0.524972	-1.194978	0.66454
H	-1.103986	-0.953074	1.456469
H	0.277161	-1.714391	0.999431
F	2.612712	0.0	0.0
