14

C	-0.49187	0.033144	-1.446983
C	0.0	0.0	0.0
Cl	0.25375	1.346567	-2.349697
H	1.090548	0.0	0.0
H	-0.397091	-0.921411	0.439307
N	-0.136613	-1.319318	-2.088471
O	0.737996	-1.379397	-2.934421
O	-0.783405	-2.262901	-1.639219
C	-1.946211	0.161627	-1.54289
N	-3.11507	0.28194	-1.57581
N	-0.461569	1.20928	0.671214
H	0.355375	1.64122	1.084764
H	-1.124572	0.999384	1.404122
F	2.606461	0.0	0.0
