14

C	-0.534428	0.007383	-1.415986
C	0.0	0.0	0.0
Cl	-2.319397	-0.220977	-1.480299
H	1.091256	0.0	0.0
H	-0.340371	-0.941333	0.451216
N	-0.197328	1.364678	-2.057892
O	-1.069821	2.212943	-2.14487
O	0.975218	1.476151	-2.3861
C	0.072636	-1.031403	-2.244467
N	0.554246	-1.88217	-2.894809
N	-0.436303	1.198743	0.696646
H	-1.203321	1.026589	1.32954
H	0.361692	1.534201	1.220257
F	2.584981	0.0	0.0
