15

C	0.0	0.0	0.0
C	-0.586154	-0.026085	-1.375215
Br	2.001206	0.0	0.0
H	-1.874621	-0.191249	-0.881451
H	-0.317036	0.9387	0.475241
N	-0.432809	-1.113753	0.768651
H	0.026887	-1.97083	0.442028
H	-0.306792	-0.981111	1.737262
N	0.094505	-0.964926	-2.231069
O	0.578833	-0.513166	-3.277583
O	0.204699	-2.145166	-1.86369
N	-0.669228	1.279294	-2.038502
O	-1.372317	1.35795	-3.039578
O	-0.052161	2.222012	-1.548494
H	-2.714141	0.0	0.0
