14
Coordinates from ORCA-job run
  C   0.85729065053463      0.63845122704526     -0.27175742484488
  C   -0.58420545260310      0.13507915999686     -0.36888313828255
  H   1.03713385685863      1.19330952503340      0.64780801467515
  H   -0.68381996706257     -0.41360165831680     -1.31073920373033
  H   1.12989437515578      1.23652965850806     -1.14260950177809
  N   1.77132130705980     -0.54077871154165     -0.25513588002406
  O   2.50523217958842     -0.68141295342038      0.71945349704307
  O   1.70046709492392     -1.29725488664333     -1.22094197480103
  C   -1.46820914688806      1.30103342235951     -0.42405796116324
  N   -2.16856637302825      2.24311696535143     -0.44705450234626
  C   -0.95415094768852     -0.78023944454778      0.80160414619718
  H   -0.33052803142085     -1.67590825903027      0.79218761080209
  H   -0.81537291126115     -0.26507391501533      1.75437236157233
  H   -1.99648663416868     -1.09225012977898      0.72575395668059
