14
Coordinates from ORCA-job run
  C   0.94787468471014     -0.21411797222963      0.13350090023247
  C   -0.52468827136227     -0.04690597721457     -0.21968506731159
  H   1.23968081520086     -1.26430930848976      0.05624728988686
  H   -0.66073544483041     -0.35554391217129     -1.25956905903846
  H   1.18307004334307      0.16409041842676      1.12745006661050
  N   1.82839077868114      0.53039303636691     -0.82111555705849
  O   1.52217956062609      0.48435894836698     -2.00960500858344
  O   2.80816730589752      1.09722845162144     -0.34813503111088
  C   -0.89885862567636      1.36726476121921     -0.12555536313329
  N   -1.19152041931921      2.49933785583271     -0.01970290153895
  C   -1.39881852729723     -0.90385614212703      0.70163781731679
  H   -1.13676380916923     -1.95854153169964      0.59178680051945
  H   -2.45266114201603     -0.78386289000433      0.44768548875233
  H   -1.26431694878808     -0.61553573789774      1.74605962445668
