14
Coordinates from ORCA-job run
  C   0.91312620811109     -0.37023583245614     -0.07015208823905
  C   -0.53542525664469      0.09833901553635     -0.15520947231149
  H   1.27499723504554     -0.41573133056001      0.95587534237307
  H   -0.79221478504996      0.20307566152499     -1.21291823185658
  H   1.02253669079830     -1.34302960806030     -0.55474103285429
  N   1.82015811251002      0.56531952734369     -0.80408111183111
  O   2.84201778032918      0.92812380685597     -0.22925342268759
  O   1.47692641173934      0.88229715874338     -1.94034360844339
  C   -0.66826357038534      1.41681786840250      0.47086450186635
  N   -0.77505989974552      2.45956678607362      0.99985119637033
  C   -1.46942061266446     -0.91660076039143      0.51232250603649
  H   -1.38968353533418     -1.88426691048862      0.01195431526012
  H   -2.50518107110831     -0.58085696278277      0.44803611165380
  H   -1.21651370760101     -1.04381841974122      1.56679499466334
