14
Coordinates from ORCA-job run
  C   0.78209454059452     -0.01969805106749     -0.90095816922495
  C   -0.67136040352727      0.10649041014945     -0.43255516374140
  H   1.05035756279114      0.77065589082800     -1.60186497450642
  H   -1.29059709893056     -0.14684101941561     -1.30159162836166
  H   0.95485596047211     -1.00396867032314     -1.33381113738115
  N   1.70032380302642      0.09663729228720      0.26693659068629
  O   2.16954147314494     -0.94678251734820      0.71874466582155
  O   1.87827685971279      1.22567484875183      0.71753933371741
  C   -1.00468803374324      1.48633512798880     -0.06428558609753
  N   -1.31399821782792      2.57942997167007      0.23212596288705
  C   -1.00090588407629     -0.85728678227045      0.71241241518256
  H   -2.06907130536397     -0.82934926849420      0.93109823482475
  H   -0.72349118994926     -1.87704073140460      0.43837096641271
  H   -0.46033806632339     -0.58525650135167      1.61983848978080
