14
Coordinates from ORCA-job run
  C   0.75135295975795     -0.00441275029834     -0.92707550095819
  C   -0.68745849582141      0.09593777970027     -0.40966822113588
  H   0.92525913369098     -0.98344134232036     -1.37109905811748
  H   -1.33083870570609     -0.17088307700494     -1.25684389292039
  H   0.98420365606901      0.79379609068804     -1.63177402262227
  N   1.70563601293540      0.11989270003902      0.21089094152196
  O   1.86967589057816      1.24697538000301      0.67140646227412
  O   2.21568246160247     -0.91685156485456      0.63251351277705
  C   -1.03474818176604      1.46986155290433     -0.03294087877157
  N   -1.35661316751554      2.55893857632317      0.26453280746640
  C   -0.95887675705983     -0.87194892864119      0.74704819024284
  H   -0.67180176563228     -1.88708507670997      0.46549177065296
  H   -2.01911908804815     -0.86345011249600      1.00273704609830
  H   -0.39235395308463     -0.58732922733247      1.63478084349217
