16

C	0.0	0.0	0.0
C	-0.611676	0.19428	-1.368862
F	1.391948	0.0	0.0
H	-0.472217	1.211086	-1.747027
H	-0.296641	-0.997567	0.334141
C	-0.456176	1.066408	0.976432
H	-1.540829	1.034672	1.091501
H	-0.162579	2.05558	0.61169
H	0.016052	0.906229	1.949366
N	-2.050894	-0.078633	-1.158028
H	-2.554673	0.281739	-1.967474
H	-2.047868	-1.103874	-1.266033
N	-0.094368	-0.723875	-2.366573
O	-0.261569	-1.995508	-1.996471
O	-0.24768	-0.338992	-3.614821
H	-3.19785	0.0	0.0
