16

C	0.0	0.0	0.0
C	-0.5586	0.045837	-1.403154
F	1.395795	0.0	0.0
H	-1.664168	0.066139	-1.24304
H	-0.326286	-0.971623	0.380438
C	-0.491284	1.095487	0.909906
H	-0.117483	2.070094	0.593771
H	-1.588378	1.070835	0.872649
H	-0.147514	0.894657	1.928638
N	-0.125866	-1.078112	-2.168834
H	-0.632788	-1.114113	-3.043245
H	0.859893	-0.983223	-2.376621
N	-0.16864	1.36141	-2.062022
O	-0.780389	2.375381	-1.729328
O	0.73954	1.343352	-2.90183
H	-3.212971	0.0	0.0
