16

C	0.0	0.0	0.0
C	-0.551651	0.047488	-1.407313
F	1.395632	0.0	0.0
H	-1.655219	0.061442	-1.261972
H	-0.328387	-0.96977	0.384109
C	-0.496574	1.101731	0.899355
H	-1.59228	1.070017	0.861324
H	-0.130738	2.074272	0.571438
H	-0.150075	0.914708	1.919958
N	-0.102968	-1.068386	-2.173528
H	0.886368	-0.972286	-2.35789
H	-0.59262	-1.100527	-3.056835
N	-0.159834	1.369095	-2.053402
O	0.804973	1.366352	-2.827181
O	-0.814374	2.371684	-1.765645
H	-3.221204	0.0	0.0
