16

C	0.0	0.0	0.0
C	-0.374257	0.114992	-1.473134
F	1.392885	0.0	0.0
H	0.158851	0.979693	-1.8842
H	-0.33298	-0.961451	0.394146
C	-0.527977	1.151518	0.813509
H	-0.228373	2.103516	0.364907
H	-1.619634	1.081888	0.846588
H	-0.12314	1.103689	1.828232
N	-1.736663	0.057374	-1.800284
H	-2.448113	-0.049996	-1.005581
H	-2.016743	0.830964	-2.384643
N	0.364471	-1.04891	-2.184619
O	0.214704	-2.183742	-1.740769
O	1.007065	-0.772216	-3.200564
H	-3.549582	0.0	0.0
