13
Coordinates from ORCA-job run
  C   -0.39522748666998     -0.14078971505307      0.33930334476945
  C   1.01650061844576     -0.67627074463715      0.07967570994383
  Cl  -1.09832025769376     -1.23800156352845      1.63894694775255
  H   1.55029215464735     -0.70675481229298      1.03018083302187
  H   0.97223837959270     -1.69163289519560     -0.32366034491668
  N   -0.31343329913216      1.16757088074913      0.93142988395489
  H   -0.11378838908274      1.84026328545421      0.19807012718290
  H   -1.18612959481513      1.41542295773989      1.38056944007459
  N   -1.15294210981927     -0.16994422138072     -0.86398970925655
  H   -1.21716010846773     -1.10101689188239     -1.25754933360047
  H   -2.08724887038151      0.19131656181226     -0.71578238365007
  C   1.72885621482536      0.19569464446963     -0.85125813867488
  N   2.29736274855111      0.91314251374525     -1.58493637660143
