13
Coordinates from ORCA-job run
  C   -0.45483596585188     -0.08584351195683      0.20711830239866
  C   0.83044908046579     -0.42410955779485     -0.57199705086236
  Cl  -0.45171230733996     -1.21859622007889      1.66768808353104
  H   0.79249576513328      0.12264128602698     -1.51911711268525
  H   0.85470501958608     -1.49462735120384     -0.78462944761007
  N   -0.46870488553743      1.28483998676880      0.54273314805552
  H   0.33283886739652      1.55778790322523      1.09690123550388
  H   -1.32424008253817      1.50744414666372      1.03589942463214
  N   -1.67337191731932     -0.36943437764507     -0.49613140129564
  H   -1.71713821112008      0.19883042881781     -1.33377463785243
  H   -1.75234703455337     -1.35048962481678     -0.72875198662855
  C   2.04118312127768     -0.03894209232554      0.14631921652732
  N   2.99267855040085      0.31049898431925      0.73774222628574
