13
Coordinates from ORCA-job run
  C   -0.42038722985245     -0.03161843386713      0.28209971670095
  C   1.08004228324099      0.17255195966440     -0.00149804320197
  Cl  -0.50993339462637     -1.50441768607648      1.39531483515926
  H   1.18564720559641      1.12022024467168     -0.53832573189129
  H   1.62185245315063      0.24154090515659      0.94374901698625
  N   -1.04317697066122      1.03765975280692      1.00914397256531
  H   -0.61594717640745      1.17324446020962      1.91573468075291
  H   -0.99306659919716      1.88891887108207      0.46202682798686
  N   -1.12410845496207     -0.18474406889899     -0.93154291359336
  H   -0.78499101651379     -0.96301176056249     -1.48233885773866
  H   -2.11207692199017     -0.29746717204541     -0.74202121886567
  C   1.64882900195701     -0.89652811070239     -0.81621292633556
  N   2.06631682026563     -1.75634896143841     -1.49712935852503
