13
Coordinates from ORCA-job run
  C   -0.41331067799866     -0.04091904197056      0.23205139995541
  C   0.98083218356683     -0.64308173331565      0.06615785498484
  Cl  -1.20122082222949     -1.19365211038427      1.57413354695717
  H   1.50010683475597     -0.63507455541983      1.02735171138294
  H   0.89415142117462     -1.68900273033393     -0.23735344710308
  N   -0.34292042116731      1.28103210947727      0.70687234347158
  H   0.11249968977773      1.32705821772526      1.60818401858093
  H   -1.25525467047468      1.71346189288112      0.77777017562781
  N   -1.14566660886285     -0.11709713717355     -0.96604887143766
  H   -1.26330603519744     -1.07452018889481     -1.26835209815166
  H   -2.05664614786287      0.31698993567704     -0.88837189172219
  C   1.76427012599867      0.09530081784738     -0.92322984437481
  N   2.42646512851947      0.66050452388454     -1.70916489817128
