13
Coordinates from ORCA-job run
  C   -0.55741561379847     -0.17644161150883      0.39457837640172
  C   0.91057128206145     -0.63476656571264      0.15837595571460
  Cl  -1.17997718248074     -1.31320377028355      1.65028501998584
  H   0.93431990682371     -1.67477689431520     -0.17810641328702
  H   1.48227310128046     -0.57448655210675      1.08844027631679
  N   -0.67204694996495      1.15827745589988      0.90644751920579
  H   -0.06969662909264      1.29354588523207      1.70805840238336
  H   -0.43578531325570      1.83885112827522      0.19359126580693
  N   -1.39399090398362     -0.29297589463193     -0.76461027313801
  H   -1.14348394901236      0.40049682283672     -1.46009107837624
  H   -1.32092221779197     -1.21539520143369     -1.17405630626456
  C   1.51706525587315      0.22677750741956     -0.85246234640149
  N   1.92908921334169      0.96109769032917     -1.67045039834772
