13
Coordinates from ORCA-job run
  C   -0.41410379031807     -0.19384794927058      0.28625738925970
  C   1.04464570540529     -0.62800168956508      0.11064376599591
  Cl  -1.13314158084891     -1.38625339241889      1.48967664586305
  H   1.05554464800455     -1.67875813216103     -0.18142166627546
  H   1.59013722093971     -0.52617783515368      1.05283296994704
  N   -0.46677166312634      1.14816765038238      0.75393301149581
  H   0.02466274589976      1.27172094345307      1.63090899689859
  H   -1.42401794509005      1.45916240705695      0.86429701120179
  N   -1.12975216588795     -0.39819320012053     -0.94481600268153
  H   -2.12907405339636     -0.41126734643888     -0.78330163222807
  H   -0.90460295435793      0.36298845952484     -1.57743823464530
  C   1.69240408816549      0.17193673862738     -0.92643064483575
  N   2.19606974461081      0.80752334608404     -1.77414160999577
