13
Coordinates from ORCA-job run
  C   -0.32828815563313     -0.12738718456017      0.32210101283981
  C   1.15733102491606     -0.01653789364899     -0.03108376424761
  Cl  -0.61304084430300     -1.70223172811164      1.12560601003823
  H   1.73533163137714     -0.11849913566675      0.88840889698380
  H   1.34926469133531      0.98701669401920     -0.43030406736541
  N   -0.60287011630836      0.89199356165596      1.32156534862709
  H   -1.52294144892251      0.74755425443858      1.72163799372226
  H   -0.59203309442077      1.80371836056665      0.87527037809891
  N   -1.10241931216490     -0.14045992310905     -0.89576286923215
  H   -0.97782916548294      0.73264957421522     -1.39685025276545
  H   -2.08712020398817     -0.26966212166651     -0.69615407707295
  C   1.59429787141378     -1.00465933731260     -1.01212895224615
  N   1.99231712218150     -1.78349512081992     -1.79330565738038
