13
Coordinates from ORCA-job run
  C   -0.47319582718138     -0.10318746192060      0.33835972978075
  C   0.95450122937858     -0.63449205024706      0.10225926003424
  Cl  -1.18952615110022     -1.29780146162783      1.56180003802315
  H   0.90505384198198     -1.68529729548154     -0.19100650336745
  H   1.54006880514717     -0.58188397689365      1.02459733895183
  N   -0.41918762720288      1.22554858465905      0.80433224023348
  H   0.12801124692022      1.32589062129815      1.64825774404989
  H   -1.35455717686052      1.58579683885738      0.94375478423547
  N   -1.35317059152548     -0.12636550276140     -0.79134480982239
  H   -1.47824781006263     -1.06328326626176     -1.15015232535138
  H   -0.98731300507203      0.48273758818915     -1.51476783254014
  C   1.61366819859164      0.13227375537395     -0.95229808498760
  N   2.11489486698554      0.74006362681616     -1.82179157923985
