13
Coordinates from ORCA-job run
  C   -0.48791657827559     -0.13407223759766      0.30464949729818
  C   0.94473324322228     -0.65308736513319      0.07123561068885
  Cl  -1.15082759829259     -1.25371216637372      1.62525081306944
  H   0.92314306064889     -1.67539002157808     -0.31709029113239
  H   1.47919863915400     -0.67901132429751      1.02324200944752
  N   -0.60373553757639      1.19513618557763      0.82514375702067
  H   -0.21652724240458      1.85245529835436      0.15716304108133
  H   -0.14196264409052      1.28919982726204      1.71963752461717
  N   -1.21686593138879     -0.18068532498574     -0.90036025460332
  H   -2.15297778322499      0.17611364145317     -0.75710550319855
  H   -1.24914525335980     -1.10570618045317     -1.30656195322873
  C   1.65565546736388      0.21997897974464     -0.85982409331093
  N   2.21922815822420      0.94978068802723     -1.58538015774926
