13
Coordinates from ORCA-job run
  C   -0.40935662251727     -0.10282617171430      0.33688624040493
  C   0.83317193156668     -0.41426095348769     -0.51505060270383
  Cl  -0.30818515183806     -1.13516813669003      1.81377674968305
  H   0.74178896550867      0.12446812962434     -1.46604320579006
  H   0.84496859200161     -1.48240543247670     -0.74299934136256
  N   -0.37600741479631      1.26695559581458      0.73129793923807
  H   -0.15547762283563      1.87717626111737     -0.04555643472491
  H   -1.26498749290159      1.52776580801901      1.13951068506036
  N   -1.65766090282700     -0.46293732633932     -0.30300302109619
  H   -1.75395281764160      0.04611804251474     -1.17493637292145
  H   -1.71524081733707     -1.45794735778437     -0.48526180123610
  C   2.09469637031673     -0.04082647636249      0.11889997182160
  N   3.12624298330083      0.25388801776488      0.59347919362709
