13
Coordinates from ORCA-job run
  C   -0.37588757199956     -0.05123904891703      0.17943124650690
  C   0.90959472347611     -0.44877902182606     -0.55239805089372
  Cl  -0.45702463061930     -1.05380393382989      1.70953093129538
  H   0.95351888775673      0.13605412259574     -1.47625149591804
  H   0.87507024837928     -1.50721218435598     -0.82519642391526
  N   -0.29447274242426      1.32071840457990      0.60247650037427
  H   -0.52986928059455      1.91734687554994     -0.18267746702992
  H   -0.92476302670023      1.50963981916985      1.37054896712149
  N   -1.48046480379893     -0.29861036399873     -0.69344705274408
  H   -1.53408438958633     -1.27374589943601     -0.96485753560261
  H   -2.35016401489139     -0.04472098461026     -0.23967666361404
  C   2.10906469928714     -0.19472205672370      0.23751965074011
  N   3.10048190171530     -0.01392572819777      0.83699739367953
