13
Coordinates from ORCA-job run
  C   -0.39256779610348     -0.14791924708867      0.33960008036142
  C   1.00503682384963     -0.69681744280641      0.03544812633440
  Cl  -1.09621789376513     -1.28598364044384      1.60295110715906
  H   1.55311333840459     -0.77570886779292      0.97505474212498
  H   0.93602589791924     -1.69373563072698     -0.40850532432523
  N   -0.27793384854411      1.13270134558182      0.98455831183353
  H   -1.13950751029513      1.37748778685473      1.45639583091239
  H   -0.07614231112621      1.83191610071806      0.27712377990596
  N   -1.16866415595109     -0.11289056038737     -0.85186870589505
  H   -2.09345355229007      0.25917979659673     -0.67398300465012
  H   -1.25655883324669     -1.02535206630975     -1.28274847627822
  C   1.71833365904191      0.20010049267829     -0.87109563507222
  N   2.28853618210652      0.93702193312630     -1.58393083241091
