13
Coordinates from ORCA-job run
  C   -0.40106827211367     -0.13237732711181      0.33668106355326
  C   1.04666167528247      0.17252782142027     -0.08528588590764
  Cl  -0.32265334523358     -1.42104965509343      1.59746302300738
  H   1.03137303777260      1.02680856971632     -0.77284105096173
  H   1.61565915646667      0.47259077355546      0.79741110811400
  N   -1.07084922011009      0.98656174232089      0.96652547012445
  H   -1.10658747394191      1.76964551023664      0.32300045277134
  H   -0.60698872846532      1.27251586836796      1.82085748611620
  N   -1.12095145720422     -0.63386193696188     -0.78755992978287
  H   -2.10921661071367     -0.67359354914953     -0.57125190648290
  H   -0.96648846613008     -0.07105830829539     -1.61459780299548
  C   1.72075365038470     -0.94658832376945     -0.73740079537728
  N   2.29035605400611     -1.82112118523605     -1.27300123217873
