13
Coordinates from ORCA-job run
  C   -0.41081347745177     -0.14177842959119      0.12356172277456
  C   0.96261593075582     -0.54062696350340     -0.42583143709606
  Cl  -0.59467286426431     -0.98916419093345      1.74411763089042
  H   1.01439907234891     -0.19843675561837     -1.46353049906552
  H   1.03654338106095     -1.62804107039056     -0.41632349459489
  N   -0.50509581366555      1.27333465583266      0.22718461874588
  H   -1.40716464162503      1.54614088116395      0.59780626177671
  H   0.22290036011041      1.66637534408644      0.81254742953267
  N   -1.42196884539604     -0.70782116413877     -0.73812376055978
  H   -2.28706696532692     -0.84952920255686     -0.23337084683202
  H   -1.58652230202072     -0.05591506459803     -1.49758437774538
  C   2.06071398999676      0.05476688162168      0.32845082681762
  N   2.91813217547749      0.56969507862591      0.94209592535578
