13
Coordinates from ORCA-job run
  C   -0.41174170408268     -0.14738070219110      0.11558832834895
  C   0.95074605358392     -0.51342640537987     -0.48172680340590
  Cl  -0.59116725381135     -1.13050924975378      1.65792490032656
  H   0.99581402446026     -0.08357670752151     -1.48668149391673
  H   1.01197473266297     -1.59847199945008     -0.56639557982961
  N   -0.48604599304260      1.25444475562090      0.34352616976131
  H   0.25172432345567      1.58505453982886      0.95523405830088
  H   -1.38158657828218      1.50511765543802      0.74461996598434
  N   -1.43852010463210     -0.62362314436729     -0.78082500976784
  H   -2.30182311027142     -0.79435097236101     -0.28166078997457
  H   -1.59880892487912      0.09218327730236     -1.48143435400602
  C   2.06412238524319      0.00214088737561      0.30873322240956
  N   2.93531214959544      0.45239806545889      0.95309738576908
