13
Coordinates from ORCA-job run
  C   -0.29951710162443      0.08268097636222      0.32872461198321
  C   1.17977749509991      0.05447618968025     -0.06881519843464
  Cl  -0.51072760354220     -1.16805610037302      1.65861187379453
  H   1.36164340796527      0.91324973762630     -0.72163211656941
  H   1.78304942209267      0.17042213461349      0.83166293484028
  N   -0.57717881098108      1.36164805260360      0.93845832753162
  H   -0.80521521430566      2.01775737667347      0.19923737334555
  H   -1.36231574407046      1.29543574670574      1.57310802123540
  N   -1.11676948708621     -0.17581853631034     -0.80611752057339
  H   -0.90026165237318     -1.06493506968427     -1.24245496436837
  H   -2.09694103994987     -0.16554318818300     -0.55143285507167
  C   1.54514371195311     -1.16894404387369     -0.77591850722852
  N   1.79931261682213     -2.15237327584075     -1.36343198048460
