13
Coordinates from ORCA-job run
  C   -0.42732280912795     -0.01535212708715      0.03627031913563
  C   0.92126148619316     -0.50287074867224     -0.49506242509518
  Cl  -0.69621907465859     -1.01830952765256      1.64763104298908
  H   1.05902230647639     -0.03780394863077     -1.47463636432871
  H   0.90167766439447     -1.58781713874198     -0.61540714442752
  N   -0.39385651229360      1.36661179059655      0.30798829514573
  H   -1.28385441359547      1.70086739293740      0.65638437359835
  H   0.32210593610917      1.59030018778026      0.98783381207980
  N   -1.44204604293281     -0.32590435142368     -0.90112127504491
  H   -1.55892857486185     -1.32769358115374     -0.98141019812203
  H   -2.33137723751826      0.07519291166674     -0.62925101290673
  C   2.02602571080816     -0.12968222849535      0.38104004044063
  N   2.90351156100718      0.21246136887651      1.08074053653585
