13
Coordinates from ORCA-job run
  C   -0.38242448376723     -0.28392642318102      0.39038050355413
  C   1.06065132216624     -0.67631696007161      0.04782698278768
  Cl  -0.98684128076398     -1.47787303026869      1.58394797486148
  H   1.65877150404809     -0.65593794275587      0.95993245493573
  H   1.06385744768730     -1.68372070999805     -0.37087440126234
  N   -0.36286079114719      0.99622218314372      1.06687506458964
  H   -1.29108676988425      1.23001516338479      1.40012120812939
  H   -0.06426746424101      1.71676250295967      0.41667326746172
  N   -1.19677410672473     -0.44311175961834     -0.79592935204181
  H   -0.91385774369857      0.23804504656504     -1.49374409678339
  H   -2.17338782832842     -0.28805179161790     -0.57345523232305
  C   1.60843538631526      0.26608856937054     -0.92527969376889
  N   1.97978480833848      1.06080515208771     -1.70547468014028
