13
Coordinates from ORCA-job run
  C   -0.37540877223672     -0.27102467801048      0.40611959464325
  C   1.07063349783811     -0.65826277293063      0.07027429951070
  Cl  -0.95399180884655     -1.41810888837884      1.65706589778962
  H   1.08493399755472     -1.68373438058397     -0.30161592738455
  H   1.67554524642641     -0.58751129503961      0.97540419189306
  N   -0.36986591277494      1.03861329340415      1.02308835227887
  H   -1.30019991864796      1.27673304080891      1.34726354236598
  H   -0.07977569093277      1.73225467873445      0.34068782621782
  N   -1.19592189051736     -0.49611571171706     -0.76558860351974
  H   -2.17359675178803     -0.35078697064516     -0.54120583155147
  H   -0.93238816446378      0.16128471052113     -1.49323760116328
  C   1.59747954794465      0.24614801484770     -0.94933472028940
  N   1.95155662044424      1.00951095898940     -1.76792102079087
