13
Coordinates from ORCA-job run
  C   -0.46782701996371     -0.05775128253516      0.19283142012538
  C   0.85677365595729     -0.49271454324863     -0.46159108990845
  Cl  -0.55018342058154     -0.98482860704265      1.78933296273027
  H   0.88701254836314     -1.58182393970884     -0.53074670636272
  H   0.87587127499665     -0.07400148356942     -1.47238917638558
  N   -0.49394190500317      1.34574048543823      0.34149535529361
  H   -1.37380554401136      1.62926576307874      0.75413827834929
  H   0.27765646531423      1.69203222940952      0.89743498917869
  N   -1.64718087543327     -0.43564400428700     -0.53250872152816
  H   -1.64285809076196      0.01696003369391     -1.43902122035650
  H   -1.71691550772017     -1.43893578364490     -0.63758544966951
  C   2.02942313280258     -0.01678333555170      0.26572470943430
  N   2.96797528604129      0.39848446796790      0.83488464909938
