13
Coordinates from ORCA-job run
  C   -0.41295674223662      0.03544200293818      0.29207347791240
  C   1.08809185844320      0.09951548100120     -0.04806964253641
  Cl  -0.56019456579185     -1.26257652768371      1.60056911846002
  H   1.66069438665572      0.26303916867825      0.86685303628119
  H   1.23689897166705      0.95455337273876     -0.71453602608196
  N   -0.94614006972355      1.23221407938540      0.87739288570653
  H   -0.86073644107117      1.99613753206204      0.21728043671502
  H   -0.48541853253999      1.46175274447934      1.74754916948905
  N   -1.16063598243015     -0.23590181512910     -0.87334745827108
  H   -2.14766809304509     -0.25731649358790     -0.64988925486532
  H   -0.88583818609896     -1.10149420647956     -1.31990349076196
  C   1.56536532203303     -1.10692519100442     -0.71659991593287
  N   1.90853807413839     -2.07844014739849     -1.27837233611460
