13
Coordinates from ORCA-job run
  C   -0.48099959795749     -0.09247931922624      0.14751649517672
  C   0.87050086371272     -0.45656963381393     -0.49997217756435
  Cl  -0.62205013615827     -1.17969083181914      1.62953779174001
  H   0.93506069473054      0.08910786914340     -1.44627825508136
  H   0.91739918570704     -1.52714091871257     -0.71632500772760
  N   -0.61071949012478      1.24928156582353      0.63070916567789
  H   0.07302710993790      1.45605424723549      1.34753861155072
  H   -0.51214541848151      1.89458481820381     -0.14443645874928
  N   -1.50692415885787     -0.30014624641268     -0.80780409925285
  H   -1.53450840535824     -1.25812487594659     -1.13239157555499
  H   -2.40003306537026     -0.05541402422165     -0.39732358193421
  C   1.99299322988470     -0.07993307409465      0.35033851601041
  N   2.87939918833555      0.26147042384122      1.03889057570888
