13
Coordinates from ORCA-job run
  C   -0.46240101685396     -0.22173867882941      0.22850589979960
  C   0.89994746070140     -0.48445395647863     -0.44334823978976
  Cl  -0.47914997297498     -1.15113971654019      1.76711575625640
  H   1.05161307806451     -1.56009456167123     -0.54829238383578
  H   0.88431518239019     -0.04425268456750     -1.44747455274244
  N   -0.72411160794766      1.15244246654691      0.59077026156042
  H   -0.05060864290252      1.49628587524593      1.26606813553490
  H   -0.68898209043226      1.73763598962116     -0.23705099449004
  N   -1.47279049439898     -0.76969653295684     -0.63307080004836
  H   -2.38101461211891     -0.58091565347345     -0.22308417280278
  H   -1.43252106486820     -0.32054075478184     -1.54192325672508
  C   1.99769195724240      0.11543022992644      0.30610811466967
  N   2.85801182409897      0.63003797795865      0.91567623261325
