13
Coordinates from ORCA-job run
  C   -0.51120489027832     -0.16668666653093      0.37464626112026
  C   0.91824281462196     -0.68739925408301      0.11721154769243
  Cl  -1.07660347627005     -1.20525190036220      1.81448169572033
  H   0.88634537002670     -1.74048171579779     -0.17560732042916
  H   1.49973933945297     -0.61994507819778      1.03807662215385
  N   -0.62334207283192      1.18801494200481      0.83889882580642
  H   -0.21092033387839      1.81757455532952      0.15905141230983
  H   -0.19434924727525      1.31764265901360      1.74552629777783
  N   -1.30411397514577     -0.34522065625954     -0.75522426845442
  H   -2.06630442214425      0.29930225533490     -0.86839966758394
  H   -0.90811046182638     -0.73893636591962     -1.58840869872680
  C   1.55915298799068      0.10708205509469     -0.92903356848194
  N   2.03146836755802      0.77430517037334     -1.77121913890468
