13
Coordinates from ORCA-job run
  C   -0.49571470048563     -0.17749101070192      0.40342365313163
  C   0.93056955537586     -0.71372597524505      0.15798574971663
  Cl  -1.27308252833110     -1.37654924243490      1.50663760180192
  H   1.47344951446709     -0.75277863284651      1.10477563858570
  H   0.87357661544853     -1.72502915552232     -0.25011285117708
  N   -0.40436898737854      1.07658796602117      1.08485576223489
  H   0.21339738126977      1.71030679912546      0.58987190459044
  H   -1.32829767115774      1.48930975147229      1.13906432235542
  N   -1.34028693538813     -0.10705763215137     -0.76528106194569
  H   -0.94314153895232      0.53990257976593     -1.43806974324153
  H   -1.46431025213228     -1.01344734681613     -1.20031478545045
  C   1.62985798144758      0.15405819911803     -0.78674326553825
  N   2.12835156581691      0.89691370021532     -1.54709292506363
