12
Coordinates from ORCA-job run
  C   0.95101362277177      0.18725419120497      0.33586756600688
  C   -0.48981721854483     -0.27163541064657      0.08385771997364
  Br  1.36620620701203      1.75471481560482     -0.73152142081814
  H   -0.70279673368054     -1.12275182428186      0.74087221509286
  H   1.03383686947454      0.48895730732605      1.38164526059569
  C   1.87690627824160     -0.89573128385744      0.04376803750429
  N   2.60480498046064     -1.79176171231778     -0.17631719492835
  C   -0.74610762456050     -0.62920476770712     -1.30252208786888
  N   -0.92824746153902     -0.96310261657854     -2.41370060987178
  N   -1.43325701334530      0.82703390904286      0.55389719052370
  O   -1.23639236536591      1.20311622289526      1.70258221511872
  O   -2.29714954092447      1.21511116931534     -0.21742889132862
