12
Coordinates from ORCA-job run
  C   0.94462248944609     -0.03196197490156      0.39810971462104
  C   -0.54232048958297     -0.15896332269385      0.04741572527379
  Br  1.76067427739055      1.42081130961143     -0.59813818352233
  H   -0.97920109063105     -0.95015780829673      0.66753090286057
  H   1.02392583401985      0.22931292268870      1.45498947652090
  C   1.62848843639606     -1.28766160601156      0.13150877464490
  N   2.15708598570349     -2.31785418489333     -0.06945584774714
  C   -0.77989039572306     -0.43314189430284     -1.36115330730180
  N   -0.95711041902934     -0.70445613019312     -2.49005789204540
  N   -1.25000539524139      1.11552078227698      0.48820841243651
  O   -1.04970655971480      1.42486154728808      1.65610829339835
  O   -1.95456267303343      1.69469035942780     -0.32406606913939
