12
Coordinates from ORCA-job run
  C   0.94488199848255     -0.44703491931508      0.07804212166039
  C   -0.52945516179718     -0.09417105976084      0.31461183529588
  Br  1.47896320398585     -1.82892142817640      1.33419449173879
  H   -0.68040060765210      0.30518315859487      1.31923619590329
  H   1.06532189488369     -0.85519716550276     -0.92647531065680
  C   1.77738201934386      0.73590858376100      0.24290388096485
  N   2.42629320325886      1.70723809154926      0.37124874591464
  C   -1.40639551890646     -1.23027817643120      0.06057697796076
  N   -2.11934888586747     -2.13945442439150     -0.15093773109337
  N   -0.90052245029919      1.02047050787776     -0.65070620191562
  O   -1.41826158682365      2.01612889899202     -0.16374541022217
  O   -0.63745810860878      0.81112793280288     -1.82894959555065
