12
Coordinates from ORCA-job run
  C   0.85863497968641     -0.43320026715004      0.53339939839732
  C   -0.62803269557339     -0.34220074020584      0.16016733899575
  Br  1.14278403892098      0.34470399697115      2.29331387282635
  H   -1.22431997665764     -0.85305680748848      0.91839960876544
  H   1.10555553397551     -1.49393285704983      0.62871637678520
  C   1.74983251669686      0.17170308818130     -0.44607433935426
  N   2.51074793951901      0.60576246565663     -1.22933684989882
  C   -0.85956516287169     -0.91278314802857     -1.16173624392644
  N   -1.03091587380919     -1.40595192037903     -2.21425459739433
  N   -1.09809084375066      1.09793224425389      0.16843773959024
  O   -0.55199402100819      1.84843387621581     -0.62931983958744
  O   -1.97463643512800      1.37259006902302      0.97828753480099
