12
Coordinates from ORCA-job run
  C   0.96389490802675     -0.39166340342596     -0.12332967022115
  C   -0.47998268521528     -0.18483079036816      0.35245944735632
  Br  1.71227257409699     -1.94645908761290      0.76861343143737
  H   -0.51488854575217      0.01015088240883      1.42588925398057
  H   0.96876216161992     -0.59646891334071     -1.19488946279723
  C   1.76310162086091      0.79029102806352      0.16646137187372
  N   2.38649428582422      1.75791668108482      0.40368695200615
  C   -1.33551115521445     -1.30805024449322     -0.00921617994795
  N   -2.03098816797303     -2.20530781057079     -0.31053620505704
  N   -1.01905750808557      1.06319151744324     -0.32853886168828
  O   -0.90275450631229      1.09433422362915     -1.54791757612084
  O   -1.51034298187600      1.91489591718217      0.39931749917837
