12
Coordinates from ORCA-job run
  C   0.86472491350236     -0.46077206173922      0.49984632582469
  C   -0.62877142995430     -0.33928873088973      0.16532318780103
  Br  1.20101268354251      0.26033494369702      2.27490564398807
  H   -1.21474724671560     -0.86423313477791      0.92196211293709
  H   1.10009478269636     -1.52677762542474      0.55815952641844
  C   1.74077247948920      0.16193862996161     -0.48219690168224
  N   2.48862554045796      0.60957802639395     -1.27042092052966
  C   -0.89948966638911     -0.86623690107645     -1.16739043147057
  N   -1.10269382993656     -1.32351468124791     -2.23040120658118
  N   -1.07804162640475      1.10647053097788      0.22675850725663
  O   -0.54126391780752      1.87232228870086     -0.56256096033310
  O   -1.93022268248053      1.36917871542463      1.06601511637078
