12
Coordinates from ORCA-job run
  C   0.95853756868445     -0.42667320963211      0.00300229353626
  C   -0.52006379367484     -0.15014546140293      0.30495794972460
  Br  1.54968352787547     -1.95142376689638      1.05032002575546
  H   -0.66340940043240      0.11029283961498      1.35523866613955
  H   1.07285655940484     -0.68900599079208     -1.04988331434282
  C   1.76115469785281      0.74632323677975      0.31900008611407
  N   2.38163467462364      1.71034696043756      0.57738436280021
  C   -1.37296439634813     -1.26638578967473     -0.08284921022878
  N   -2.06772083158454     -2.15907508902583     -0.39934244210481
  N   -0.93737085775635      1.07116449815544     -0.49947787402053
  O   -1.47260581431379      1.97864797598911      0.12230291648339
  O   -0.68973193433116      1.02693379644722     -1.69865345985660
