12
Coordinates from ORCA-job run
  C   0.93839379309956     -0.43125775616211      0.37825441553079
  C   -0.59014920089775     -0.31154017651594      0.30301725518370
  Br  1.58686764795488      0.43758158699481      1.99224933646077
  H   -1.03528604667868     -0.75920855755679      1.19363124491952
  H   1.17736139750191     -1.49243379693572      0.48829715702373
  C   1.62756276568099      0.08452448583575     -0.79601259356323
  N   2.22511216182151      0.44535661735135     -1.74129453685664
  C   -1.09521289005690     -0.94582158483063     -0.90928311031728
  N   -1.48613184052792     -1.49049503684022     -1.87411520606798
  N   -1.01688624285970      1.14249651178969      0.31645410654536
  O   -1.70910542417230      1.49087700332894      1.26460976314889
  O   -0.62252612086558      1.82892070354086     -0.61680783200764
