12
Coordinates from ORCA-job run
  C   0.99216322067024     -0.33632026206298      0.02335591984488
  C   -0.52391962800496     -0.23789059923031      0.23797108664509
  Br  1.65657132418228     -1.94037942669334      0.89407235067398
  H   -0.76482573364949     -0.15064654104576      1.29899101603599
  H   1.20345825422859     -0.43195249041612     -1.04263055919503
  C   1.65343138183653      0.84279158388234      0.56365194666372
  N   2.16245984414179      1.80751833633767      1.00110144340171
  C   -1.23167441729084     -1.35526340916917     -0.37417142935691
  N   -1.80651412288911     -2.24933113789771     -0.87400569024583
  N   -1.00328730175166      1.04730750795784     -0.41826401564572
  O   -1.66983263349018      1.80091307438907      0.27757827240561
  O   -0.66903018798317      1.20325336394845     -1.58665034122749
