12
Coordinates from ORCA-job run
  C   0.84084604916544     -0.44856236296757      0.54898076147413
  C   -0.63741284478141     -0.32848238207753      0.15182799304980
  Br  1.11335305416261      0.33196814533071      2.30955901335762
  H   -1.25653335976784     -0.82192198356032      0.90321191652543
  H   1.06443057896869     -1.51359221256761      0.65350131795171
  C   1.75995763547334      0.13271802378777     -0.41894461859893
  N   2.54270980660188      0.54700747247812     -1.19126599366939
  C   -0.86075043185024     -0.90080697070516     -1.17064488773534
  N   -1.02646346368556     -1.39544067668777     -2.22336363590847
  N   -1.07673523466352      1.12176227596615      0.14530989769826
  O   -1.95965455663909      1.41952679174971      0.93991201866635
  O   -0.50274723298434      1.85582387925350     -0.64808378281118
