12
Coordinates from ORCA-job run
  C   0.98846542241383      0.24477165556165      0.11540796517096
  C   -0.46229917288833     -0.23765090777963      0.22846774376480
  Br  1.17648264092721      1.51153930054351     -1.34383629940464
  H   -0.53925695963097     -0.90608387357403      1.09369151260240
  H   1.24042842361269      0.78225470627648      1.03148886331870
  C   1.87878376766978     -0.89032553272738     -0.06962847419643
  N   2.58368110371674     -1.82221571748110     -0.19559332447883
  C   -0.94123007838319     -0.90715845512521     -0.97065461259728
  N   -1.30056429702015     -1.48911378814635     -1.92544049764400
  N   -1.33875091081891      0.95683961048181      0.58088942935272
  O   -0.95861558326354      1.58949727001355      1.55816932066720
  O   -2.32912435633515      1.16764573195671     -0.10196162655561
