12
Coordinates from ORCA-job run
  C   0.96547552787241     -0.40530133965547     -0.04332069405609
  C   -0.50134051357915     -0.15872137416416      0.33345181549962
  Br  1.64423765755617     -1.90786800273207      0.98343662070026
  H   -0.59642412491382      0.10427282160942      1.38858762026307
  H   1.02972096702992     -0.67538337533066     -1.09831978754385
  C   1.75835819272067      0.78672357030946      0.22102922057354
  N   2.37344063606364      1.76445763682502      0.43739247546086
  C   -1.34659768151075     -1.29669491688005     -0.00554630490952
  N   -2.03254693252577     -2.20825002222680     -0.28514137095669
  N   -0.98621744836345      1.04764867435460     -0.45492619057489
  O   -0.80067943532371      0.99997201450413     -1.66511558947146
  O   -1.50742684502616      1.94814431338656      0.18847218501514
