12
Coordinates from ORCA-job run
  C   0.98209054501885     -0.33956216717813      0.13745518645777
  C   -0.54520514031198     -0.21354142356095      0.21037990622906
  Br  1.54698085468123     -1.86554187070404      1.19849375289236
  H   -0.87581371694280     -0.03491666753006      1.23519998754471
  H   1.28331497721502     -0.52983882187776     -0.89368843256468
  C   1.61019140379822      0.87825033342258      0.62946659601339
  N   2.09040457784371      1.87487236866235      1.02602342012571
  C   -1.21297993237224     -1.37455238173787     -0.36454396055810
  N   -1.75593438396349     -2.30457166445271     -0.83343693458952
  N   -0.94909645035637      1.01414230850070     -0.59073403208146
  O   -0.51262562985605      1.06858482585098     -1.73436672655016
  O   -1.66232710475409      1.82867516060490     -0.02124876291907
