12
Coordinates from ORCA-job run
  C   0.94096319017308     -0.05375451988336      0.40403250134483
  C   -0.53064082945424     -0.19999304118522     -0.00067374804943
  Br  1.66460547344925      1.62732297122884     -0.24320519677230
  H   -0.91690461078020     -1.13208748630221      0.42746020737950
  H   0.99198954625824     -0.01876957503174      1.49391935384143
  C   1.71153625819548     -1.17726631928860     -0.10550275309446
  N   2.31035746398329     -2.10531589382557     -0.50709088059916
  C   -0.73549224463365     -0.18287432989743     -1.44050631946994
  N   -0.88337927754396     -0.21877147069950     -2.60511923605870
  N   -1.32867028669804      0.90176986476112      0.68348516275552
  O   -2.06405985947186      1.59338443759184     -0.00376997353837
  O   -1.16130482347738      0.96735536253183      1.89497088226107
