12
Coordinates from ORCA-job run
  C   0.94934784907113     -0.36752495674397      0.24812541039251
  C   -0.57083651810756     -0.17013292029614      0.18145865917480
  Br  1.35136096119289     -1.81753763855660      1.47621516144907
  H   -0.97163338599716      0.11428224262872      1.15611112805451
  H   1.32251290301419     -0.65940338626881     -0.73456796871293
  C   1.59547085827827      0.86094002161288      0.68748083778537
  N   2.09210677270651      1.86710310457196      1.03686492073225
  C   -1.24792509417514     -1.34846301197361     -0.34516864317190
  N   -1.79706367640251     -2.29279461365801     -0.77675151018571
  N   -0.84643435635454      0.99660983888240     -0.75385201286209
  O   -0.32246618125638      0.92537844854630     -1.85913563257165
  O   -1.55544013196972      1.89254287125489     -0.31678035008424
