12
Coordinates from ORCA-job run
  C   0.95157224276880     -0.42947979856159      0.09020296539656
  C   -0.54044154721775     -0.12769864273876      0.28078185454966
  Br  1.46221281629230     -1.88771846629876      1.26753579451714
  H   -0.74771348919015      0.19565763346868      1.30256348771345
  H   1.12937397254506     -0.75950203117905     -0.93441524981760
  C   1.74496879444480      0.75606560032366      0.38137383594103
  N   2.36068770323536      1.72958609397232      0.61426336115843
  C   -1.37505515865073     -1.26240044864174     -0.09357346160757
  N   -2.04985853905848     -2.17242077465354     -0.40358191622058
  N   -0.89677137038817      1.04427246413429     -0.62049769246532
  O   -1.46625441942262      1.98836679718704     -0.09061134401721
  O   -0.57172100535842      0.92727157298743     -1.79604163514800
