12
Coordinates from ORCA-job run
  C   0.92766977305217     -0.08734740821452      0.46909105691737
  C   -0.46766604089843     -0.17718985510602     -0.18030079342415
  Br  1.70472427302397      1.68970126014215      0.45248771941377
  H   -0.70862647986804     -1.22996229116745     -0.35023453973493
  H   0.84546767510838     -0.38352301242233      1.51845191458811
  C   1.81916363336778     -1.00519205885935     -0.22877455175739
  N   2.50758476180762     -1.76241314092564     -0.80649999808282
  C   -0.56887287103502      0.55918378868948     -1.43256166471626
  N   -0.65458187792471      1.13950886509640     -2.45015604351609
  N   -1.54156130070199      0.30797052209767      0.77717329226941
  O   -1.35158182806401      1.38167109505983      1.33159479093913
  O   -2.51071971786773     -0.43240776439020      0.89972881710385
