12
Coordinates from ORCA-job run
  C   0.92891715746310     -0.04559676030892      0.43271118897290
  C   -0.52601590510110     -0.21073899136276     -0.02134479328924
  Br  1.63718011064527      1.66555832197894     -0.15044439274192
  H   -0.90679051843668     -1.16011865594949      0.37246822474573
  H   0.94608827317550     -0.03611289593643      1.52414410301933
  C   1.73813374250994     -1.13997734701074     -0.08004390549456
  N   2.36869398273043     -2.04508734469854     -0.48538186262259
  C   -0.68651922788003     -0.16329142021024     -1.46615479106446
  N   -0.79710675343365     -0.17335791849944     -2.63537831326643
  N   -1.36701058386040      0.85862335965178      0.66265007003149
  O   -2.09544198969379      1.55123535335097     -0.03110665195436
  O   -1.23812828811860      0.89886429899487      1.87988112366409
