12
Coordinates from ORCA-job run
  C   0.95637694578947      0.03431910273830      0.36829272842551
  C   -0.52237082715136     -0.22017148033673      0.05139237352233
  Br  1.57696625033877      1.64723660452078     -0.51711589690261
  H   -0.85103513896502     -1.10097498553527      0.61480097264137
  H   1.04879964336119      0.21046331317790      1.44161236140973
  C   1.75633504613489     -1.11167716541188     -0.03360485817892
  N   2.37973354096567     -2.05605597193989     -0.35105925380388
  C   -0.78302205331195     -0.40225433482750     -1.36781454653051
  N   -0.97026870527183     -0.59817829470314     -2.51060234085949
  N   -1.33826442094159      0.93232965546617      0.61977356027275
  O   -1.13492070481557      1.15601368242522      1.80654208504901
  O   -2.11932957613266      1.50794987442604     -0.12221718504530
