12
Coordinates from ORCA-job run
  C   0.84412822336384     -0.47296762933253      0.52249114561120
  C   -0.63866512829854     -0.32607908596934      0.15215458282088
  Br  1.15238197421537      0.24959585699196      2.30132696008312
  H   -1.25137787050514     -0.83549074555041      0.89817024972560
  H   1.05746523907046     -1.54313050988800      0.58908237840616
  C   1.75422622231824      0.12869890160934     -0.44168988783440
  N   2.52927762632823      0.55794325602276     -1.21364673483631
  C   -0.88782254792717     -0.85761302013715     -1.18275921650842
  N   -1.07319497821509     -1.31874430102457     -2.24736802257725
  N   -1.06311715459857      1.12756101242912      0.19510720077933
  O   -0.49577568833117      1.87897312024123     -0.58685346217876
  O   -1.92752591742048      1.41125314460760      1.01498480650886
