12
Coordinates from ORCA-job run
  C   0.97816149608839     -0.34413757531583      0.14935298732109
  C   -0.54914771327149     -0.20747498113541      0.20310669687914
  Br  1.52057173131240     -1.87359226757487      1.21725777691056
  H   -0.88981002978857     -0.01755898665624      1.22270647900418
  H   1.29052688029965     -0.53647795375847     -0.87807266421893
  C   1.60712355178210      0.86912875613000      0.65070287308532
  N   2.08763962969368      1.86247096932159      1.05510361662159
  C   -1.21942352483692     -1.36875526946039     -0.36784889077290
  N   -1.76443870413819     -2.30078030453160     -0.83054242404173
  N   -0.93299321050463      1.01688660666491     -0.61247207398263
  O   -1.63651035553292      1.84791059704896     -0.05488926903922
  O   -0.49269975110350      1.05138040926734     -1.75540510776647
