12
Coordinates from ORCA-job run
  C   0.93877491444020     -0.42011847841328      0.38881329699849
  C   -0.59040967342169     -0.32071976940098      0.29320188092711
  Br  1.55307210223474      0.45076328075738      2.01565795468433
  H   -1.03999707320772     -0.77711866932597      1.17696142482798
  H   1.19003806868655     -1.47831369857274      0.49947300989220
  C   1.63712119662572      0.11015020457484     -0.77352736157858
  N   2.24342830889601      0.48279112219539     -1.70864856569476
  C   -1.07002641370117     -0.95733305681407     -0.92786137557259
  N   -1.44026545781789     -1.50319188889022     -1.90015628893522
  N   -1.03677007748560      1.12744124787305      0.30684190849820
  O   -1.74546908212180      1.46255120635668      1.24752709656704
  O   -0.63949681312736      1.82309849965993     -0.61828298061421
