12
Coordinates from ORCA-job run
  C   0.92176855226935     -0.41229420023090      0.43526834479719
  C   -0.60225452282722     -0.30931044738404      0.28104079023882
  Br  1.48053499110826      0.50156120931765      2.05873925660501
  H   -1.08580823575496     -0.73640496417945      1.16155366334709
  H   1.16320975714948     -1.46799287170820      0.58498434760929
  C   1.66524470956617      0.08185981552882     -0.71478582137751
  N   2.30715689693169      0.42561893485971     -1.63708788859314
  C   -1.04095472141669     -0.98114338744078     -0.93664460727783
  N   -1.37796472927183     -1.55419970118033     -1.90534152785673
  N   -1.04156779944840      1.14013603854005      0.23353895267727
  O   -1.78092500876063      1.50774936830811      1.13782385929045
  O   -0.60943988954522      1.80442020556936     -0.69908936945991
