12
Coordinates from ORCA-job run
  C   0.93281059738001     -0.47539738420719      0.04761415376603
  C   -0.53088402200374     -0.09746346897281      0.31024415778590
  Br  1.43290535150613     -1.94242134276051      1.21832395629288
  H   -0.66805237974962      0.24882635586809      1.33629287226144
  H   1.03987129234623     -0.82678529624533     -0.97962702082757
  C   1.79673783048426      0.67322297390105      0.27959672729462
  N   2.47028753361420      1.61783251167669      0.46708011101533
  C   -1.43858331747225     -1.19393968929371     -0.00299757148071
  N   -2.17428240470170     -2.07200002536125     -0.26259349890141
  N   -0.87502143005498      1.07892920692380     -0.58960478866805
  O   -0.62050284074243      0.92941999268428     -1.77879798832841
  O   -1.36528621060612      2.05877616578691     -0.04553111021003
