12
Coordinates from ORCA-job run
  C   0.97517222835308     -0.38219363349763     -0.02860454663782
  C   -0.50741834557395     -0.18133209012479      0.31229769681131
  Br  1.65837816961392     -1.90442426382417      0.96572797702921
  H   -0.63868433145269      0.04180638747077      1.37273764652933
  H   1.07686541990036     -0.61366671489004     -1.08983003942135
  C   1.73212183861607      0.81718560161589      0.30014458592533
  N   2.31724055743836      1.80051607304156      0.56805865441310
  C   -1.31591419570173     -1.32507985777543     -0.09073659453413
  N   -1.97197892432798     -2.24199327504175     -0.42011785136736
  N   -0.99605561219368      1.04130528607757     -0.44769445650585
  O   -0.77497982378405      1.04011063299892     -1.65292975857306
  O   -1.55474698088771      1.90776585394910      0.21094668633130
