12
Coordinates from ORCA-job run
  C   0.92947358009100     -0.41003588777451      0.42121935038573
  C   -0.59718348031049     -0.29935950033042      0.30151527456090
  Br  1.53381122809513      0.53303292001359      2.01124308405454
  H   -1.06247516043875     -0.70549516204190      1.20153993751401
  H   1.16754846507944     -1.46420285565877      0.58645654299450
  C   1.64798653236831      0.05530642997188     -0.75641397311400
  N   2.26958084952038      0.37558647763668     -1.70083664175502
  C   -1.06943222347418     -0.99214507390578     -0.89152211029066
  N   -1.43431168087515     -1.58204941750197     -1.83981401230209
  N   -1.02765745861995      1.15200397458273      0.23572568978397
  O   -1.74201057383770      1.54289684110221      1.15031324309654
  O   -0.61433007759805      1.79446125390624     -0.72042638492840
