12
Coordinates from ORCA-job run
  C   0.95132592504181     -0.37769144652213      0.40291311474797
  C   -0.58059781889354     -0.31983378276748      0.31496078537501
  Br  1.55834431025369      0.59425182308313      1.97410935218334
  H   -1.01286851016219     -0.73555301894523      1.22698301586785
  H   1.22780320910235     -1.42234752252586      0.56883646697512
  C   1.62822783090659      0.10620007348173     -0.79200288925886
  N   2.22637992494317      0.47116626426856     -1.73536686883380
  C   -1.05300299717301     -1.03819597762861     -0.86293562789294
  N   -1.42390753168886     -1.64772470596770     -1.79641308209735
  N   -1.06157828901689      1.11549381345265      0.24755343311365
  O   -0.69987712553887      1.76005446077739     -0.72795297872987
  O   -1.75924892777426      1.49318001929354      1.18031527854988
