12
Coordinates from ORCA-job run
  C   0.95634158257151     -0.41259657071341      0.35244110297111
  C   -0.57594397575944     -0.31687293372879      0.32436759848279
  Br  1.64191399486063      0.48192324693503      1.93731242354163
  H   -0.98417903331250     -0.76066044052455      1.23427222361617
  H   1.21425912412863     -1.46886110144761      0.46622170133807
  C   1.60010825953372      0.10210466680960     -0.84767722729900
  N   2.16169111158402      0.46355143452020     -1.81456945479897
  C   -1.10807664624964     -0.97381522874096     -0.86371701979563
  N   -1.51893517224126     -1.53695032730882     -1.80950399378511
  N   -1.02451920594886      1.13024737376148      0.33582194271844
  O   -1.68782679185722      1.47971986900971      1.30410410626500
  O   -0.67483324730961      1.81121001142809     -0.61907340325449
