12
Coordinates from ORCA-job run
  C   0.96266385158678      0.00122213849104      0.35202333824224
  C   -0.52592469402066     -0.20249193262617      0.04933894600698
  Br  1.62575581016190      1.60399210366593     -0.51929601446465
  H   -0.87425652654284     -1.08529951320273      0.59778055078291
  H   1.07285894676839      0.16028946197767      1.42633099569256
  C   1.72071640234232     -1.16751769212875     -0.06706129535580
  N   2.31104790772634     -2.13258545412443     -0.38520159181016
  C   -0.81049447495582     -0.34669960031951     -1.36977274247909
  N   -1.02129581750323     -0.51657454339419     -2.51271915370114
  N   -1.30317333211378      0.96037278059417      0.65247623239560
  O   -2.09155173828054      1.55977705529743     -0.06210429780534
  O   -1.06534633516887      1.16551519576954      1.83620503249587
