12
Coordinates from ORCA-job run
  C   0.96262677857772      0.06979301531005      0.34541992950639
  C   -0.52933768663353     -0.18086916416267      0.09755694256755
  Br  1.63879258550672      1.42478753695986     -0.86990943237607
  H   -0.88693485808874     -0.90766918916708      0.83597039454472
  H   1.07805966160080      0.46900910450370      1.35481248880942
  C   1.70786590131196     -1.17066300498171      0.19975167549742
  N   2.28791099937418     -2.18786360834191      0.09969661793523
  C   -0.81852341252122     -0.64606448760062     -1.24981453837492
  N   -1.03302842714989     -1.06841298558188     -2.32457821605965
  N   -1.28959158092533      1.09999328292863      0.41419388565767
  O   -2.06414769078382      1.53407455210574     -0.42452748811032
  O   -1.05369227026883      1.56488494802789      1.52242774040257
