12
Coordinates from ORCA-job run
  C   0.93375902861983     -0.43627303381653      0.38434182412142
  C   -0.59371956906972     -0.30170937085684      0.30622830534595
  Br  1.58951391426353      0.44421297675667      1.98975752455788
  H   -1.04249922922013     -0.73189376550672      1.20344842980994
  H   1.16108280754917     -1.49848860624491      0.50783544796402
  C   1.62967042081829      0.05952126909135     -0.79451176048228
  N   2.23142866827855      0.40428331038800     -1.74311243557958
  C   -1.10417567512952     -0.94768538953738     -0.89732611976984
  N   -1.49974139610296     -1.50035219994753     -1.85568289717662
  N   -1.00576117224052      1.15642864973980      0.29955932553841
  O   -1.69374365970891      1.52504748818651      1.24317607421187
  O   -0.60581413805761      1.82590867174757     -0.64371371854117
