12
Coordinates from ORCA-job run
  C   0.95509305082136     -0.40405347280774      0.36548145923422
  C   -0.57744037841000     -0.32427297160086      0.31470185678812
  Br  1.60617194301750      0.49120800793476      1.96473602077748
  H   -0.99487994645771     -0.77553816267668      1.21668532646216
  H   1.22295877231658     -1.45783733331707      0.47928514791509
  C   1.61189290393142      0.12243711998491     -0.82241618334643
  N   2.18346349527928      0.49215665437117     -1.78025165481114
  C   -1.08530894747845     -0.98220084062328     -0.88350831543546
  N   -1.47551878401286     -1.54450210737389     -1.83847329824778
  N   -1.04109821959274      1.11805381963346      0.32419304746276
  O   -1.72613974409615      1.45636380595655      1.28130451382616
  O   -0.68019414531823      1.80718548051865     -0.62073792062518
