12
Coordinates from ORCA-job run
  C   0.94157346910117     -0.42369894604953      0.37890451601041
  C   -0.58810589111517     -0.31923146806849      0.29888552013784
  Br  1.57471985986927      0.44059422345388      2.00209785210709
  H   -1.03014377029403     -0.77507106594815      1.18672158422377
  H   1.19033574444689     -1.48307607778465      0.48407986865581
  C   1.63005158590634      0.10746121186159     -0.78885887246419
  N   2.22796192826917      0.48087204006405     -1.72901914743478
  C   -1.08201865210303     -0.95347912265131     -0.91776186795004
  N   -1.46330979011389     -1.49646566415246     -1.88737255797834
  N   -1.03044175208334      1.12989229601826      0.31763697825307
  O   -0.64141248602214      1.82482308467083     -0.61158984709918
  O   -1.72921024586125      1.46637948858597      1.26527597353854
