16

C	-0.391659	0.101388	-1.448515
C	0.0	0.0	0.0
F	-1.755214	0.26833	-1.606263
H	1.093014	0.0	0.0
H	-0.383585	-0.935478	0.416068
N	0.259637	1.10801	-2.220055
H	-0.036731	2.002392	-1.845416
H	1.261193	1.015662	-2.041895
N	-0.073808	-1.24756	-2.105427
O	0.953859	-1.330338	-2.763428
O	-0.860578	-2.162087	-1.877415
C	-0.475903	1.198229	0.810432
H	-0.013281	2.120013	0.447799
H	-0.149865	1.077841	1.8462
H	-1.562495	1.317472	0.795915
H	2.946008	0.0	0.0
