16

C	-0.515212	0.000746	-1.409743
C	0.0	0.0	0.0
F	-0.19383	-1.137179	-2.079662
H	1.094454	0.0	0.0
H	-0.319599	0.9341	0.472928
N	-1.931078	0.170153	-1.519257
H	-2.188385	1.041496	-1.074944
H	-2.198992	0.204158	-2.497433
N	0.181386	1.141744	-2.195148
O	-0.045588	2.269736	-1.758531
O	0.825318	0.877077	-3.199968
C	-0.49589	-1.214866	0.773571
H	-0.145175	-2.129556	0.292265
H	-0.063668	-1.191821	1.776852
H	-1.585281	-1.256567	0.852195
H	2.972088	0.0	0.0
