16

C	-0.510494	0.028911	-1.408223
C	0.0	0.0	0.0
F	0.067792	-0.990684	-2.143853
H	1.090563	0.0	0.0
H	-0.342909	0.900999	0.510798
N	-1.926645	0.00552	-1.541678
H	-2.163537	-0.142762	-2.516336
H	-2.299963	-0.751244	-0.98581
N	-0.102601	1.30638	-2.150229
O	0.205019	2.291129	-1.494546
O	-0.199565	1.259376	-3.375822
C	-0.453451	-1.260236	0.734596
H	-1.511769	-1.254118	1.021512
H	0.140899	-1.355228	1.645757
H	-0.252626	-2.148493	0.130791
H	2.984743	0.0	0.0
