16

C	-0.494227	-0.076714	-1.412812
C	0.0	0.0	0.0
F	0.061415	-1.171297	-2.049613
H	1.093148	0.0	0.0
H	-0.342476	0.939848	0.435115
N	-1.908928	-0.069065	-1.567016
H	-2.313405	-0.764268	-0.954788
H	-2.136853	-0.296244	-2.529234
N	-0.035228	1.123774	-2.248707
O	0.226489	2.166895	-1.668345
O	-0.048848	0.961504	-3.467494
C	-0.463873	-1.197079	0.825857
H	0.104835	-1.209971	1.758533
H	-1.53011	-1.176394	1.083245
H	-0.242026	-2.130862	0.304569
H	2.980862	0.0	0.0
