16

C	-0.201552	-0.01644	-1.499237
C	0.0	0.0	0.0
F	-0.08234	1.281736	-1.969923
H	1.094707	0.0	0.0
H	-0.381534	0.944609	0.393771
N	0.694828	-0.901166	-2.106846
H	1.611512	-0.781407	-1.653101
H	0.766844	-0.718085	-3.101691
N	-1.627761	-0.417216	-1.959906
O	-2.016406	-1.527785	-1.607272
O	-2.283447	0.368694	-2.640771
C	-0.479259	-1.209176	0.785998
H	-0.041259	-1.158639	1.786567
H	-1.566138	-1.263826	0.88254
H	-0.133149	-2.12835	0.313811
H	2.930383	0.0	0.0
