16

C	-0.307412	0.200474	-1.468109
C	0.0	0.0	0.0
F	-1.567099	0.720891	-1.682461
H	1.093071	0.0	0.0
H	-0.405116	-0.946151	0.36639
N	0.630069	0.99573	-2.190071
H	1.565943	0.725397	-1.862446
H	0.486378	1.954286	-1.891521
N	-0.341969	-1.187339	-2.126582
O	0.665554	-1.570425	-2.706279
O	-1.375222	-1.835752	-1.973863
C	-0.473769	1.17176	0.848656
H	-0.061671	2.113078	0.474409
H	-0.097842	1.048499	1.867426
H	-1.562516	1.258532	0.879882
H	2.929265	0.0	0.0
