16

C	-0.237386	0.003264	-1.485061
C	0.0	0.0	0.0
F	-0.276729	1.321612	-1.971171
H	1.096091	0.0	0.0
H	-0.324068	-0.965367	0.39259
N	0.704893	-0.79462	-2.130241
H	1.630059	-0.647225	-1.701927
H	0.707077	-0.637505	-3.129043
N	-1.632924	-0.492786	-1.92559
O	-1.835919	-0.534704	-3.137584
O	-2.448741	-0.813376	-1.065366
C	-0.597148	1.162614	0.767173
H	-0.203656	2.109058	0.395167
H	-0.318229	1.079503	1.820938
H	-1.688496	1.183854	0.701006
H	2.950259	0.0	0.0
