16

C	0.0	0.0	0.0
C	-0.481257	-0.014853	-1.452496
F	1.38694	0.0	0.0
H	-1.575884	-0.009885	-1.438037
C	-0.34542	1.31701	0.607441
N	-0.501592	2.324023	1.191517
N	-0.476294	-1.133409	0.706388
H	-0.280046	-1.016683	1.694174
H	-1.496334	-1.149917	0.591468
N	-0.062684	-1.363563	-2.042276
O	1.052746	-1.418339	-2.565657
O	-0.859998	-2.291795	-1.972893
N	0.072332	1.081859	-2.162192
H	1.064536	0.938681	-2.298701
H	-0.383086	1.195459	-3.056478
Cl	-3.495281	0.0	0.0
