16

C	0.0	0.0	0.0
C	-0.479197	0.025611	-1.452779
F	1.391026	0.0	0.0
H	-1.573744	0.029686	-1.43957
C	-0.351526	1.296794	0.643973
N	-0.518798	2.286034	1.255528
N	-0.472377	-1.155719	0.671653
H	-0.274485	-1.067764	1.662666
H	-1.492716	-1.168043	0.560508
N	-0.059568	-1.303806	-2.080935
O	1.057211	-1.344415	-2.601863
O	-0.858004	-2.232591	-2.042723
N	0.072594	1.143617	-2.130028
H	-0.38283	1.28193	-3.020931
H	1.065019	1.006688	-2.269903
Cl	-3.497939	0.0	0.0
