16

C	0.0	0.0	0.0
C	-0.483946	-0.103401	-1.461865
F	1.374086	0.0	0.0
H	-1.576037	-0.129537	-1.45206
C	-0.358271	1.358954	0.507919
N	-0.570638	2.4265	0.950115
N	-0.489751	-1.085613	0.76815
H	-0.296609	-0.922289	1.7498
H	-1.509697	-1.097745	0.647846
N	-0.013642	-1.436945	-1.982791
O	-0.829072	-2.35237	-2.017215
O	1.159895	-1.508768	-2.341921
N	0.016787	0.911954	-2.337144
H	0.990337	1.101	-2.13747
H	-0.531328	1.754385	-2.225388
Cl	-3.512255	0.0	0.0
