17

C	0.0	0.0	0.0
C	-0.508567	0.088297	-1.447077
Br	2.023889	0.0	0.0
H	-1.606364	0.085488	-1.309751
N	-0.451355	1.130534	0.712919
H	-0.278686	1.062275	1.705478
H	-0.112391	2.008953	0.34368
N	-0.438302	-1.24417	0.558976
H	-1.46323	-1.1767	0.586394
H	-0.099775	-1.330821	1.509569
C	-0.088823	-1.075712	-2.34058
H	-0.629476	-1.019811	-3.288273
H	0.983649	-1.053672	-2.539763
H	-0.342372	-2.008672	-1.839722
C	-0.139197	1.369512	-2.042348
N	0.160926	2.395205	-2.531268
Br	-3.802379	0.0	0.0
