17

C	0.0	0.0	0.0
C	-0.310793	-0.116331	-1.521973
Br	2.045955	0.0	0.0
H	0.29694	0.641645	-2.027727
N	-0.441064	1.196675	0.635737
H	-1.45825	1.158596	0.694808
H	-0.150995	2.016436	0.118318
N	-0.529924	-1.081841	0.700637
H	-0.409095	-0.983483	1.698709
H	-0.234191	-1.986122	0.364354
C	-1.790949	0.101911	-1.833794
H	-2.080178	1.130795	-1.622514
H	-2.444014	-0.528788	-1.233033
H	-1.976064	-0.091596	-2.893193
C	0.129586	-1.420964	-2.021399
N	0.442957	-2.486842	-2.40414
Br	-4.769608	0.0	0.0
