14

C	-0.60541	0.00017	-1.414986
C	0.0	0.0	0.0
Cl	-0.09904	-1.501934	-2.255314
H	1.087948	0.0	0.0
H	-0.378102	0.883463	0.519484
N	-2.049255	0.095118	-1.503632
H	-2.328968	1.024356	-1.204786
H	-2.456451	-0.568513	-0.852655
C	-0.045743	1.1497	-2.138425
N	0.332915	2.108612	-2.700518
N	-0.519268	-1.166776	0.759428
O	-1.686898	-1.084429	1.167555
O	0.210006	-2.13673	0.921926
Br	3.473381	0.0	0.0
