14

C	-0.548478	-0.009561	-1.412515
C	0.0	0.0	0.0
Cl	-2.437597	-0.036408	-1.249159
H	1.091006	0.0	0.0
H	-0.359175	0.894393	0.508981
N	-0.08971	1.133418	-2.084736
H	-0.199593	1.981912	-1.548274
H	-0.467927	1.227422	-3.015766
C	-0.246935	-1.19225	-2.222819
N	-0.012814	-2.057935	-2.981079
N	-0.467579	-1.141885	0.816122
O	-0.495486	-2.250338	0.289259
O	-0.75681	-0.902325	1.986905
Br	3.41593	0.0	0.0
