14
Coordinates from ORCA-job run
  C   0.94384303842333     -0.01043559302581      0.13995891215991
  C   -0.34915123544182      0.34410713982466      0.00213407475036
  H   1.65482291732697      0.75465269989969      0.43310017176955
  C   1.44803773210355     -1.40139821702690     -0.12700503498446
  H   1.28089705036113     -1.70413809102462     -1.16702833422110
  H   0.95665091654420     -2.14714412538126      0.51063813560350
  H   2.51898819042403     -1.47586067873624      0.06563420522214
  C   -0.84435017544909      1.74086369631605      0.23088900103739
  H   -1.29567576610740      2.14024438414107     -0.68216600382023
  H   -0.03121069574838      2.39921346938247      0.53671422819774
  H   -1.61207085093615      1.76261397622656      1.01284678183362
  N   -1.33007545294204     -0.53763695572899     -0.47782098442596
  H   -2.24989707801433     -0.35349791163979     -0.10422142141450
  H   -1.08880859054400     -1.51258379322690     -0.37367373170797
