14
Coordinates from ORCA-job run
  C   0.89284717240479     -0.06444566703822      0.19838595478531
  C   -0.37150548482688      0.36120225231690      0.02045173832766
  H   1.60289220206212      0.64056148650552      0.62331998406125
  C   1.41352300386778     -1.42438172007882     -0.17206651939527
  H   2.12021610619696     -1.77572038910656      0.58477418032314
  H   1.93638855198405     -1.44001204342576     -1.13393994132155
  H   0.60481899471616     -2.15821146615632     -0.21546610985112
  C   -0.82312670935131      1.73715045071090      0.43111084548651
  H   -1.82251372693126      1.70397979345480      0.87447079782685
  H   -0.86562468425442      2.39391537017328     -0.44167578866639
  H   -0.14416075828614      2.17349865012520      1.16718541651742
  N   -1.37004375206413     -0.35783799255872     -0.68273348334284
  H   -2.17259572921517     -0.60877111907172     -0.11905991924887
  H   -1.00011518630257     -1.18192760585047     -1.13575715550209
