14
Coordinates from ORCA-job run
  C   0.38718262851516     -0.85260349427329     -0.34885095931099
  C   -0.62235942807757     -0.01025625634931     -0.05041022248476
  H   0.11793180342153     -1.79624718684376     -0.82609387923772
  C   1.84914185439975     -0.66719219729568     -0.06914830009417
  H   2.06457775529741      0.26890161108483      0.44596734715816
  H   2.43397607444337     -0.67716186552555     -0.99464841642360
  H   2.23321340556236     -1.47918321622172      0.55682406289179
  C   -0.48098847423534      1.33397945772190      0.60288274575145
  H   0.55663746473446      1.62206455974752      0.75554759205653
  H   -0.95297452828683      2.10672102285181     -0.01446887146837
  H   -0.99400079044713      1.33346500613241      1.56841343207309
  N   -1.97410297191220     -0.37337700494312     -0.22875481887670
  H   -2.53619496121606      0.38560828064307     -0.58951021525540
  H   -2.08403983219891     -1.19471871672911     -0.80774949677930
