14
Coordinates from ORCA-job run
  C   0.49957158496213     -0.62615294402722     -0.59829586381659
  C   -0.58410392261604      0.07438271466824     -0.20756719651923
  H   0.40885760702743     -1.20367055556824     -1.51954183665723
  C   1.82231032018446     -0.73212829041084      0.10144923526134
  H   2.08283841768188     -1.77951376575314      0.28315814655159
  H   2.62922310568532     -0.30561899244423     -0.50362081153053
  H   1.83030801610277     -0.22506247895650      1.06617039418732
  C   -0.67835184293507      0.93606279631695      1.01806600115227
  H   -1.43618193518178      0.53490541717955      1.69639694216192
  H   -0.99197543209724      1.94970526514593      0.74439926673618
  H   0.26585397813910      1.01587949919287      1.55191722209858
  N   -1.82131641610742     -0.02935248964014     -0.87865997962051
  H   -2.28863117117351      0.86240909273418     -0.97028844783310
  H   -1.73640230967203     -0.47184526843740     -1.78358307217203
