14
Coordinates from ORCA-job run
  C   0.95286319210393     -0.00397812334471     -0.04739328239304
  C   -0.34534735316988      0.34460996194558      0.05046948614415
  H   1.70007524054373      0.77598090368939      0.05346915575285
  C   1.40836253910296     -1.40935935512668     -0.32609065756534
  H   2.49697099895825     -1.47539507448619     -0.33947584678138
  H   1.05541177836219     -2.11595023412178      0.43566517408231
  H   1.04696514977641     -1.77094716717261     -1.29561208913014
  C   -0.79966937356257      1.75341979549241      0.29008230555139
  H   -1.39894060345096      1.82299705324429      1.20509324125727
  H   -1.42512303480318      2.09841431083626     -0.53857446937498
  H   0.05118695609180      2.42734825224741      0.39030970947155
  N   -1.39280085600262     -0.56212868802365     -0.17448795394525
  H   -1.12625100849085     -1.52990095776693     -0.06553568679826
  H   -2.22270362545922     -0.35511067741277      0.36208091372886
