14
Coordinates from ORCA-job run
  C   0.90428569623278     -0.00969742097546     -0.30349505251655
  C   -0.32895653274728      0.34782520237052      0.10607272206892
  H   1.58944764153589      0.77530307671241     -0.60543214263201
  C   1.38442505896514     -1.43432531689984     -0.32111541885257
  H   1.38557459955750     -1.87766234093258      0.68124431462228
  H   2.40212027510365     -1.50151864046515     -0.70768346937849
  H   0.75860434536685     -2.07256405974508     -0.95759448077787
  C   -0.79308203175563      1.77267927676150      0.16173850315465
  H   -1.06637374548313      2.04469650100080      1.18553930474735
  H   -0.01449400201365      2.45206008564827     -0.18527375674272
  H   -1.67945523663322      1.92202248599332     -0.46542523966173
  N   -1.25334428972860     -0.57318004397279      0.62306039444627
  H   -1.07596536303436     -1.52822208897904      0.34725880455270
  H   -2.21378641536593     -0.31941671651690      0.44210551696977
