14
Coordinates from ORCA-job run
  C   0.86142592207644     -0.16096008486611      0.37729591129018
  C   -0.33338253747633      0.35803991879079      0.03156603816338
  H   1.45997670357400      0.37631859763641      1.10524148734607
  C   1.41714250486648     -1.42044096080383     -0.22710133435163
  H   2.38429506469440     -1.67262760537938      0.20955732763844
  H   0.75829737863188     -2.28238006872918     -0.06251784446807
  H   1.56199229343751     -1.32508018163766     -1.30932032826096
  C   -0.86873296691314      1.63597713566145      0.60515099558845
  H   -1.82999281897486      1.47009346182946      1.10490823493383
  H   -1.03452242262045      2.37005500906682     -0.18888429535695
  H   -0.17680337585155      2.05837268452660      1.33384064929965
  N   -1.13593177042127     -0.19299296700212     -0.97951804731533
  H   -0.93777651454366     -1.16373406818829     -1.17452687221891
  H   -2.12398746047945     -0.05164087090499     -0.82669192228815
