14
Coordinates from ORCA-job run
  C   0.92658450868985     -0.01212481195836     -0.22616515268852
  C   -0.35255466121237      0.34091631096202      0.00978826576419
  H   1.62714385286458      0.76696898314798     -0.50738035776694
  C   1.41510178855689     -1.43202902252329     -0.15405734301105
  H   0.90701258964886     -2.07651963786550     -0.88046770072895
  H   2.48481588960494     -1.49105179889657     -0.35851938494169
  H   1.25516390460164     -1.87299766378903      0.83797684102086
  C   -0.84695321536890      1.75219660637454     -0.10035578044943
  H   -1.27077137498168      2.09582567168089      0.85018674182066
  H   -0.03862459204436      2.42988649326355     -0.37511229723061
  H   -1.63580960984701      1.82163940315469     -0.85516893282592
  N   -1.36230845130688     -0.59849322183399      0.27167844762559
  H   -1.01705893581759     -1.48321906732352      0.61474372599969
  H   -2.09274169338797     -0.24199824439339      0.87085292741214
