14
Coordinates from ORCA-job run
  C   0.90610966252462     -0.01602558198949     -0.29820280127551
  C   -0.33767265019726      0.34867484240958      0.07108847923241
  H   1.61239864042576      0.76614983439641     -0.55555506171628
  C   1.34510508276527     -1.44990220614924     -0.40590551870692
  H   1.24233584834107     -1.98531198433114      0.54642843164135
  H   0.76102470461867     -2.00077170803588     -1.15197005690675
  H   2.39394455398673     -1.51965970244499     -0.69689454024616
  C   -0.78646588884743      1.77773660272336      0.14114016793831
  H   0.02345559127826      2.45623147837512     -0.12691754366463
  H   -1.12534717955935      2.03403598190490      1.15142065956928
  H   -1.62618307789103      1.94706362898365     -0.53937213762366
  N   -1.35921025994117     -0.58240990014377      0.31707735363582
  H   -2.02843853217235     -0.26681534241311      1.00428831443571
  H   -1.02205649533177     -1.50699594328541      0.54337425368703
