17

C	-0.422198	-0.032155	-1.463807
C	0.0	0.0	0.0
F	0.059308	1.115414	-2.091841
H	1.096135	0.0	0.0
C	0.205549	-1.196452	-2.125781
N	0.605028	-2.150025	-2.682052
C	-1.923411	-0.06176	-1.711689
H	-2.370423	0.810436	-1.229681
H	-2.123859	-0.020508	-2.784623
H	-2.369388	-0.969173	-1.301453
C	-0.385949	-1.264306	0.768808
H	0.04712	-1.196453	1.768695
H	0.068954	-2.130872	0.283742
H	-1.466136	-1.42262	0.864423
C	-0.542536	1.184134	0.634094
N	-0.997036	2.129269	1.169103
F	2.527744	0.0	0.0
