17

C	-0.239235	0.027379	-1.516833
C	0.0	0.0	0.0
F	0.096786	-1.236734	-2.013976
H	1.096964	0.0	0.0
C	-1.661905	0.225321	-1.872328
N	-2.799117	0.369473	-2.133753
C	0.690346	1.037105	-2.161268
H	1.677608	0.831544	-1.728114
H	0.385925	2.055591	-1.908174
H	0.681468	0.913535	-3.246815
C	-0.583121	-1.224776	0.689852
H	-1.670557	-1.29465	0.577444
H	-0.345197	-1.190309	1.754556
H	-0.120991	-2.117516	0.268546
C	-0.482841	1.239225	0.581156
N	-0.878828	2.234741	1.068057
F	2.599731	0.0	0.0
