17

C	-0.238846	0.011206	-1.517602
C	0.0	0.0	0.0
F	0.094196	-1.259441	-2.000609
H	1.096985	0.0	0.0
C	-1.659691	0.207872	-1.876565
N	-2.79276	0.353364	-2.148186
C	0.693555	1.011599	-2.171618
H	1.678733	0.806944	-1.73438
H	0.684518	0.877379	-3.254629
H	0.391062	2.031594	-1.926789
C	-0.584944	-1.217073	0.701433
H	-0.346211	-1.170591	1.765302
H	-0.123139	-2.114695	0.291025
H	-1.672389	-1.285731	0.589925
C	-0.483499	1.245438	0.566638
N	-0.882133	2.245369	1.041725
F	2.602685	0.0	0.0
