17

C	-0.253117	-0.128116	-1.501634
C	0.0	0.0	0.0
F	-1.585533	-0.49617	-1.785892
H	1.096757	0.0	0.0
C	-0.043105	1.173126	-2.167838
N	0.141876	2.201608	-2.703737
C	0.70241	-1.153962	-2.090664
H	1.690954	-0.930371	-1.668443
H	0.385756	-2.151886	-1.780152
H	0.701744	-1.108726	-3.180869
C	-0.42487	-1.255683	0.767251
H	-0.323556	-1.071213	1.838212
H	-1.455704	-1.550447	0.556334
H	0.253692	-2.072085	0.517111
C	-0.6046	1.18983	0.564529
N	-1.109382	2.129988	1.059847
F	2.597089	0.0	0.0
