17

C	-0.256267	-0.126114	-1.501236
C	0.0	0.0	0.0
F	-1.583435	-0.509028	-1.781942
H	1.096756	0.0	0.0
C	-0.064074	1.177953	-2.16529
N	0.114483	2.205676	-2.704193
C	0.708481	-1.136908	-2.09733
H	1.697161	-0.900852	-1.682376
H	0.696178	-1.092796	-3.187955
H	0.409799	-2.138604	-1.782563
C	-0.419288	-1.258029	0.766216
H	0.256654	-2.073126	0.506907
H	-0.306665	-1.077181	1.836791
H	-1.452005	-1.551786	0.564807
C	-0.604461	1.187354	0.569659
N	-1.107327	2.12679	1.067964
F	2.598885	0.0	0.0
