17

C	-0.240917	0.024261	-1.517601
C	0.0	0.0	0.0
F	0.085846	-1.243777	-2.01074
H	1.096991	0.0	0.0
C	-1.66134	0.232965	-1.875248
N	-2.793057	0.396341	-2.148405
C	0.694615	1.026189	-2.166696
H	0.679026	0.903262	-3.252412
H	1.68223	0.814173	-1.736606
H	0.398046	2.045641	-1.911177
C	-0.582963	-1.224137	0.692692
H	-1.670274	-1.296766	0.57696
H	-0.348014	-1.183989	1.758386
H	-0.116254	-2.117085	0.27717
C	-0.482157	1.240676	0.579124
N	-0.87575	2.238048	1.064112
F	2.603196	0.0	0.0
