17

C	0.0	0.0	0.0
C	-0.497195	0.15874	-1.479359
Cl	1.754359	0.0	0.0
H	-1.591771	0.155855	-1.405638
N	-0.516739	0.909185	0.945107
H	-1.541846	0.811158	0.90981
H	-0.283649	1.855434	0.670791
N	-0.409067	-1.415564	0.518906
O	-0.312628	-1.584188	1.722675
O	-0.744047	-2.26484	-0.298606
N	-0.038459	-0.722164	-2.501783
H	-0.470135	-1.620498	-2.343939
H	0.967682	-0.821078	-2.468969
N	-0.091335	1.557681	-1.889741
O	-0.749653	2.500337	-1.449179
O	0.890783	1.670508	-2.621232
Cl	-3.495553	0.0	0.0
