17

C	0.0	0.0	0.0
C	-0.604591	0.05922	-1.392966
Cl	1.810799	0.0	0.0
H	-1.67813	-0.15594	-1.238582
N	-0.533489	0.93972	0.874655
H	-0.31965	1.887892	0.612977
H	-0.325835	0.720979	1.837149
N	-0.366112	-1.370307	0.626343
O	-0.913532	-2.212481	-0.060483
O	-0.066183	-1.480439	1.810362
N	0.012699	-0.831304	-2.311791
H	-0.610677	-1.01623	-3.083954
H	0.896627	-0.474772	-2.650725
N	-0.595883	1.488041	-1.954186
O	-0.016858	2.404371	-1.368552
O	-1.146448	1.599786	-3.044922
Cl	-3.733972	0.0	0.0
