18
Coordinates from ORCA-job run
  C   0.88835273737476     -0.14731049964165      0.26752755159314
  C   -0.53859891038723      0.39670916209237      0.29405399605950
  F   1.73236548568361      0.97386783073356      0.59816626269399
  H   -0.66354390005931      0.85168416809824      1.28582550035053
  N   1.25287708279744     -0.63002920796306     -1.02406949397366
  H   2.05823450444845     -1.24060570912519     -0.96635934964450
  H   1.48299280899797      0.15158221114368     -1.62359716365362
  N   1.07704969084038     -1.17029604669159      1.23766286953303
  H   0.73960170970463     -0.84605846612773      2.13562044196545
  H   2.06771867165737     -1.36499765030498      1.33491923096684
  C   -1.55736409963562     -0.72383020565027      0.11299288408476
  H   -2.57152815532557     -0.31492017100569      0.10831782405557
  H   -1.48721172799222     -1.46807028045454      0.90659160737958
  H   -1.37928467870753     -1.23107698057183     -0.83691546165827
  C   -0.72989003433999      1.48591726776212     -0.75739414988011
  H   -1.70694712988061      1.95894476230561     -0.63381938184804
  H   0.03462681052003      2.26007782789577     -0.67529134465839
  H   -0.69945086569656      1.05841198750518     -1.76323182336578
