18
Coordinates from ORCA-job run
  C   0.79912445200062     -0.37919936665975      0.31615111233134
  C   -0.61696779716902      0.19258084942275      0.34082791304828
  F   0.75362216032426     -1.55229529208085      1.15310363517039
  H   -0.86025718502311      0.33488174204248      1.40233069164401
  N   1.74362054627265      0.53747951266786      0.85550130396755
  H   2.62522557302542      0.06103390566691      1.01223382263155
  H   1.41217212146420      0.87015555918872      1.75260704873513
  N   1.19598815322448     -0.76853141081105     -0.99725925048223
  H   0.77506429907176     -1.65935943274822     -1.22650667013167
  H   2.20218937585987     -0.86215614701520     -1.05666145992560
  C   -1.61811689750576     -0.79647523727490     -0.24907131016387
  H   -1.53482464483321     -1.77803633969346      0.22012875962671
  H   -2.63740598235995     -0.43322789489304     -0.09818658654801
  H   -1.46535795888008     -0.90099016826719     -1.32663320689096
  C   -0.68085891149494      1.53351822033532     -0.38310744683992
  H   -0.35786976724520      1.40703212437405     -1.41800578881779
  H   -1.70515160559574      1.91636332638545     -0.37895218580722
  H   -0.03119593113623      2.27622604936013      0.08049961845229
