18
Coordinates from ORCA-job run
  C   0.88807557293502     -0.35769872680763     -0.13473732127801
  C   -0.53586667976073      0.10250603502933      0.21714152201712
  F   1.05316324957915     -0.14653083794784     -1.50568389203883
  H   -0.65967211880111     -0.07703133617512      1.29535381446851
  N   1.03916661302680     -1.75275003153098      0.11963845247952
  H   0.54156961168875     -2.04837687121704      0.94703287096012
  H   2.02294317649995     -1.97445822278571      0.20272097865252
  N   1.97741849181449      0.39461416424864      0.45681134288838
  H   1.98093291799753      1.34570909421595      0.10985794617752
  H   1.87584250900834      0.41460553169146      1.46442892103861
  C   -1.58458612647251     -0.70650245652119     -0.54551025816499
  H   -2.59057883159789     -0.39475681348793     -0.25199506993816
  H   -1.48796919642993     -1.77730829851694     -0.36636292981485
  H   -1.47194164821765     -0.54024614817843     -1.61843863824106
  C   -0.71909697677610      1.59511264183401     -0.04502151020155
  H   -0.07842905591906      2.21000310470616      0.59049514983733
  H   -1.75262358680867      1.88826034610977      0.15284418821189
  H   -0.49734792176638      1.82484882533347     -1.08957556705407
