18
Coordinates from ORCA-job run
  C   0.93599102882686     -0.23434020990626     -0.06132465912374
  C   -0.51864269547939      0.18790279352966      0.20125412491018
  F   1.15073028773233     -0.10893372892738     -1.43590295511079
  H   -0.67480127037550      0.09560033805675      1.28623811992565
  N   1.26753079256252     -1.62010618811797      0.20761673489102
  H   0.76268938408188     -2.23367203115594     -0.41979100853543
  H   1.02220901336286     -1.85473640532717      1.16196215546423
  N   1.83917484633610      0.64193744011187      0.60957903233789
  H   1.49284691046351      0.93270396924195      1.51240549682680
  H   2.73795763544279      0.18748863566152      0.70726471684363
  C   -1.50361605770841     -0.73935065744577     -0.50600991346251
  H   -1.30441105439732     -0.75320232698298     -1.57986629191546
  H   -1.45384587409977     -1.76307226224818     -0.12925098857118
  H   -2.52662110217714     -0.38641265147715     -0.35715705875063
  C   -0.75856099895307      1.63903613880708     -0.21419511585461
  H   -0.07829131881959      2.32787179420535      0.28659836478126
  H   -0.60413357263366      1.74653734576378     -1.28941560036904
  H   -1.78520595416500      1.93474800621084      0.01799484571271
