10
Coordinates from ORCA-job run
  C   -0.68812311129341     -0.27932617730631      0.07513069435047
  C   0.68445531390787      0.38726223088370     -0.09264442457705
  Br  -0.50143722702152     -2.07500111236954      0.80558799020919
  H   0.53679877854735      1.41974758494158     -0.42646469452112
  H   -1.17778939608709     -0.39851916932346     -0.89326237147874
  H   1.19865572824471      0.41646438588765      0.87116665360865
  C   -1.53208829524372      0.52210736778727      0.95167142256038
  N   -2.19128622228656      1.20022073356857      1.64859162217100
  C   1.50922718987822     -0.31761264631872     -1.07041986269742
  N   2.16258724135415     -0.87534319775074     -1.86935702962536
