10
Coordinates from ORCA-job run
  C   -0.62690083219429     -0.59116223369872      0.16235616255761
  C   0.56585763865443     -0.17564766525287     -0.70721421071486
  Br  -0.02176145658524     -1.51298514790346      1.76790274181439
  H   1.14351224936410     -1.06601518024813     -0.96786748918429
  H   -1.23489048097014     -1.31440191277881     -0.38489222694059
  H   0.18498915030508      0.26579751807996     -1.63434595447410
  C   -1.45376984043784      0.55148648385540      0.52716672791750
  N   -2.12357452316157      1.48095647672274      0.78728264951770
  C   1.43484980059112      0.78981432054666     -0.03939797032978
  N   2.13168829443436      1.57115734067723      0.49000956983642
