10
Coordinates from ORCA-job run
  C   -0.55338027792451     -0.48736731378711      0.11823797515788
  C   0.52143134648115      0.56587338830306     -0.18512130880734
  Br  -0.04350726332745     -1.57545587942830      1.65093253034938
  H   0.68114218786206      1.19189546583791      0.69622121589479
  H   -0.65960523125707     -1.17967104320660     -0.71910995108479
  H   0.16465035859756      1.21062830525563     -0.99515318520587
  C   -1.83178598750133      0.16098041841869      0.37940080806894
  N   -2.84858356294264      0.71794407664850      0.56877873639361
  C   1.78218770415940     -0.05231153524313     -0.58652951740164
  N   2.78745534458576     -0.55248842518555     -0.92665042480228
