10
Coordinates from ORCA-job run
  C   -0.65664191473876     -0.57076765887488      0.11553642941944
  C   0.59179615510075     -0.17875464582683     -0.68418909345683
  Br  -0.16531995618323     -1.55868633875888      1.72058013712540
  H   0.27322272674714      0.30304838607311     -1.61475947018209
  H   -1.26471871744650     -1.25427459665183     -0.48052355955491
  H   1.14733523294529     -1.08343577472252     -0.94360796565707
  C   -1.45521744825250      0.59401861967022      0.47350139181197
  N   -2.09710678839358      1.54476686036321      0.72673424237682
  C   1.46342203882062      0.73301348025287      0.05209326638668
  N   2.16422867140077      1.47107166847553      0.63563462173059
