10
Coordinates from ORCA-job run
  C   -0.72268868352380     -0.41187042884686     -0.02134429484022
  C   0.77994462532300     -0.31130114083291     -0.31989460833348
  Br  -1.18633055525424     -2.27284618000675      0.32781695609207
  H   1.02644792648187     -0.98224711642614     -1.14643754715702
  H   -1.30520163436231     -0.11434274365030     -0.89506372053677
  H   1.35155354587700     -0.62987172139455      0.55519397699849
  C   -1.10164993837416      0.41133581276436      1.11897988106327
  N   -1.38547292542314      1.08660815788674      2.03746656639675
  C   1.13963522488928      1.05988378629410     -0.67888337782195
  N   1.40476241436649      2.16365157421231     -0.97683383186115
