10
Coordinates from ORCA-job run
  C   -0.70342322958341     -0.44443293804885      0.00499951126531
  C   0.80208324951088     -0.30809240075976     -0.26229303090613
  Br  -1.09688585892007     -2.27499075492102      0.54895143926656
  H   1.10393608605372     -1.05467903162077     -1.00082250002233
  H   -1.27030538463130     -0.27372896271496     -0.91186338618591
  H   1.35869482974692     -0.50004310026099      0.65819263703693
  C   -1.15434630906199      0.48105503865324      1.03547149306296
  N   -1.49609002053383      1.23963514269888      1.86486120226474
  C   1.11381431016023      1.03007451613501     -0.76290735289926
  N   1.34152232725884      2.10520249083921     -1.17459001288288
