10
Coordinates from ORCA-job run
  C   -0.57373066789223     -0.41463005926722      0.23623331992802
  C   0.54961455895844      0.46660329066454     -0.32756885598520
  Br  -0.20740383520044     -0.90549320052965      2.08485486227011
  H   0.27045553608378      0.79230004942304     -1.33510507484944
  H   -0.63857739812543     -1.35366272850868     -0.31677074227829
  H   0.66434420344835      1.35826629957655      0.29362131582334
  C   -1.84948229982235      0.28492063889183      0.15699039510307
  N   -2.86226524472086      0.87239088001345      0.06206179984632
  C   1.81720044316614     -0.25576851406208     -0.39355828697543
  N   2.82884470410460     -0.84592665620179     -0.46175873288251
