10
Coordinates from ORCA-job run
  C   -0.71302904582727     -0.42991592954857     -0.01040423301733
  C   0.79366082564665     -0.31349298624547     -0.28123960061422
  Br  -1.14076250762017     -2.27241666631181      0.46185436724794
  H   1.07587128203220     -1.03485421327955     -1.05182893432676
  H   -1.28113983520237     -0.21075194753652     -0.91618046096210
  H   1.35071052532774     -0.55515816433356      0.62726590485691
  C   -1.13894973217627      0.46215255556558      1.05949107262104
  N   -1.45956537142880      1.19046111566219      1.92371918566841
  C   1.13163370238939      1.03797524208152     -0.72577161095616
  N   1.38157015685888      2.12600099394619     -1.08790569051773
