10
Coordinates from ORCA-job run
  C   -0.67203146873415     -0.55739793433250      0.09362709244437
  C   0.61368603397630     -0.19493215175209     -0.65956462432798
  Br  -0.26166945000494     -1.54328754255851      1.72279767175715
  H   1.16138422672119     -1.11192453179953     -0.89052665912479
  H   -1.26941167705435     -1.23383695097887     -0.52118205886774
  H   0.34073025492265      0.28510667951315     -1.60530751828785
  C   -1.46121210881267      0.62483540032893      0.41324394588185
  N   -2.09248867121230      1.59001135332113      0.63725785405423
  C   1.47380488776277      0.70574338377475      0.10308863887051
  N   2.16620797243551      1.43568229448355      0.70656565760025
