10
Coordinates from ORCA-job run
  C   -0.65957107111402     -0.56766033338770      0.11715923583228
  C   0.60880929189249     -0.19998148190495     -0.66248599061052
  Br  -0.20854020298369     -1.49879491354143      1.76739688573487
  H   1.17216348933802     -1.11183688050109     -0.87592038529239
  H   -1.25004153652671     -1.27310796096900     -0.47099563690793
  H   0.31416308876494      0.24882011080454     -1.61709023507973
  C   -1.46917249462605      0.60649065398572      0.41435692223739
  N   -2.11623963142189      1.56481195606150      0.62206166457929
  C   1.46035348659308      0.73776104175432      0.06460366324049
  N   2.14707558008383      1.49449780769812      0.64091387626625
