14
Coordinates from ORCA-job run
  C   -0.57582982385885     -0.32473075483440     -0.13587888109620
  C   0.57586961524165      0.32471709528289      0.13610070626612
  N   -0.81425067986799     -1.00543908953796     -1.35374867507371
  H   -1.70109633939201     -0.72157057211069     -1.75651775194796
  H   -0.06474491239599     -0.78180144052353     -2.00009641283871
  N   -1.56558523835814     -0.44519689285916      0.88336410079537
  H   -1.94602743174176     -1.38469721063975      0.86649184942488
  H   -2.32943046131533      0.20536369083566      0.73643425460610
  N   1.56552866455224      0.44529803726143     -0.88310892968317
  H   1.94505738131637      1.38516093004151     -0.86814610139960
  H   2.32994592128707     -0.20451212690642     -0.73602521294021
  N   0.81424904625855      1.00511303454590      1.35407584598470
  H   0.06487616145102      0.78121957301217      2.00047488756502
  H   1.70143809682318      0.72207572643233      1.75658032033737
