14
Coordinates from ORCA-job run
  C   0.63926454772210      0.14327762351395      0.16242439870444
  C   -0.63926457782272     -0.14327671859805     -0.16242674251932
  N   1.05784813421293      0.43391774679657      1.48286211986786
  H   0.23454818977096      0.53941244701022      2.06643499148996
  H   1.60000392107575      1.29104394841732      1.50820301695988
  N   1.65263800543272      0.03688029211294     -0.83476173639270
  H   2.47179811045657     -0.40219808383286     -0.43000881033692
  H   1.92549268317648      0.94877206450277     -1.18440959228064
  N   -1.05784309067718     -0.43394121411573     -1.48286040425162
  H   -1.60000259646263     -1.29106622612644     -1.50818614702860
  H   -0.23454078234474     -0.53945297089984     -2.06642688266096
  N   -1.65264147448051     -0.03685424446251      0.83475241383676
  H   -2.47179634788344      0.40222450158510      0.42999072464252
  H   -1.92550472217631     -0.94873916590345      1.18441264996934
