14
Coordinates from ORCA-job run
  C   0.55608223319895      0.32529427500354      0.11562082735449
  C   -0.63535422747889     -0.25893070308297     -0.15623197480766
  N   0.59531598654719      1.75811389174759      0.15626163860139
  H   1.38096264357790      2.07775162035269     -0.40013849847217
  H   0.76983570686203      2.07653989512157      1.10395299098710
  N   1.77120326388518     -0.40297554819751      0.31786920734492
  H   1.96241597197887     -1.08129023075918     -0.40610226165835
  H   1.85561251434855     -0.83820799373994      1.22811536619673
  N   -1.82224952240679      0.46470893492753     -0.31986180226045
  H   -2.31130298165049      0.17347192247746     -1.15727270039901
  H   -1.59474292540838      1.45107135558804     -0.35253426641033
  N   -0.81922326682310     -1.64097545640425     -0.31184262126910
  H   -0.03421513177781     -2.16529153085609      0.04475622908883
  H   -1.67534026485321     -1.93828043217848      0.13740786570362
