14
Coordinates from ORCA-job run
  C   0.61852308209286      0.24647104554924      0.22844509831096
  C   -0.60922461958647     -0.20800352381876     -0.12134400171459
  N   1.00885380519742      0.44947582304533      1.55617140780812
  H   1.44263471114269      1.35625613203895      1.67479818176078
  H   0.19558225368497      0.34747399345777      2.15069559093068
  N   1.63166201169357      0.56541691391029     -0.68631127859202
  H   1.42501052061878      0.22468413610964     -1.61301124871610
  H   2.52722731828190      0.21979919774097     -0.36784868341558
  N   -1.57522602911673     -0.37160379203645      0.92734532926911
  H   -2.42304675954617      0.12498942229400      0.67350488942902
  H   -1.83650198823282     -1.34977601950623      0.99958312295458
  N   -0.98741452323167     -0.52811023947805     -1.46550609017965
  H   -0.50128850737693     -1.32814191384459     -1.85045810014828
  H   -0.91779127562139      0.25106882453789     -2.10606421769704
