14
Coordinates from ORCA-job run
  C   -0.60650602128235     -0.27624772839068     -0.11979955929680
  C   0.63365669375625      0.18602887570349      0.15007703424195
  N   -0.92561466946703     -0.99355398205692     -1.29627015681561
  H   -1.70099433117119     -0.57249046924137     -1.79503657807456
  H   -0.10651395929613     -1.01587018699427     -1.89304970871543
  N   -1.61119958872615     -0.21101512973802      0.89471533540773
  H   -2.30222935954315      0.49939967165721      0.67925609997297
  H   -2.08950606768569     -1.10470529899540      0.92751964060566
  N   1.62647350962197      0.16046927519337     -0.87781888401134
  H   1.82499818714276      1.09537949726975     -1.21717388568871
  H   2.48368006977423     -0.21163280361908     -0.48377036577653
  N   1.06473310755281      0.52932165939163      1.45267776760878
  H   1.43141468700828      1.47343403075890      1.49107015297322
  H   0.27860774231538      0.44148258906138      2.08660310756867
