14
Coordinates from ORCA-job run
  C   -0.59841619088926     -0.22403832667793     -0.22432105982631
  C   0.63034380131208      0.20941769808868      0.13177054908298
  N   -1.56613233253795      0.72262222237773     -0.68286371215284
  H   -2.29418089513209      0.86483916829628      0.00876404998280
  H   -2.00465988210140      0.35085953107007     -1.51834132342181
  N   -0.93088245013166     -1.59353594675207     -0.34424630558362
  H   -0.13458649474877     -2.14630855921275     -0.04772928174359
  H   -1.74158807952964     -1.83423914366106      0.21440884717158
  N   1.09516317621179      1.51892857620380     -0.13199362742285
  H   0.33784681807066      2.05402716579059     -0.54151771209860
  H   1.42274642993910      1.97861486196365      0.70982249158003
  N   1.58401310288435     -0.73088839338257      0.63101868029868
  H   2.47039032214168     -0.56220522535259      0.16796445110480
  H   1.72994267451112     -0.60909362875185      1.62726395302877
