14
Coordinates from ORCA-job run
  C   0.51515323152374      0.15184195589236      0.17795093725528
  C   -0.71864119452697     -0.21341783055964     -0.24776593336249
  N   1.59452210252906      0.12713161275733     -0.76623909319416
  H   2.29298116790445     -0.56399959591659     -0.51381248491685
  H   2.05975411460376      1.02730287757396     -0.81312383675751
  N   0.67227687268571      0.54385988593121      1.54872302323050
  H   0.93472428309925      1.52066545413522      1.62736020125117
  H   1.39422321888539     -0.00335060389535      2.00510823501608
  N   -1.86201091710160     -0.10330690825984      0.54503664155593
  H   -1.59010844020576      0.11266420079798      1.49544103549379
  H   -2.42328893148479     -0.94341526837798      0.49722413900688
  N   -0.96336777706675     -0.73367935770829     -1.51960822547675
  H   -0.13450802599228     -0.62429707432457     -2.08966717979705
  H   -1.77070970485323     -0.29699934804578     -1.94462745930483
