14
Coordinates from ORCA-job run
  C   0.49720193466209      0.21316391369970      0.16614886260273
  C   -0.69355489395649     -0.29811277112687     -0.23118604915458
  N   0.60714950472422      0.71769571989122      1.50418856530417
  H   0.93758018557960      1.67672836520809      1.50750022669641
  H   1.25847652839481      0.16906389253143      2.05553848806843
  N   1.58007925487744      0.22223669147685     -0.77423728857807
  H   2.39721567624981     -0.24478738493224     -0.39592076468795
  H   1.85450924325435      1.16859842355905     -1.01564083994590
  N   -0.95280811116760     -0.69544877295892     -1.54378177639031
  H   -1.41255349452004     -1.59602214537530     -1.57003032481209
  H   -0.08728729956424     -0.70063176523195     -2.06789193363659
  N   -1.77368303534381     -0.47573891908229      0.63441920148506
  H   -1.57771188891032     -0.01289341542574      1.51257803189812
  H   -2.63461360427980     -0.14485183223303      0.21931560115059
