14
Coordinates from ORCA-job run
  C   -0.65806035125730     -0.36454063691197     -0.22436140266812
  C   0.50120900770728      0.25576293874655      0.11424483739271
  N   -1.68720236768714      0.30448062681099     -0.88678328254722
  H   -1.54456493551342      1.30224864207845     -0.80736525782494
  H   -2.61070977184558      0.02343327366424     -0.58951798444874
  N   -0.82236139621102     -1.74412928386138     -0.09341635262971
  H   -1.74850582726386     -2.01349169616890      0.20708661504398
  H   -0.10156415533011     -2.10947367971923      0.51446901420977
  N   0.63012767439308      1.65289155714380     -0.18190182818090
  H   0.92664085730553      2.17384074300359      0.63569547858619
  H   1.31263307627952      1.81943275601755     -0.91473369450314
  N   1.55694981357430     -0.54107919259666      0.66762971426047
  H   1.90474598057887     -0.13833835699624      1.53050557190620
  H   2.34166239526983     -0.62003769121078      0.02844857140347
