14
Coordinates from ORCA-job run
  C   0.54460425570770      0.21770254272751      0.28669378358966
  C   -0.63389627169609     -0.20670832556168     -0.22818572447425
  N   0.58368912119674      0.52932354743994      1.68478879404217
  H   1.12551663671576     -0.16410731459806      2.18988796826032
  H   1.06138233393413      1.41571359536477      1.80549098230941
  N   1.71593809624030      0.45015647281117     -0.49796961433098
  H   2.27970936614729     -0.37145808615445     -0.67820280117396
  H   1.53412173434085      0.94308804497566     -1.36055827743189
  N   -1.77911649006434     -0.41161878310866      0.55256414086982
  H   -1.60305129398953     -0.04216006495713      1.47940519908071
  H   -2.58541097699799      0.03426651485178      0.13160372778879
  N   -0.84762015580847     -0.48434837864808     -1.58815244887467
  H   0.02299958992963     -0.59704055991860     -2.08653482682025
  H   -1.41886594565597     -1.31280920522419     -1.69283090283489
