14
Coordinates from ORCA-job run
  C   0.47551919697329      0.27983138724663      0.15886838699555
  C   -0.61884921288271     -0.44389243715411     -0.18999947042796
  N   0.52616763535985      0.83154661685043      1.48147196876863
  H   1.23325734957337      0.37638756043870      2.05025496977920
  H   0.74500816001843      1.82110297813766      1.45615608481148
  N   1.55132764200043      0.37359539748847     -0.78444461478811
  H   1.82300497318422      1.33871765886005     -0.93439051154440
  H   2.37356171073534     -0.12989943185026     -0.46662533147828
  N   -1.65412174787874     -0.69719679631595      0.71021987623249
  H   -1.58344985395677     -0.05779384055642      1.49029758086830
  H   -2.57085530132390     -0.68400788974123      0.28610525579407
  N   -0.69656709413030     -1.12559948353200     -1.40476284400558
  H   -1.61735036912698     -1.10920223141671     -1.81985130262687
  H   0.01334691145448     -0.77258948845524     -2.03230004837855
