14
Coordinates from ORCA-job run
  C   0.56413565959868      0.33948452358874      0.14903562776772
  C   -0.56413963634315     -0.33912194873739     -0.14930437344350
  N   1.57399655922611     -0.17039418113511      0.99986688801461
  H   2.48530459882811     -0.09826914989841      0.55984732565366
  H   1.37036567942160     -1.14552766860198      1.19277942463788
  N   0.71191425304759      1.68206559877294     -0.30711343414929
  H   1.11275598102635      2.24270876180010      0.43627313292216
  H   1.33048275642969      1.73505923789918     -1.10885948977389
  N   -0.71152203664819     -1.68172622723798      0.30686087995831
  H   -1.33078962458995     -1.73491539490835      1.10804258945828
  H   -1.11094548211929     -2.24324815258623     -0.43659488514075
  N   -1.57419790422395      0.17086465010833     -0.99980386164731
  H   -1.37093779844036      1.14613052709889     -1.19248226564623
  H   -2.48542300521324      0.09888942383727     -0.55954755861164
