14
Coordinates from ORCA-job run
  C   -0.62455436522239     -0.27734435468783     -0.17228077318361
  C   0.60594151997033      0.17217423664325      0.17105472833767
  N   -1.60283551912828      0.50470553910943     -0.80742977838755
  H   -1.39765093224654      1.49038492525878     -0.73376867204412
  H   -2.51659123632052      0.30876551513320     -0.41973416655813
  N   -1.05379706678502     -1.58904445696971      0.06993335813765
  H   -1.47001461700056     -1.98958895733212     -0.76227056758722
  H   -0.25580629761532     -2.13408974733373      0.37453654137982
  N   1.06670625960139      1.49945877339299     -0.08826279763117
  H   0.83453671296695      1.83633080836622     -1.01163533061643
  H   0.80873830442264      2.18652356667908      0.60934743597381
  N   1.51965554682479     -0.77010532866973      0.74622788359207
  H   1.66378100781702     -0.57203751294113      1.73090242911808
  H   2.42089068271552     -0.66413300664870      0.29337970946913
