14
Coordinates from ORCA-job run
  C   -0.59771989370301     -0.28749510138355     -0.23853063685680
  C   0.59259042185695      0.22979596542755      0.14830649590163
  N   -0.83272387372660     -0.78242362591609     -1.52821500677604
  H   -1.27094995147759     -1.69487209256787     -1.48782918991508
  H   0.05287674304146     -0.82687649006598     -2.01850198366830
  N   -1.72234175938741     -0.39270418895997      0.59585910205736
  H   -1.63774144799706      0.19625772957862      1.41137086990327
  H   -2.56355976963685     -0.16064580838351      0.08384842514188
  N   1.66814162479340      0.19910785872584     -0.79817503696924
  H   2.50228313625271     -0.13613997833073     -0.32876590769420
  H   1.87760938892979      1.13455451351049     -1.13081606388017
  N   0.85515351600509      0.71828140148564      1.46500195054383
  H   0.57868423654001      1.67849045391759      1.62880608815035
  H   0.49669762850909      0.12266936296196      2.19764089406152
