14
Coordinates from ORCA-job run
  C   -0.68724462440173     -0.32523853790764     -0.21234693661868
  C   0.49236149964915      0.23427330666677      0.15171724853409
  N   -0.84099535497595     -1.09863144483798     -1.36395139382697
  H   -1.67239283081324     -0.83339661482429     -1.87530180095473
  H   -0.00865993601770     -1.01821688632029     -1.93364990591378
  N   -1.86050614325888     -0.18143977679811      0.52945734498297
  H   -2.33783055153020     -1.06676953889411      0.63581920948932
  H   -1.64152969875621      0.23700405671678      1.42424512961147
  N   0.56854825214746      0.89024394247512      1.42492917352541
  H   0.73689630240048      1.88522135199234      1.32057124938852
  H   1.32333853764016      0.51118692859204      1.98671623522056
  N   1.59889693286794      0.13651452972675     -0.75562640935742
  H   1.98002527343741      1.05240224584479     -0.96743417785099
  H   2.35009234161132     -0.42315356243216     -0.36614496622977
