14
Coordinates from ORCA-job run
  C   -0.70518419542141     -0.24437128793454     -0.25737643621339
  C   0.50574208134543      0.17415691202275      0.18484430298694
  N   -1.79954266927872     -0.43892894992710      0.58643391256386
  H   -2.63976627152406     -0.03257473091468      0.19674177769997
  H   -1.58856546727800     -0.06054237170435      1.50076570344871
  N   -0.97309996672366     -0.52068187645483     -1.59895965211685
  H   -1.47583606507781     -1.39248053232071     -1.70032361379292
  H   -0.10488743565503     -0.52579812057056     -2.11856187107635
  N   1.59485290446207      0.20733810686707     -0.74788664965262
  H   2.38567069798022     -0.32792032866210     -0.40572106855224
  H   1.91637618007412      1.15584680831774     -0.90966569018848
  N   0.62932244505434      0.56289467182835      1.55990100050581
  H   1.25112764304053     -0.05800640059318      2.06690367195637
  H   1.00379011900199      1.50206810004617      1.64190461243119
