14
Coordinates from ORCA-job run
  C   0.72548495293457      0.07391545575544      0.29107509096244
  C   -0.52887150919634     -0.10595713811189     -0.19610495924710
  N   1.86020623618657     -0.23777494090984     -0.45842497145403
  H   2.62479931362242      0.40827696146686     -0.32257355540206
  H   1.60319792797103     -0.32815874517879     -1.43217789306764
  N   0.95827389781042      0.40871034459987      1.62535004971638
  H   0.10078180778320      0.74909553892825      2.03918079923219
  H   1.72667719850846      1.05194982496355      1.75276284815672
  N   -1.63462978308246      0.10946750160044      0.69086048349400
  H   -2.31677261080300      0.73625480112358      0.27907340211552
  H   -2.11174540524354     -0.75858014428960      0.91314828703647
  N   -0.66836604526004     -0.58317840349085     -1.54105712470517
  H   -1.03758929937555     -1.52847588239589     -1.56688921357211
  H   -1.29844668185575      0.00545482593885     -2.07422324326563
