14
Coordinates from ORCA-job run
  C   -0.50183894173239     -0.22184530436666     -0.16915481930855
  C   0.65569267440625      0.37091395262661      0.22051305778900
  N   -1.50283633353451     -0.46789308100553      0.82749245691470
  H   -1.81576890969595     -1.43179906543372      0.80100141860704
  H   -2.31802305995278      0.12219832852285      0.69399042719287
  N   -0.68723166575901     -0.48692406005817     -1.56607518275097
  H   -1.41135852571178      0.10132003299350     -1.96630286580860
  H   -0.95634572586222     -1.45173304430034     -1.72248854297802
  N   1.62856612513181      0.76568584891272     -0.69830701582016
  H   1.45943163977191      0.30536772186901     -1.58257232842650
  H   2.57409787883789      0.62888335400253     -0.37014012635029
  N   0.86718753274404      0.78355345266952      1.53638520419559
  H   0.19151833209896      0.33491025122441      2.14020291002574
  H   1.81590897925777      0.64736161234326      1.85545540671815
