14
Coordinates from ORCA-job run
  C   0.61677940718823      0.17159423822663      0.22183593202923
  C   -0.64674867152941     -0.15490690553842     -0.12691840152556
  N   1.06506361274328      1.50794150821539      0.34088981840284
  H   1.88702858085426      1.68075238568080     -0.22632800603920
  H   0.31502173124160      2.12640598828347      0.05375925712192
  N   1.50294484007864     -0.85514928114842      0.67240070408369
  H   1.97743052494739     -0.52464632675963      1.50551793494826
  H   2.21185786258365     -1.05742807774516     -0.02406703106225
  N   -1.51962080952330      0.86383333977582     -0.62016749937283
  H   -2.41869131011151      0.76276220324982     -0.16219027454264
  H   -1.66935864419939      0.76510297468096     -1.61828841986188
  N   -1.22158810550777     -1.41918486410601      0.13896425147078
  H   -0.51232255094168     -2.01727311500563      0.54741832631439
  H   -1.58879646782400     -1.84980406780962     -0.70182659196675
