14
Coordinates from ORCA-job run
  C   0.71486487277238      0.29080708006930      0.16746242719527
  C   -0.51166913574879     -0.20854776328836     -0.12106136452619
  N   1.65684756352920     -0.39665667035607      0.93417711971138
  H   2.57295770951852     -0.36180296733254      0.50685570235251
  H   1.34375908516412     -1.34883224608358      1.07244382080325
  N   1.15277785543313      1.53963268150508     -0.27628403672600
  H   1.59779900190333      2.05777325357504      0.46973818507216
  H   0.37047696128488      2.04636457161672     -0.67011637379748
  N   -0.80510131522286     -1.55679094960257      0.26997455688072
  H   -1.53752291324662     -1.58936446742060      0.97112926835200
  H   -1.11711646549998     -2.10793789628343     -0.52232327873895
  N   -1.44866530933503      0.64078428810144     -0.79779311832205
  H   -2.31958505564991      0.70781170581162     -0.28217321892552
  H   -1.66882285490237      0.28775937968795     -1.72302968933110
