14
Coordinates from ORCA-job run
  C   0.56910875871700      0.24662488303549      0.27259403750106
  C   -0.60860879439193     -0.24155453693594     -0.17287810792304
  N   0.72170267063749      0.53781434503736      1.65161600250145
  H   1.66104642305105      0.84819290519605      1.85013164824745
  H   0.45648642002822     -0.24968801667063      2.23062530325005
  N   1.66115435915065      0.63849651958487     -0.54789789111827
  H   2.38797547535341     -0.06647347431943     -0.60085504334175
  H   1.35901828994670      0.87878431984107     -1.48097897728386
  N   -0.85272219210894     -0.73510091430145     -1.48292123846348
  H   -1.32143047747099     -0.06096639549842     -2.07783205006745
  H   -0.00113189196195     -1.04183590783372     -1.93055362432929
  N   -1.67485960564551     -0.42282159690485      0.74377649081822
  H   -2.50315341532905     -0.74946211600620      0.26907142588557
  H   -1.85558601997615      0.41898998577579      1.27710202432335
