14
Coordinates from ORCA-job run
  C   -0.63958721821196     -0.07258680358846     -0.21090652502472
  C   0.59649114152129      0.09636313080998      0.30615329566369
  N   -0.93614537232754     -0.27802516836761     -1.58539276180870
  H   -1.10309225093364     -1.25212661416248     -1.81192017128758
  H   -0.20687536046026      0.08445866242489     -2.18241596607635
  N   -1.77058750599701      0.09856008771772      0.62661155774429
  H   -2.62195401243400     -0.10260969026674      0.12380351701396
  H   -1.69520939428489     -0.45318701422241      1.47256790427675
  N   0.73346903178167      0.47067595146411      1.66667602014024
  H   0.17607483852635      1.28711353699609      1.88687826844370
  H   1.70465993573924      0.60591588718573      1.90459981644897
  N   1.81555234206141     -0.20440030847225     -0.35927418854114
  H   2.26309316343256      0.61575069594786     -0.75312658632273
  H   1.68411066158679     -0.89490235346643     -1.08425418067036
