14
Coordinates from ORCA-job run
  C   0.58372588985796      0.27389500096820      0.20700289519355
  C   -0.58385219207573     -0.27298235106942     -0.20724804982659
  N   0.89930980376125      0.57118865185084      1.55400629886329
  H   0.23316873852334      0.18783184023515      2.20719141517939
  H   1.03952584821532      1.56140581325948      1.71025451588935
  N   1.65542780053071      0.62553636967584     -0.64769698131339
  H   2.49444392540176      0.09249252067681     -0.45640504139133
  H   1.40865006586308      0.58206912496426     -1.62473881090637
  N   -1.79889535748802     -0.21922909277494      0.51628021465270
  H   -1.75908449336371      0.40958422993859      1.30394028970184
  H   -2.12520030182270     -1.13628347561888      0.79415238051777
  N   -0.75560734709035     -0.97704834640586     -1.42264134775391
  H   0.11707082359530     -1.17784178667372     -1.88683009588876
  H   -1.40768320390820     -0.51961849902635     -2.04726768291755
