14
Coordinates from ORCA-job run
  C   0.57475101980956      0.29323819863963      0.20558633389245
  C   -0.57441007486756     -0.29338227838528     -0.20660565408206
  N   0.96781564259798      1.61217531142126     -0.12386091070972
  H   0.38700470954118      2.02807404113851     -0.83600005893986
  H   1.03744037257653      2.21082894178911      0.68946892433061
  N   1.54588909892994     -0.32901201889067      1.02538411006704
  H   2.43802945462567     -0.43447830156765      0.55894023216553
  H   1.22943230523616     -1.20444671708913      1.41373899901420
  N   -1.73098284963465      0.40806598809328     -0.62215051672436
  H   -1.68048843107884      1.39708283180427     -0.43072156564343
  H   -1.96462636422763      0.23229699903868     -1.59123342210192
  N   -0.78280318837153     -1.69118793206052     -0.27975866330380
  H   -1.51264489004818     -2.00789131634665      0.34615724120291
  H   0.06559319491138     -2.22136374758484     -0.15094504916760
