14
Coordinates from ORCA-job run
  C   0.59228343036877      0.29451236101109      0.15889078969476
  C   -0.63061815402418     -0.17888829280895     -0.16150055797340
  N   0.93869921877455      0.72666061773628      1.46107251736435
  H   0.15591194106931      0.55476479991280      2.08084032287982
  H   1.76524765569833      0.25385403271260      1.80734252449786
  N   1.53814112853950      0.55468540805985     -0.87728614937917
  H   2.03427980580820      1.40891438964519     -0.65449692493963
  H   2.21409486124042     -0.19506536160164     -0.96745076252812
  N   -1.55335230535515     -0.50660245620005      0.88145492497700
  H   -1.64513941488212     -1.51021603850821      0.98881281590615
  H   -2.46372726710798     -0.13573871903008      0.63373370113639
  N   -1.13198240528997     -0.21684864899618     -1.48720048851604
  H   -0.40547619911399      0.10809208572189     -2.11584384387468
  H   -1.40836229572569     -1.15712417765460     -1.74836886924530
