14
Coordinates from ORCA-job run
  C   -0.59822527187577     -0.13436861022410     -0.28759651698220
  C   0.57413187561867      0.23106784357975      0.27529052728606
  N   -1.82459085627873     -0.14555693092357      0.41779164261142
  H   -2.28068562644088     -1.04924664888880      0.36562356894121
  H   -1.64071675913219      0.08747825264278      1.38711288616805
  N   -0.65832052131521     -0.34309487577141     -1.70033985558783
  H   -1.48391501792282      0.12594569997112     -2.05656060088623
  H   -0.74714453232567     -1.32922418315552     -1.91997484159460
  N   1.69883908986841      0.64043161415119     -0.47788864673864
  H   2.52380304187817      0.09846158689280     -0.24780457913128
  H   1.48342483455756      0.53348938262496     -1.46265349366412
  N   0.64683961320400      0.39573359736814      1.69279746807815
  H   1.15827630189566     -0.36595158860521      2.12469082699400
  H   1.14828382826881      1.25483486033786      1.88951161450601
