14
Coordinates from ORCA-job run
  C   0.60753029151543      0.32740827408633      0.21800577604534
  C   -0.48970346084844     -0.34094934232731     -0.20417087022064
  N   1.48670202678875     -0.19495705862842      1.18561629232152
  H   2.43984436401862     -0.17168082173579      0.84008073879896
  H   1.21002852065790     -1.15060309622051      1.37820717726747
  N   1.02946755399486      1.59690560219653     -0.22883849649635
  H   0.31438659058691      2.09568992965606     -0.73712868847042
  H   1.32208085041422      2.15015602383039      0.56744038928767
  N   -0.72619160705920     -1.64565917554967      0.32586412476037
  H   -0.95192362246426     -2.27536244940108     -0.43631857027303
  H   -1.51099102764024     -1.64779782059920      0.96842036875507
  N   -1.38182809989095      0.08370106356487     -1.23431325181413
  H   -1.04507705028603      0.87002671684171     -1.77139580021645
  H   -2.30432532978756      0.30112215428607     -0.87146918974538
