14
Coordinates from ORCA-job run
  C   0.55237895504639      0.33293138372843      0.20632254094782
  C   -0.58877662168875     -0.31363010319442     -0.11677938319980
  N   1.58243328061680     -0.25387799202914      0.97768739182058
  H   2.47871678204956     -0.20631539992419      0.50686962899801
  H   1.34063205701097     -1.22207742833202      1.15575542225454
  N   0.66552430721412      1.72973709246611     -0.07446242560517
  H   1.30304391483733      1.89778573795435     -0.84509565638642
  H   1.04665686976863      2.19015238821278      0.74484683051722
  N   -0.68589543927506     -1.71900065036234      0.12450217267093
  H   -0.65807013697953     -2.24230539534246     -0.74378767677693
  H   -1.57919927993261     -1.90593151341861      0.56674513258442
  N   -1.77026458864608      0.35403603388895     -0.51510306474020
  H   -1.57292581883293      1.34597408740105     -0.58367328804360
  H   -2.11425428118886      0.01152175895150     -1.40482762504142
