14
Coordinates from ORCA-job run
  C   -0.69873425870903     -0.21185558025897     -0.28806991845437
  C   0.50192285934740      0.20391905535084      0.19019842785301
  N   -0.85078356441658     -0.68204904149812     -1.59273238825305
  H   -1.50414850019201     -1.44827084903631     -1.67314105432138
  H   0.05739743213409     -0.91119010146670     -1.97364833678227
  N   -1.88196040060994     -0.02928858414102      0.42828751699474
  H   -1.66030408557587      0.17569873479658      1.39329738891042
  H   -2.53120730000992     -0.79805822151499      0.33932164470749
  N   0.53914763861399      0.80049799038333      1.49347123876628
  H   0.75081252527054      1.79221312153545      1.44621272146891
  H   1.24551437669381      0.36439306592976      2.07528810036703
  N   1.64358102446445      0.10121148301532     -0.67126988307093
  H   1.97875660602770      1.01492427605852     -0.95990829917348
  H   2.41000564696136     -0.37314534915368     -0.20730715901241
