14
Coordinates from ORCA-job run
  C   0.55436978691848      0.29310709355159      0.25392476258128
  C   -0.59281342241321     -0.27309341216215     -0.17750492811867
  N   1.77946906810897      0.34645084686389     -0.46762247566891
  H   1.89701931745281      1.21756521949024     -0.97214858673734
  H   1.86165410547278     -0.42440371618582     -1.11475508560710
  N   0.58632309099026      0.93684137448576      1.52019683707293
  H   1.55184720047424      1.06001705142363      1.79458765308216
  H   0.12123328664095      0.36181965004158      2.21565783319654
  N   -1.71160342728582     -0.34444511578330      0.69565577415795
  H   -2.53664577940579     -0.54458136324152      0.14618026107680
  H   -1.84303262362082      0.54466275452753      1.16772084784351
  N   -0.80167291114759     -0.86132435548579     -1.45616326457070
  H   -0.20213043961488     -0.44833127275965     -2.15599053817224
  H   -0.66301725257039     -1.86528475476599     -1.45073909013620
