14
Coordinates from ORCA-job run
  C   0.61593604027422      0.21337398026163      0.18343003539973
  C   -0.64431095719072     -0.18743998408207     -0.09177823305008
  N   1.02004192855891      1.56829716168871      0.15691792413318
  H   0.24303247999019      2.13070665423938     -0.17081731056073
  H   1.82317798530570      1.70960580393590     -0.44487374334074
  N   1.55061984840167     -0.73422525322185      0.70421700439587
  H   2.03760624018462     -0.30694492252213      1.48443480696821
  H   2.24495923301075     -0.98272071388284      0.00799897300307
  N   -1.16413727214731     -1.43848659301049      0.31480511875694
  H   -1.54305762687089     -1.96040994526142     -0.46704987481531
  H   -0.41996928126438     -1.97009959305078      0.75203367554054
  N   -1.56631539094949      0.74907711170984     -0.65407102352075
  H   -2.44241741992118      0.67615517073006     -0.14829983512376
  H   -1.75616580738210      0.53411112246606     -1.62694751778618
