14
Coordinates from ORCA-job run
  C   0.60233794886380      0.30822804632332      0.21535695260495
  C   -0.54379731282427     -0.27995327129950     -0.19406781339197
  N   1.84838742111704      0.15162593974992     -0.43682482720117
  H   2.17508845782482      0.98497155883664     -0.90841539904674
  H   1.91249891714188     -0.66687444827581     -1.02123404150170
  N   0.69654292027169      1.15432233021218      1.34534647806213
  H   -0.17928562224595      1.55761321311114      1.63823314930811
  H   1.21296936500455      0.75684634447130      2.11914395165394
  N   -1.75369203056226     -0.28400760034223      0.54808501126236
  H   -1.57162611892590     -0.07309486799401      1.52073491614841
  H   -2.16104640866292     -1.21227854472187      0.50120569430008
  N   -0.69536322694935     -0.97374763761412     -1.42311818566949
  H   0.03971987298143     -0.71429252039908     -2.06804597475870
  H   -1.58273418303455     -0.70935854205788     -1.83839991177021
