14
Coordinates from ORCA-job run
  C   -0.62074809128959     -0.31805009497194     -0.21549817878553
  C   0.47822196000513      0.35405608164270      0.20105601151582
  N   -0.64469353403590     -1.13400856747762     -1.37230223818349
  H   -0.79034070736079     -0.66965840506693     -2.25468992420333
  H   0.06962560829484     -1.84092072973483     -1.42102378096008
  N   -1.86760911216463     -0.22262338918216      0.45017590971356
  H   -1.82434355007046      0.39150786368870      1.25158735715461
  H   -2.23261259857958     -1.13206572351774      0.70206373690853
  N   0.48589105043901      1.04243772882452      1.44316682190980
  H   0.27955540396856      0.41310830892305      2.20831647853753
  H   1.37849648282748      1.48008590989355      1.61618048145793
  N   1.70598235386873      0.37785377506900     -0.51322790257594
  H   2.00484301367742      1.33269620870120     -0.68511690473368
  H   1.57873172041977     -0.07541896679152     -1.40868786775573
