14
Coordinates from ORCA-job run
  C   0.54012593826388      0.20605146496460      0.30412583470511
  C   -0.62719973929218     -0.21075106305401     -0.24126924309529
  N   0.48605051246986      0.82373792127257      1.59562889935234
  H   0.68098929083662      1.81699643256048      1.52500998017809
  H   1.21521299558381      0.42474604291523      2.17661385694240
  N   1.81896835828404     -0.01244817236008     -0.29556360261380
  H   2.08706005674741      0.67400343733233     -0.99019217657596
  H   1.93794705199610     -0.94479608991849     -0.66549792453488
  N   -1.87186802577974     -0.00521487782562      0.36893304859343
  H   -1.71282504338905      0.33912105008688      1.30851304654100
  H   -2.40982253666982     -0.86348722971683      0.38407039416878
  N   -0.72979340885877     -0.89261137513607     -1.46483828271624
  H   0.11110102013945     -0.79778138378426     -2.01538440113446
  H   -1.52794647033162     -0.55656615733674     -1.98814942981054
