14

C	-0.528937	0.100578	-1.424084
C	0.0	0.0	0.0
Br	-0.438536	-1.672732	-2.298084
H	1.093848	0.0	0.0
H	-1.599026	0.328856	-1.421954
H	-0.365632	-0.911829	0.484033
C	0.253786	1.109806	-2.238874
H	-0.113999	1.180863	-3.266127
H	1.312475	0.840677	-2.229595
H	0.145708	2.081954	-1.750163
N	-0.42421	1.224517	0.709688
H	0.405376	1.609536	1.149337
H	-1.082147	0.998753	1.445107
H	3.069057	0.0	0.0
