14

C	-0.560108	-0.029394	-1.406441
C	0.0	0.0	0.0
Br	-0.095603	1.630393	-2.378913
H	1.09943	0.0	0.0
H	-0.039606	-0.805457	-1.970893
H	-0.322749	-0.945951	0.460697
C	-2.067299	-0.195499	-1.468917
H	-2.544846	0.60837	-0.909948
H	-2.436024	-0.196861	-2.49749
H	-2.336295	-1.147782	-0.997599
N	-0.584385	1.104649	0.785048
H	-0.10112	1.944308	0.476572
H	-0.266095	0.966083	1.739282
H	3.100444	0.0	0.0
