14

C	-0.391971	-0.006022	-1.45492
C	0.0	0.0	0.0
Br	-2.383495	0.107627	-1.663098
H	1.099231	0.0	0.0
H	-0.045108	0.916194	-1.924305
H	-0.338553	0.930036	0.475944
C	0.12385	-1.219754	-2.188761
H	-0.123199	-1.190161	-3.252757
H	1.21215	-1.224079	-2.056352
H	-0.282574	-2.123247	-1.73808
N	-0.439106	-1.208568	0.695912
H	0.31098	-1.498547	1.309907
H	-1.257255	-1.024175	1.257134
H	2.989683	0.0	0.0
