14

C	-0.304987	-0.025533	-1.482733
C	0.0	0.0	0.0
Br	-2.284339	-0.027094	-1.839249
H	1.097191	0.0	0.0
H	0.021894	0.915387	-1.930428
H	-0.372381	0.926399	0.447554
C	0.333098	-1.198959	-2.191022
H	1.405439	-1.151981	-1.958399
H	0.179385	-1.156094	-3.271632
H	-0.066063	-2.144865	-1.820525
N	-0.444241	-1.153243	0.772883
H	-1.331163	-1.500195	0.4273
H	0.249805	-1.884996	0.68951
H	2.99295	0.0	0.0
