18

C	-0.66583	0.021692	-1.380322
C	0.0	0.0	0.0
Cl	-0.095621	1.481619	-2.233732
H	1.091252	0.0	0.0
N	-0.194549	-1.137726	-2.260359
O	-1.063968	-1.785314	-2.842732
O	1.009128	-1.308865	-2.355569
C	-2.173689	0.051075	-1.317874
H	-2.60382	0.163342	-2.311552
H	-2.455562	0.902014	-0.697512
H	-2.545712	-0.877703	-0.88269
N	-0.425288	-1.236353	0.710232
O	-0.49513	-2.278874	0.053172
O	-0.646162	-1.180243	1.924357
N	-0.369915	1.181063	0.742142
H	-0.969141	0.923188	1.518707
H	0.494942	1.54458	1.130584
F	2.496511	0.0	0.0
