18

C	-0.335564	-0.062775	-1.504541
C	0.0	0.0	0.0
Cl	-2.065124	-0.427379	-1.812937
H	1.089031	0.0	0.0
N	-0.081772	1.368657	-1.99744
O	-1.008307	2.176404	-1.988052
O	1.076385	1.621665	-2.308676
C	0.573737	-0.992183	-2.27468
H	0.281177	-2.019731	-2.073389
H	0.506826	-0.790809	-3.346511
H	1.583243	-0.822045	-1.88729
N	-0.507697	-1.269961	0.622698
O	-0.005567	-2.323398	0.231053
O	-1.387719	-1.202626	1.475426
N	-0.471596	1.12325	0.719927
H	-1.351066	1.499242	0.401147
H	0.249956	1.826547	0.743347
F	2.56343	0.0	0.0
