18

C	-0.668163	0.040603	-1.37733
C	0.0	0.0	0.0
Cl	-0.068407	1.49199	-2.225896
H	1.096364	0.0	0.0
N	-0.221159	-1.122518	-2.264581
O	0.97615	-1.340593	-2.332273
O	-1.100095	-1.722986	-2.882279
C	-2.175206	0.100453	-1.311694
H	-2.436746	0.949997	-0.679402
H	-2.565244	-0.825579	-0.886716
H	-2.605149	0.234262	-2.303024
N	-0.437032	-1.227753	0.707957
O	-0.568407	-2.260011	0.043663
O	-0.607442	-1.178963	1.929895
N	-0.353556	1.185431	0.748998
H	-0.923766	0.928408	1.545844
H	0.521467	1.55218	1.10803
F	2.492804	0.0	0.0
