18

C	-0.369411	-0.14787	-1.484026
C	0.0	0.0	0.0
Cl	-2.031467	-0.770963	-1.725941
H	1.090086	0.0	0.0
N	-0.33019	1.288699	-2.025084
O	-1.373701	1.88681	-2.249268
O	0.798967	1.738228	-2.174556
C	0.654514	-0.956739	-2.255254
H	1.634301	-0.657012	-1.868029
H	0.559387	-0.772741	-3.327634
H	0.502305	-2.013373	-2.045846
N	-0.394941	-1.257785	0.730751
O	-1.015428	-1.137957	1.790401
O	-0.04375	-2.335931	0.259847
N	-0.528312	1.175927	0.589329
H	0.080239	1.461192	1.3441
H	-1.462083	1.031641	0.951767
F	2.562167	0.0	0.0
