18

C	-0.388671	0.038573	-1.479136
C	0.0	0.0	0.0
Cl	-0.32248	-1.517588	-2.346649
H	1.091349	0.0	0.0
N	-1.848138	0.468037	-1.601754
O	-2.635964	-0.055542	-0.81739
O	-2.149562	1.27881	-2.47192
C	0.53652	1.021809	-2.15958
H	0.394391	1.015656	-3.239293
H	0.334608	2.016762	-1.76372
H	1.549256	0.727741	-1.866092
N	-0.465956	-1.211364	0.758489
O	-1.230277	-1.044954	1.714738
O	-0.006458	-2.29988	0.425274
N	-0.454479	1.222655	0.5953
H	-1.33228	1.070161	1.077938
H	0.245286	1.51328	1.266976
F	2.574987	0.0	0.0
