18

C	-0.620293	0.000855	-1.39944
C	0.0	0.0	0.0
Cl	-0.047009	1.4742	-2.246918
H	1.103168	0.0	0.0
N	-0.091039	-1.145635	-2.273954
O	1.103005	-1.377401	-2.224874
O	-0.907779	-1.704812	-3.003585
C	-2.134388	-0.013436	-1.425536
H	-2.516254	0.79916	-0.803961
H	-2.494188	-0.966199	-1.039699
H	-2.504099	0.117057	-2.440683
N	-0.45865	-1.239256	0.708545
O	-0.671683	-2.23857	0.005004
O	-0.518274	-1.241867	1.931838
N	-0.320578	1.154972	0.778402
H	-1.063196	1.731588	0.413393
H	0.526417	1.691842	0.888834
F	2.506348	0.0	0.0
