14

C	-0.504875	-0.016376	-1.452923
C	0.0	0.0	0.0
Cl	0.226493	1.308194	-2.357777
H	1.095767	0.0	0.0
N	-0.066671	-1.333839	-2.132658
O	0.946374	-1.855013	-1.697727
O	-0.758951	-1.696385	-3.077384
C	-1.959833	0.058246	-1.538056
N	-3.132541	0.140528	-1.568127
C	-0.492592	-1.186696	0.697735
N	-0.892127	-2.151811	1.235654
C	-0.471509	1.21439	0.662356
N	-0.850673	2.189932	1.1958
Br	3.296206	0.0	0.0
