14

C	-0.507237	-0.021107	-1.450659
C	0.0	0.0	0.0
Cl	0.243014	1.287919	-2.364451
H	1.095829	0.0	0.0
N	-0.10258	-1.348228	-2.133854
O	-0.670118	-1.575134	-3.193228
O	0.754462	-2.017994	-1.584045
C	-1.962354	0.076068	-1.533792
N	-3.134113	0.174491	-1.56224
C	-0.514022	-1.158843	0.729923
N	-0.928604	-2.090854	1.313343
C	-0.459441	1.232799	0.640691
N	-0.83277	2.221898	1.153248
Br	3.272631	0.0	0.0
