14

C	-0.388015	0.008547	-1.479971
C	0.0	0.0	0.0
Cl	0.162148	-1.473492	-2.259431
H	1.098443	0.0	0.0
N	-1.928953	0.071168	-1.674742
O	-2.621514	-0.136914	-0.688696
O	-2.311736	0.301767	-2.812774
C	0.155229	1.176976	-2.163773
N	0.568387	2.115622	-2.738967
C	-0.455147	-1.197258	0.698688
N	-0.765379	-2.168715	1.281346
C	-0.463937	1.220214	0.653696
N	-0.810183	2.218628	1.167186
Br	3.242388	0.0	0.0
