14

C	-0.473586	0.032337	-1.463759
C	0.0	0.0	0.0
Cl	-2.242426	0.079752	-1.576323
H	1.096902	0.0	0.0
N	0.093603	1.320696	-2.118531
O	-0.493417	2.357155	-1.850673
O	1.091409	1.172829	-2.807544
C	0.021066	-1.117695	-2.207769
N	0.328386	-2.076372	-2.814642
C	-0.453331	-1.239892	0.624548
N	-0.814282	-2.240355	1.123574
C	-0.479438	1.150895	0.760323
N	-0.849236	2.051847	1.417265
Br	3.237822	0.0	0.0
