13
Coordinates from ORCA-job run
  C   0.66852418518732     -0.33202115254959      0.58321294485112
  C   -0.56011981013722     -0.33891357260886     -0.32171642262122
  Br  0.33345232054430      0.52086941765427      2.25660476962878
  H   -0.24521645798215     -0.66585165214286     -1.31813762926542
  H   0.96617151198510     -1.36344753925438      0.77997732567654
  N   1.85769728092814      0.26459407415959     -0.17378772113393
  O   2.53188089092428      1.12970769737522      0.35066550888119
  O   2.03836567792629     -0.26422070196071     -1.26497880643605
  N   -1.08568752373383      1.07391796525839     -0.51292982679774
  O   -0.22556937245974      1.89832129003559     -0.79429809736512
  O   -2.28884416686597      1.25784874008321     -0.40984016461883
  C   -1.59738914440995     -1.21386311994823      0.20155626631416
  N   -2.39326539190656     -1.96794144610164      0.62267185288653
