13

C	0.0	0.0	0.0
C	-0.530851	-0.296007	-1.427722
Br	1.957235	0.0	0.0
H	-1.427691	0.312622	-1.550975
H	0.240668	0.017791	-2.134208
C	-0.362679	1.359334	0.419158
N	-0.545823	2.47846	0.726402
C	-0.410669	-0.982375	1.0037
N	-0.586567	-1.782854	1.846085
N	-0.781664	-1.720699	-1.554435
H	-1.708721	-1.87139	-1.159559
H	-0.829418	-1.960611	-2.537238
Cl	-3.291995	0.0	0.0
