13

C	0.0	0.0	0.0
C	-0.51199	-0.216786	-1.441131
Br	1.965141	0.0	0.0
H	-1.516566	-0.632595	-1.335482
H	0.154258	-0.939814	-1.916851
C	-0.423774	1.274078	0.575037
N	-0.637107	2.328801	1.047902
C	-0.376899	-1.130605	0.855041
N	-0.545907	-2.116399	1.472911
N	-0.488148	1.052449	-2.152286
H	-1.368064	1.517037	-1.943958
H	-0.46873	0.874084	-3.148295
Cl	-3.356738	0.0	0.0
