14

C	-0.543885	-0.079186	-1.406744
C	0.034563	0.090657	-0.02687
Br	0.464232	-1.553107	-2.322015
H	1.122387	0.066534	-0.0079
H	-0.183348	-0.825424	0.532311
N	-1.940912	-0.264404	-1.435542
H	-2.271692	-0.440126	-2.37538
H	-2.199301	-1.020676	-0.816901
N	-0.262182	1.134437	-2.294736
O	0.6158	1.909372	-1.944926
O	-0.944683	1.22933	-3.312497
C	-0.575057	1.222156	0.650725
N	-1.046374	2.13348	1.22499
F	2.428539	-0.609527	0.218367
