13
Coordinates from ORCA-job run
  C   0.90157600338342     -0.59921727137206     -0.35710077669173
  C   -0.42181765387027      0.14284506908153     -0.10745873679534
  Cl  1.57954044368103     -1.27260903854244      1.14884359251440
  H   -0.67250857693248      0.61475662064777     -1.07081318652256
  H   0.73017971499832     -1.44972036884472     -1.02289110708361
  C   1.86968496708950      0.29618308766037     -0.98237534282692
  N   2.62815158555747      1.00604276688700     -1.52848720545277
  N   -0.20191138602863      1.20561918725796      0.83523002051227
  H   -0.16374859798234      0.82594872216746      1.77361750607222
  H   -0.93708901221849      1.89768451509910      0.78639465564396
  N   -1.41528252218623     -0.82313634873543      0.34436034502067
  H   -1.61853098044633     -1.50809527058416     -0.37591362892066
  H   -2.27724398504497     -0.33630167072240      0.55859386453007
