13
Coordinates from ORCA-job run
  C   0.81008561713384     -0.29534288106324     -0.82601060060319
  C   -0.55538491236814      0.08289549291440     -0.23974713514752
  Cl  0.80653226909965     -1.96889111325569     -1.46290255011141
  H   -1.27737101999697     -0.01125712044070     -1.06488421319203
  H   1.00422662352558      0.36512308838248     -1.67122654714011
  C   1.86860306246417     -0.13292002240039      0.16533781761445
  N   2.71176724025481      0.03755764333112      0.96403466583236
  N   -0.47536995451883      1.48235747812148      0.11406914508674
  H   -0.05068767611084      1.56527516807606      1.03193306626664
  H   -1.39553629527288      1.90118178265656      0.14584916041266
  N   -0.83902966991919     -0.76243953389871      0.90713351302121
  H   -1.74498070536476     -0.52014687625491      1.28979444507896
  H   -0.86185457892644     -1.74139310616847      0.64561923288123
