13
Coordinates from ORCA-job run
  C   0.95016171761218     -0.68802263013832     -0.25095334172655
  C   -0.35770415240666     -0.23984934035028      0.42507401592481
  Cl  2.16004699152253     -1.16822890489758      0.96351316380684
  H   -0.58914120870485     -0.99338661227920      1.19040626788042
  H   0.76393996149268     -1.57065829591667     -0.86799103184555
  C   1.47381037292140      0.37655844257517     -1.10028156173820
  N   1.88820782919289      1.23861395749936     -1.78063062788990
  N   -1.35198362733055     -0.14053577478813     -0.64070917487796
  H   -1.59686376556964     -1.05533429730237     -1.00450028080845
  H   -2.19599774246954      0.28265121565284     -0.27368796317920
  N   -0.14462268322124      1.01084084327066      1.09771324905304
  H   -0.16218078567653      1.77312562634049      0.42956189520012
  H   -0.83967290736269      1.17422577033404      1.81248539020056
