13
Coordinates from ORCA-job run
  C   0.83758494526194     -0.59941071572850     -0.34473852219924
  C   -0.51868861292372      0.12759992113788     -0.13887409137968
  Cl  1.37167541909150     -1.45642265435470      1.12294752010795
  H   -0.78428285021873      0.49790573552987     -1.14432277762739
  H   0.70840207211674     -1.35840750139696     -1.12059287144054
  C   1.86283306549704      0.34464615246268     -0.77673697014210
  N   2.63678972560658      1.14775301171660     -1.14546772269297
  N   -0.35665730477759      1.15759726612760      0.85906998802698
  H   0.26895264530084      1.88900209428421      0.54422799917945
  H   -1.26570267192936      1.56169710396762      1.04478268464949
  N   -1.59742990231087     -0.71932930681190      0.29940844455191
  H   -1.35192166481411     -1.15369521484081      1.18130572973272
  H   -1.81155486590028     -1.43693589209361     -0.38100941076661
