13
Coordinates from ORCA-job run
  C   0.89589283876476     -0.32220468955480     -0.78918480360748
  C   -0.54673713014078     -0.01754603229159     -0.35335266934349
  Cl  1.06191917311179     -1.95629922349504     -1.47010603072929
  H   -1.17880278749851     -0.21606487631934     -1.22356033378169
  H   1.17021962932879      0.38809325225801     -1.56910422047351
  C   1.79424475903025     -0.14773294746686      0.34961315132829
  N   2.45793179997288      0.03329037953832      1.30166218272620
  N   -0.59393731606247      1.41907048044939     -0.09956260445404
  H   -1.55692512951347      1.72798066770821     -0.04406112075242
  H   -0.15237640279997      1.63225572222059      0.78915664807634
  N   -0.94247578034644     -0.93540368427004      0.69246112352756
  H   -0.46791507138154     -0.71979613940733      1.56240318114824
  H   -1.94003858246529     -0.88564290936952      0.85263549633531
