13
Coordinates from ORCA-job run
  C   0.82519176359023     -0.45304973505788     -0.61038126108055
  C   -0.26680143853362      0.00129397897952      0.36920051862221
  Cl  1.23311352759475     -2.18357665898580     -0.38345840755748
  H   0.14100448989613     -0.10928263642258      1.38472803509197
  H   0.43692204849673     -0.35171678634945     -1.62663167270088
  C   2.03125027276733      0.35049318930909     -0.44805433451821
  N   3.01724325856120      0.96940311537159     -0.29868644063760
  N   -1.47022056055790     -0.77767802280179      0.11468780335015
  H   -2.18904177325662     -0.49457875104137      0.77052298875222
  H   -1.30128957705790     -1.76751360862301      0.25122939606548
  N   -0.48604256916666      1.40653746266976      0.11945477620922
  H   -1.19677422860147      1.51061316028853     -0.59496521825748
  H   -0.77455521373222      1.89805529266340      0.95335381666094
