13
Coordinates from ORCA-job run
  C   0.80554915649540     -0.56921503901481     -0.40601850920627
  C   -0.33203567907077      0.08244547837078      0.41835611328653
  Cl  1.37325236910743     -2.06856028008558      0.38166694131738
  H   0.06069112968898      0.24921620278399      1.43248084293664
  H   0.40341056376219     -0.84034640450050     -1.38433292358127
  C   1.92403392531741      0.35099402881577     -0.57346393608200
  N   2.78199964331100      1.14799873775340     -0.66637891166812
  N   -1.51613724587974     -0.72817902340090      0.54022210441956
  H   -1.32962544790476     -1.58287521423697      1.04724173037677
  H   -1.87315714463715     -0.95510241929006     -0.38125997188370
  N   -0.71903467548507      1.28140189161569     -0.29994068859895
  H   -0.00862327619129      2.00001163288398     -0.22994114079366
  H   -1.57132331851362      1.63121040830520      0.12136834947711
