13
Coordinates from ORCA-job run
  C   0.82137116668679     -0.38854387263654     -0.77342538189923
  C   -0.54725456383340      0.07525769529806     -0.26082949246399
  Cl  0.78388904587496     -2.10999720017431     -1.26569840671515
  H   -1.25038398696863     -0.07121684485757     -1.09453459631409
  H   1.05825383086868      0.19123370089546     -1.66565494364350
  C   1.85834242684804     -0.17000925100105      0.22970756235020
  N   2.69406921224281      0.06021781154704      1.02120981528720
  N   -0.43657337652703      1.49745693798111     -0.02648950353440
  H   -0.03204719992316      1.64906689966907      0.89166773361883
  H   -1.34486301003667      1.94153388017785     -0.05607080343594
  N   -0.88358021972853     -0.65986481102513      0.94625042705259
  H   -1.78956494812662     -0.35860778062060      1.28431940870862
  H   -0.93165837737722     -1.65652716525339      0.76854818098883
