13
Coordinates from ORCA-job run
  C   0.77766527073455     -0.48670154930970     -0.64481307989364
  C   -0.23013368464795      0.02778369779792      0.39302583885881
  Cl  1.25989567169389     -2.17998939025337     -0.30870318816213
  H   0.27425323911307      0.01620318108611      1.37040950645423
  H   0.29138822631558     -0.48622677023201     -1.62328485493597
  C   1.96766238591520      0.35570963597138     -0.67369537969597
  N   2.94297493622102      1.00841296139111     -0.68512680730620
  N   -1.42754695605031     -0.79763986688830      0.32325244794733
  H   -1.21652562246742     -1.76727920933873      0.52888545348166
  H   -2.09122408153864     -0.47272404431149      1.01678239802012
  N   -0.51512489706449      1.40029084501589      0.04703850479304
  H   -0.73995733977723      1.95638499824998      0.85973207100952
  H   -1.29132714844730      1.42577551082121     -0.60350291057081
