13
Coordinates from ORCA-job run
  C   0.89101682256051     -0.57797582741442     -0.29749310348166
  C   -0.52308077274485      0.04638746269079     -0.26691936079852
  Cl  1.35302004819882     -1.20618407732173      1.31596430426181
  H   -0.69696606135775      0.39583998361966     -1.29148707542265
  H   0.88522984189102     -1.43405924878706     -0.97408783471453
  C   1.86968997460838      0.41117627227221     -0.73141749417120
  N   2.60298636767198      1.25298939639319     -1.09567052862707
  N   -0.67923103133998      1.19359666548637      0.60340911990493
  H   -0.39971768280747      0.96736494759325      1.55092769218539
  H   -0.12793152805786      1.98191677417785      0.28386355815504
  N   -1.46334350650987     -1.01972230115758     -0.00463143836700
  H   -1.31418831123431     -1.38862106909680      0.92819464897216
  H   -2.39548416087864     -0.62270897845572     -0.02265248789672
