13
Coordinates from ORCA-job run
  C   0.80810417574533     -0.55157202613503     -0.42057691205213
  C   -0.32755524949639      0.07383796113235      0.42559016275787
  Cl  1.41094157247917     -2.04919116885452      0.34435955614566
  H   0.07580119991352      0.23652193131903      1.43616061108541
  H   0.39714392173464     -0.81970629145782     -1.39613790050183
  C   1.91003609187289      0.38681126333980     -0.59667229633917
  N   2.76030351141534      1.18950503581769     -0.70959544256508
  N   -1.49794603179892     -0.75610568189230      0.55486695553469
  H   -1.29029650730649     -1.61506729104725      1.04640968409955
  H   -1.86427395897278     -0.97600725306229     -0.36479566165677
  N   -0.74274074461417      1.27386152977397     -0.27515038831119
  H   -0.04367927457905      2.00352675387852     -0.20523102141718
  H   -1.59583870639308      1.60458523718785      0.15977265322017
