13
Coordinates from ORCA-job run
  C   0.90314514961288     -0.43577201573400     -0.72591275125734
  C   -0.53636606166318     -0.03187753491081     -0.36718916509726
  Cl  1.01618097445824     -2.13349084227746     -1.24059575939467
  H   -1.15217664660524     -0.29092984035349     -1.23315848257500
  H   1.23064599491949      0.18349875679997     -1.56102261644448
  C   1.77546332701894     -0.18565138991593      0.41942414326271
  N   2.40855665393391      0.07800198470245      1.37293689829211
  N   -0.53039110356031      1.42313392896908     -0.25751016022412
  H   -1.48078570659324      1.77315030762849     -0.25525650775488
  H   -0.09713551649900      1.70760162323217      0.61518262623510
  N   -0.99872863944289     -0.82540009461614      0.75075911290361
  H   -0.54088574887140     -0.54133277866680      1.60997625318919
  H   -1.99752267670818     -0.72193210485751      0.87336640886503
