13
Coordinates from ORCA-job run
  C   0.78731532748611     -0.30901768441252     -0.73624825028820
  C   -0.62454491935131      0.04405368822832     -0.22506917440840
  Cl  0.84685676852610     -1.98395565189895     -1.37158473053755
  H   -1.30012257288680     -0.08620984422467     -1.08545618612442
  H   1.03115613067556      0.33951874353539     -1.58120597319564
  C   1.78658433578978     -0.12359993471562      0.31031049602919
  N   2.58937182607414      0.09447243769887      1.13875776112622
  N   -0.73391210151428      1.41315595533669      0.21744476669411
  H   -0.55537527171622      2.07313923288842     -0.52803727495267
  H   -0.09880818898068      1.58250566176961      0.98945475483868
  N   -0.92667571412597     -0.78627556198685      0.91730814668864
  H   -0.98249415225801     -1.76285089872234      0.65872300866475
  H   -1.81935146771840     -0.49493614349634      1.29560265546527
