13
Coordinates from ORCA-job run
  C   0.78842954184892     -0.57472466460001     -0.32670879105259
  C   -0.59179671083156      0.15566705890787     -0.22300530402812
  Cl  1.23615558489093     -1.31415497822665      1.23866975545959
  H   -0.77000369934854      0.55148269638667     -1.23068329955881
  H   0.72609814061804     -1.39405170008727     -1.04790164651326
  C   1.82239273347125      0.36205036582692     -0.74822346467329
  N   2.59037282081894      1.17326436625908     -1.11167980274449
  N   -0.58833088571455      1.26668440732012      0.69242829831413
  H   -0.18684816359473      1.00454196332386      1.58476470545700
  H   -0.06520408750287      2.04742181623849      0.31990805898417
  N   -1.67674453289769     -0.73825833688229      0.11264770847045
  H   -1.59278074159846     -1.62458787671112     -0.37008976163496
  H   -1.69074000015966     -0.91533511775565      1.10887354352020
