13
Coordinates from ORCA-job run
  C   0.78526924776251     -0.52250934690295     -0.31787707932917
  C   -0.42399425397870      0.05734346566082      0.48053924250267
  Cl  1.30001541288361     -2.11028938686330      0.32995422938010
  H   -0.09726433950902      0.14036916197862      1.52226725284878
  H   0.47121525939773     -0.69276506804985     -1.35195343318692
  C   1.91345073430605      0.40077459197614     -0.29282176419490
  N   2.78406290394561      1.18757339229653     -0.23717753440630
  N   -1.59408085178199     -0.78716983052168      0.43735452531251
  H   -2.03096654809876     -0.74818250492101     -0.47584403409122
  H   -1.35953312899903     -1.74869464988937      0.64750760417066
  N   -0.77337846780179      1.37664589107985      0.00825646186319
  H   -0.06349168687492      2.05638719438985      0.24566698526307
  H   -0.91130428125124      1.39151708976635     -0.99587245613248
