13
Coordinates from ORCA-job run
  C   0.77141769872242     -0.55966762807304     -0.38642693043771
  C   -0.60245888307098      0.16469133830788     -0.18637489424161
  Cl  1.29571455215097     -1.35791118827252      1.12508050665448
  H   -0.83059019682854      0.59741834127408     -1.16838064228743
  H   0.67221253816915     -1.35068659727238     -1.13461650467514
  C   1.78381984198950      0.39415640510029     -0.82202569019843
  N   2.52970790768989      1.23095481674121     -1.17345282985825
  N   -0.55297040725345      1.24072381339223      0.76843851811593
  H   -0.12739933778804      0.93965529006018      1.63703001899156
  H   -0.02824765464552      2.02635130600545      0.40823402116255
  N   -1.66987402130409     -0.74248111916446      0.16718681658870
  H   -1.62947725603783     -1.59391328356823     -0.37982248484858
  H   -1.61285478179353     -0.98929149453069      1.14713009503396
