13
Coordinates from ORCA-job run
  C   0.94916770794811     -0.67830747485710     -0.28219887819831
  C   -0.35715956411874     -0.25868201295395      0.41448997130568
  Cl  2.15995340402114     -1.21531868392249      0.90758027986223
  H   -0.58851170282600     -1.04450124037869      1.14662737728083
  H   0.75960472625998     -1.53145338075795     -0.93836405281156
  C   1.47466744594272      0.42267888286042     -1.08262558366879
  N   1.88573280317282      1.31957980324493     -1.71851955237487
  N   -1.35262184667213     -0.11234098859433     -0.64499967259399
  H   -2.19396564852904      0.30005274350152     -0.26006880062428
  H   -1.60241259474120     -1.01110674102346     -1.04370663686290
  N   -0.14174790610163      0.96095234599842      1.14164880528859
  H   -0.84319812692142      1.09750954191919      1.85598373296256
  H   -0.15050869743462      1.75093720496348      0.50615301043480
