13
Coordinates from ORCA-job run
  C   0.87150034837788     -0.34931894294186     -0.67929678775801
  C   -0.60937503393881     -0.05871992554470     -0.34335120051319
  Cl  1.10806995548152     -1.98582483123270     -1.33989311378708
  H   -1.17871803781127     -0.29366615487926     -1.24815786383211
  H   1.20054351820737      0.34820511473858     -1.45264758923589
  C   1.69440500068659     -0.14817812600925      0.51076952663720
  N   2.28515877835077      0.05721462353921      1.50504395448636
  N   -0.83894014766918      1.34469935741236     -0.03292431588648
  H   -0.28909445133918      1.63555144028192      0.76839283767898
  H   -0.61951706568403      1.94945671435098     -0.81625533204691
  N   -1.03930678600056     -0.95065987228172      0.70108438483702
  H   -0.55757759055553     -0.73919275018529      1.56903816254916
  H   -2.02914848810555     -0.80956664724825      0.86019733687092
