13
Coordinates from ORCA-job run
  C   0.82783895659034     -0.58136073954726     -0.39815069447296
  C   -0.52056410581518      0.13621334664325     -0.12014356301417
  Cl  1.39073278862508     -1.52395215700383      1.00502122383348
  H   -0.80644655399893      0.56585477773984     -1.09596699948472
  H   0.67816852583612     -1.29364071226684     -1.21357622706478
  C   1.84684442719560      0.38406626591397     -0.79632853287197
  N   2.61092191962201      1.21191032002461     -1.12925804515491
  N   -0.33269450013666      1.10555609005412      0.93268539632047
  H   -1.23618919386042      1.49968368061826      1.16189301088301
  H   0.28785281539558      1.85299905293218      0.64679663870059
  N   -1.59282842903611     -0.73210995956580      0.29137046464207
  H   -1.32955465650204     -1.21887403826453      1.14015505392226
  H   -1.82508199391542     -1.40734592727800     -0.42549772623837
