13
Coordinates from ORCA-job run
  C   0.90177380472285     -0.65543817771014     -0.20756567354437
  C   -0.47092982907404     -0.25485211268026      0.38816505524476
  Cl  2.06182139039501     -1.00014451759422      1.10869026031955
  H   -0.72649748124946     -1.03591656371602      1.11935907583465
  H   0.80963223286326     -1.57913609872447     -0.78476340829363
  C   1.41802634018063      0.40460418890850     -1.06456952951845
  N   1.82417453315892      1.28415706345925     -1.72773577066063
  N   -1.38053308777313     -0.14530165506950     -0.73486069434276
  H   -1.60442602449635     -1.05470207002230     -1.11975655433014
  H   -2.23593977709257      0.28576599397404     -0.40560486626492
  N   -0.49733162286208      1.00728946038269      1.07694364675254
  H   -0.19501081479350      1.74903326082683      0.45443004635871
  H   0.09524033602045      0.99464122796559      1.89626841244471
