17

C	-0.246201	-0.045817	-1.495205
C	0.0	0.0	0.0
Br	-0.017385	1.755378	-2.253738
H	1.093862	0.0	0.0
H	-0.430633	0.904538	0.432061
C	0.736256	-0.972231	-2.176264
H	0.695178	-0.897013	-3.262487
H	0.51831	-2.003356	-1.888594
H	1.715922	-0.691151	-1.762259
N	-1.69847	-0.401728	-1.802155
O	-2.571425	0.257639	-1.244511
O	-1.916491	-1.364602	-2.53885
C	-0.503534	-1.24886	0.716746
H	-1.589048	-1.385267	0.647112
H	-0.007847	-2.146389	0.339583
H	-0.242304	-1.168142	1.775202
F	2.709718	0.0	0.0
