17

C	-0.242411	0.027779	-1.493511
C	0.0	0.0	0.0
Br	-2.099908	0.571911	-1.988918
H	1.094635	0.0	0.0
H	-0.311778	0.984591	0.367245
C	0.757692	0.954395	-2.148192
H	0.52659	1.974568	-1.834535
H	0.727164	0.892327	-3.236047
H	1.736617	0.675789	-1.731269
N	-0.088142	-1.383262	-2.058575
O	0.943503	-1.626614	-2.679202
O	-0.968144	-2.204109	-1.815439
C	-0.633229	-1.107852	0.817794
H	-1.7146	-1.185106	0.669677
H	-0.187513	-2.075121	0.58368
H	-0.439534	-0.9105	1.875541
F	2.699853	0.0	0.0
