17

C	-0.219129	-0.319565	-1.471584
C	0.0	0.0	0.0
Br	0.062245	1.299776	-2.543978
H	1.093219	0.0	0.0
H	-0.427416	0.975401	0.240368
C	0.768741	-1.363581	-1.94561
H	1.745269	-0.997871	-1.594359
H	0.558599	-2.315676	-1.457008
H	0.732042	-1.504238	-3.026941
N	-1.667704	-0.729472	-1.70228
O	-2.539413	0.129514	-1.585839
O	-1.886101	-1.927969	-1.89004
C	-0.535618	-1.083082	0.928665
H	-0.093763	-2.056004	0.703389
H	-0.247959	-0.833075	1.953526
H	-1.627653	-1.182085	0.89796
F	2.709267	0.0	0.0
