14

C	0.0	0.0	0.0
C	-0.624037	-0.063571	-1.377651
F	1.387297	0.0	0.0
H	-0.44875	0.87884	-1.905276
H	-1.739223	-0.130143	-1.121843
C	-0.492334	1.235668	0.72143
H	-0.163682	2.121563	0.170413
H	-0.083907	1.266238	1.734055
H	-1.591176	1.170724	0.73771
C	-0.362078	-1.22078	0.762734
N	-0.535323	-2.219948	1.354303
C	-0.159954	-1.176177	-2.18746
N	0.19546	-2.068336	-2.865231
H	-3.083693	0.0	0.0
