14

C	0.0	0.0	0.0
C	-0.616851	-0.069889	-1.381339
F	1.387632	0.0	0.0
H	-1.731293	-0.143764	-1.134672
H	-0.445316	0.873373	-1.908669
C	-0.497947	1.236223	0.71542
H	-0.095303	1.27103	1.730125
H	-0.170165	2.121822	0.163128
H	-1.597034	1.166152	0.725738
C	-0.36019	-1.221215	0.762746
N	-0.519588	-2.225297	1.349963
C	-0.133553	-1.178059	-2.186146
N	0.241495	-2.065462	-2.859596
H	-3.083912	0.0	0.0
