14

C	0.0	0.0	0.0
C	-0.617122	-0.006499	-1.386652
F	1.387732	0.0	0.0
H	-0.363844	-0.919722	-1.932951
H	-1.736556	-0.011029	-1.133242
C	-0.476371	1.187256	0.809931
H	-0.161082	2.106693	0.309709
H	-0.050374	1.14462	1.815079
H	-1.573183	1.118895	0.842366
C	-0.379437	-1.2667	0.678204
N	-0.505303	-2.286624	1.24731
C	-0.239756	1.158486	-2.165218
N	0.045934	2.10303	-2.805946
H	-3.047162	0.0	0.0
