14

C	0.0	0.0	0.0
C	-0.613649	-0.066102	-1.384675
F	1.387618	0.0	0.0
H	-1.727624	-0.132929	-1.143406
H	-0.431063	0.8738	-1.914253
C	-0.494316	1.237742	0.716114
H	-0.089643	1.270871	1.729959
H	-0.163449	2.121997	0.163203
H	-1.593588	1.172437	0.729444
C	-0.366728	-1.218903	0.764161
N	-0.514677	-2.194658	1.401586
C	-0.138086	-1.182587	-2.184509
N	0.228632	-2.078179	-2.851892
H	-3.092572	0.0	0.0
