14

C	0.0	0.0	0.0
C	-0.619066	-0.08232	-1.379208
F	1.388285	0.0	0.0
H	-1.734377	-0.142394	-1.127492
H	-0.436271	0.84957	-1.922781
C	-0.493856	1.245427	0.703297
H	-1.592837	1.179571	0.717542
H	-0.088594	1.288863	1.716638
H	-0.163809	2.124222	0.141474
C	-0.362277	-1.208307	0.781894
N	-0.499548	-2.176296	1.431866
C	-0.155456	-1.212289	-2.16448
N	0.200202	-2.122501	-2.817729
H	-3.080084	0.0	0.0
