14

C	0.0	0.0	0.0
C	-0.620495	0.045702	-1.384206
F	1.387518	0.0	0.0
H	-1.738014	0.025087	-1.130347
H	-0.358169	-0.843295	-1.964541
C	-0.478805	1.157053	0.850567
H	-0.152891	2.093701	0.391387
H	-1.576125	1.09717	0.876023
H	-0.056036	1.078259	1.854752
C	-0.371045	-1.292632	0.625714
N	-0.508649	-2.337405	1.143507
C	-0.256372	1.24344	-2.118409
N	0.021784	2.213269	-2.721715
H	-3.076622	0.0	0.0
