15

C	0.0	0.0	0.0
C	-0.397816	0.309168	-1.47602
Cl	1.79855	0.0	0.0
H	0.211702	1.163933	-1.788668
H	-0.063228	-0.556139	-2.062483
C	-0.385351	1.130148	0.850244
N	-0.649462	2.079013	1.490884
C	-0.586238	-1.298565	0.511992
H	-1.678234	-1.20692	0.497788
H	-0.275115	-2.12197	-0.135356
H	-0.264018	-1.501389	1.535026
N	-1.775439	0.587413	-1.751802
H	-2.116853	1.37416	-1.212264
H	-2.410809	-0.165346	-1.509566
Cl	-4.385593	0.0	0.0
