15

C	0.0	0.0	0.0
C	-0.507021	-0.31608	-1.408624
Cl	1.804606	0.0	0.0
H	-0.173028	0.482581	-2.083591
H	-1.598963	-0.274059	-1.326795
C	-0.379529	1.369755	0.362906
N	-0.607929	2.480546	0.668544
C	-0.497026	-1.002958	1.024619
H	-0.117426	-0.755586	2.01762
H	-1.590283	-0.963141	1.017862
H	-0.153229	-1.993106	0.726824
N	-0.07874	-1.647368	-1.819339
H	-0.8025	-2.078395	-2.376455
H	0.768016	-1.596288	-2.368981
Cl	-3.780294	0.0	0.0
