15

C	0.0	0.0	0.0
C	-0.522135	0.47926	-1.351203
Cl	1.804383	0.0	0.0
H	-0.207501	-0.266603	-2.097171
H	-1.613327	0.435574	-1.259989
C	-0.366361	0.949458	1.056925
N	-0.610494	1.683052	1.939692
C	-0.518922	-1.390002	0.318856
H	-0.14073	-1.733688	1.283097
H	-1.611948	-1.330645	0.3423
H	-0.194454	-2.086408	-0.458643
N	-0.097213	1.837971	-1.650126
H	0.744611	1.837991	-2.209364
H	-0.826637	2.31314	-2.165697
Cl	-3.807474	0.0	0.0
