16

C	-0.43133	-0.030109	-1.44811
C	0.0	0.0	0.0
Br	0.274027	1.46829	-2.453863
H	1.101998	0.0	0.0
H	-0.05223	-0.926496	-1.936873
N	-1.933257	-0.087384	-1.57158
O	-2.587351	0.947626	-1.616662
O	-2.405937	-1.229798	-1.539516
C	-0.441539	-1.261803	0.725676
H	0.05754	-1.283141	1.69984
H	-1.523079	-1.294685	0.877786
H	-0.128206	-2.154503	0.179048
N	-0.545912	1.180128	0.686356
H	-0.191819	1.127414	1.635577
H	-0.088931	1.992107	0.283096
H	2.867493	0.0	0.0
