14

C	0.0	0.0	0.0
C	-0.492067	0.291201	-1.418553
Cl	1.784032	0.0	0.0
H	-0.00038	-0.408776	-2.099362
H	-1.567262	0.090066	-1.397394
N	-0.54463	0.972541	0.90568
H	-0.295623	0.731113	1.858477
H	-1.566949	0.881538	0.815359
C	-0.340555	-1.400396	0.344822
N	-0.540831	-2.525326	0.620827
N	-0.14733	1.663744	-1.79436
H	-0.449627	2.260764	-1.031371
H	-0.720146	1.905653	-2.596013
Cl	-3.617678	0.0	0.0
