14

C	0.0	0.0	0.0
C	-0.370113	0.484779	-1.442632
Cl	1.843573	0.0	0.0
H	-0.328519	1.577645	-1.383341
H	0.440141	0.155347	-2.096138
N	-0.56625	0.838604	1.00063
H	-0.47458	0.413648	1.916144
H	-1.568877	0.907447	0.798434
C	-0.315929	-1.435288	0.133241
N	-0.542116	-2.585321	0.221797
N	-1.612777	0.061004	-2.020173
H	-1.631323	-0.946756	-2.117106
H	-2.425154	0.296071	-1.449587
Cl	-4.04048	0.0	0.0
