13
Coordinates from ORCA-job run
  C   -0.31605486360563     -0.55690095678721     -0.08454011116349
  C   0.56648253803626      0.64369065941435      0.17522131619289
  Cl  0.44439192662768     -1.56527922078472     -1.35368540551189
  H   0.77205738667674      1.20680327216686     -0.73339669634903
  H   -0.34672165724826     -1.17443756151498      0.81308094028408
  H   0.11232039739975      1.28648682915858      0.93380645903716
  C   -1.70805834093790     -0.13740163146132     -0.51605975443173
  H   -1.66736902967111      0.46975695860737     -1.42250755270688
  H   -2.32252556302176     -1.01447557987482     -0.72051246415809
  H   -2.18763703491787      0.44222788857884      0.27754555604638
  N   1.89092737911469      0.23128166691274      0.73135440210354
  O   1.86791064235020     -0.53793328280183      1.68830612138751
  O   2.89527621919718      0.70618095838615      0.21038718926955
