13
Coordinates from ORCA-job run
  C   -0.46355951421187     -0.73040593589359      0.18785758684088
  C   0.71651543622964     -0.02970930481646      0.84565410471495
  Cl  0.13246400040748     -2.03821143333653     -0.87998778955119
  H   1.37487605521552     -0.74704272554502      1.33140665046303
  H   -1.00020422976243     -1.23370208149555      0.99635240085482
  H   0.34961911949524      0.71218915146300      1.55711725392480
  C   -1.41189969619122      0.17402977851814     -0.57565160611090
  H   -0.92779757717047      0.61296601542783     -1.44659797257078
  H   -2.27580958000920     -0.40155099193410     -0.90992764283808
  H   -1.75655504389610      0.98609819286400      0.06931793929327
  N   1.55027575223216      0.71267451959122     -0.14185656323146
  O   2.61410970152428      0.20296883226500     -0.48353518952458
  O   1.09796557613699      1.78169598289207     -0.55114917226476
