17
Coordinates from ORCA-job run
  C   0.76829660868745     -0.12303692423295      0.25039375437969
  C   -0.71033527432696     -0.48488031460698      0.45996063864998
  H   1.17914761413321      0.03152754517966      1.25762984539956
  H   -0.81287438479608     -1.15387085609582      1.31958136848832
  C   0.96156057688139      1.16792886608395     -0.53944795008295
  H   0.45081157930246      1.12643823021094     -1.50357743847568
  H   2.02674923722897      1.30391305021836     -0.74113019689566
  H   0.61329241367312      2.04196443139366      0.01438314649906
  N   1.40387675089095     -1.22039010185442     -0.47712926759481
  H   2.40244389267621     -1.20368887720722     -0.30860374002018
  H   1.04366289687019     -2.11660123334046     -0.17362260225153
  N   -1.31299733129709     -1.05709846674090     -0.68229826770748
  H   -2.31480088426806     -1.14135775250820     -0.57767662786413
  H   -1.10641917763370     -0.53669545553704     -1.52276619443366
  N   -1.38130947144006      0.80423310993531      0.95424353788216
  O   -1.07027705084575      1.17253672976015      2.08402483771735
  O   -2.13982799573626      1.39107801934197      0.18803515630999
