17
Coordinates from ORCA-job run
  C   0.78359480819211     -0.22691707890731      0.31391246197863
  C   -0.73399228649340     -0.47884371048261      0.21395839465760
  H   1.04354758720433     -0.26975391527666      1.37563026339388
  H   -0.96368033475813     -1.45792020869868      0.64050823066083
  C   1.16727550484020      1.13681155276275     -0.24378704331161
  H   2.23097023817167      1.29996013717649     -0.06993442881274
  H   0.60677408015865      1.95149974012941      0.22012232046711
  H   1.00536295105836      1.17093917026313     -1.32469053517585
  N   1.54338304286929     -1.25906526772346     -0.37576645486788
  H   1.44318051105304     -2.14671219570521      0.10359084560661
  H   1.15849421571010     -1.37216254555441     -1.30773834666786
  N   -1.20667074317178     -0.39686021278645     -1.12334217472009
  H   -1.21043132070017      0.56391659363040     -1.44129223154858
  H   -2.15008634857401     -0.75337567367625     -1.20108407489665
  N   -1.42137352460456      0.50083031009698      1.16914791313567
  O   -2.02728236874821      1.45425493134965      0.68339531370315
  O   -1.27006601220748      0.28239837340222      2.36836954639778
