17
Coordinates from ORCA-job run
  C   0.53955904812243      0.13150820393134      0.51475896022255
  C   -0.94467475867394     -0.24612061434245      0.32114017961552
  H   0.57828288585360      0.89556975987293      1.30459106259933
  H   -1.34296525472942     -0.58586117562593      1.28138129402696
  C   1.16980355605952      0.68500799825410     -0.75133994627541
  H   1.16811701007427     -0.06987713631239     -1.54005431599590
  H   2.20787700155384      0.96840536481871     -0.55776662306675
  H   0.64663823977198      1.57183503857404     -1.11188780981628
  N   1.21057961567862     -1.11480490473569      0.88925390163764
  H   1.03283295234139     -1.32861988481434      1.86439829585784
  H   2.21265152360083     -1.01542205308023      0.78047678418110
  N   -1.23890079507147     -1.21260664593884     -0.69860099427659
  H   -0.55800724764772     -1.95832665011039     -0.60042658004768
  H   -1.13457310221578     -0.78827640940191     -1.61209285858228
  N   -1.68602181398472      1.02564088702306      0.03931524019321
  O   -1.96882103582225      1.28431564341483     -1.12839557605389
  O   -1.89337782491118      1.75763257847316      1.00424898578064
