17
Coordinates from ORCA-job run
  C   0.50113795411610     -0.23574908435748     -0.31881827097419
  C   -0.83384586657426      0.23099237976456      0.26094513675098
  H   0.41667644814998     -1.32118925019871     -0.44563286335850
  H   -0.85138961518877      1.31893804960337      0.36203681104080
  C   1.64259163662926      0.08437521138483      0.64397626581481
  H   2.59431173191761     -0.24266158860855      0.21865894584299
  H   1.70507964387453      1.16466937059619      0.81431472610078
  H   1.52125117600975     -0.40950809322720      1.61089859828994
  N   0.63961310816719      0.33994920230658     -1.65081249530533
  H   1.35953189839169     -0.14253478432750     -2.17322994155070
  H   0.90523447015743      1.31667725677736     -1.58856857437646
  N   -1.25757499426371     -0.37255762811316      1.49327345760803
  H   -0.87268550206621      0.10772482411282      2.29280301667251
  H   -1.01565123986545     -1.35407378897284      1.52600700211481
  N   -1.89061650825891     -0.07673803792039     -0.76710104534497
  O   -2.07602057153831     -1.26902108370077     -0.99309528563620
  O   -2.48564376965791      0.86070704488088     -1.28465548368930
