17
Coordinates from ORCA-job run
  C   0.57726614762269     -0.20806325151878     -0.29003135219835
  C   -0.75829217725443      0.19563093796932      0.32741694583017
  H   0.56957200519532     -1.30281577232651     -0.35376759502415
  H   -0.83873251243563      1.28225686627581      0.41314435674659
  C   1.73044721215696      0.24917750972865      0.59805148442555
  H   1.73840495558155      1.34201880894130      0.66799167137974
  H   1.64663359626364     -0.15617311454466      1.60662075735319
  H   2.68308411711227     -0.06692837481482      0.16512366912147
  N   0.61045086199634      0.29186072077706     -1.65958287995713
  H   1.35481420058638     -0.15784936359763     -2.17703927410232
  H   0.79574314591823      1.28916014500509     -1.66295112311393
  N   -0.96129245977100     -0.42070004892934      1.59742990127163
  H   -1.80590427089048     -0.08338156800973      2.04145443311051
  H   -1.03281506847074     -1.42491536735810      1.48145677667654
  N   -1.83737720265355     -0.17731843252901     -0.67877923152640
  O   -2.02580318546961     -1.38078155159941     -0.84252841777783
  O   -2.44519936548795      0.73082185653075     -1.23501012221528
