17

C	0.0	0.0	0.0
C	-0.335518	-0.031199	-1.564509
Br	1.971853	0.0	0.0
H	0.636232	-0.039779	-2.061565
C	-0.416661	1.219821	0.686744
N	-0.567564	2.243947	1.244067
C	-0.438445	-1.187505	0.727841
N	-0.531714	-2.223263	1.279672
C	-1.067612	1.218775	-2.030643
H	-2.067664	1.19981	-1.601678
H	-1.089583	1.228623	-3.127748
H	-0.548778	2.123935	-1.707073
C	-1.065003	-1.304006	-1.982535
H	-1.197122	-1.290817	-3.070828
H	-0.496876	-2.201646	-1.721059
H	-2.025676	-1.310945	-1.474959
F	-2.358195	0.0	0.0
