17

C	0.0	0.0	0.0
C	-0.335749	0.241449	-1.544287
Br	1.97194	0.0	0.0
H	0.634158	0.278946	-2.047967
C	-0.432604	1.073133	0.890105
N	-0.568868	1.982778	1.62411
C	-0.423517	-1.301392	0.509638
N	-0.561782	-2.396963	0.914704
C	-1.022815	1.582929	-1.772006
H	-1.987061	1.545875	-1.268036
H	-1.151522	1.738088	-2.849586
H	-0.428557	2.414609	-1.382177
C	-1.111111	-0.909369	-2.178491
H	-2.102652	-0.939362	-1.731744
H	-0.60531	-1.867176	-2.018062
H	-1.15906	-0.737346	-3.260945
F	-2.367313	0.0	0.0
