17

C	0.0	0.0	0.0
C	-0.336502	0.012459	-1.565198
Br	1.972076	0.0	0.0
H	0.633151	0.026961	-2.070004
C	-0.417477	1.205473	0.712134
N	-0.553963	2.215226	1.299396
C	-0.442405	-1.202374	0.699715
N	-0.54002	-2.240521	1.245993
C	-1.078921	1.27446	-1.993381
H	-2.038022	1.288351	-1.481217
H	-1.212726	1.250372	-3.080761
H	-0.506942	2.174577	-1.750181
C	-1.054509	-1.256659	-2.010005
H	-1.181503	-1.225881	-3.098236
H	-0.473522	-2.152279	-1.768848
H	-2.01775	-1.28853	-1.504449
F	-2.365014	0.0	0.0
