17

C	0.0	0.0	0.0
C	-0.338512	-0.031989	-1.56331
Br	1.971674	0.0	0.0
H	0.630838	-0.045556	-2.069168
C	-0.42977	1.21577	0.684434
N	-0.554805	2.242015	1.245433
C	-0.428144	-1.189854	0.73046
N	-0.553759	-2.196566	1.326039
C	-1.060275	1.229828	-2.022608
H	-1.174474	1.193761	-3.112736
H	-0.481494	2.128682	-1.783989
H	-2.024819	1.266361	-1.524134
C	-1.07635	-1.300448	-1.978133
H	-1.184215	-1.303535	-3.068702
H	-2.046855	-1.290894	-1.48662
H	-0.522064	-2.200247	-1.6949
F	-2.366456	0.0	0.0
