17

C	0.0	0.0	0.0
C	-0.237747	0.105159	-1.583664
Br	1.965614	0.0	0.0
H	0.59251	-0.482012	-1.991099
C	-0.510397	1.129701	0.774679
N	-0.678217	2.133869	1.372409
C	-0.429274	-1.291781	0.501448
N	-0.552396	-2.378322	0.92123
C	-0.056365	1.54675	-2.050296
H	0.901854	1.978698	-1.75004
H	-0.867442	2.156001	-1.643648
H	-0.114094	1.567981	-3.143616
C	-1.507104	-0.462042	-2.217208
H	-2.341287	0.207687	-2.058013
H	-1.777971	-1.420894	-1.78269
H	-1.274587	-0.587467	-3.288187
F	-2.267544	0.0	0.0
