17

C	0.0	0.0	0.0
C	-0.335409	0.083883	-1.562553
Br	1.971808	0.0	0.0
H	0.63369	0.11023	-2.067684
C	-0.426401	1.165536	0.76978
N	-0.547344	2.153747	1.396328
C	-0.433524	-1.237506	0.642758
N	-0.55246	-2.281313	1.171948
C	-1.067137	1.371038	-1.929748
H	-0.497292	2.256585	-1.63267
H	-2.030502	1.359813	-1.424203
H	-1.192639	1.406028	-3.018373
C	-1.070644	-1.154816	-2.064004
H	-1.194447	-1.074697	-3.150192
H	-2.035857	-1.186311	-1.559825
H	-0.506722	-2.071572	-1.856615
F	-2.368261	0.0	0.0
