13

C	0.0	0.0	0.0
C	-0.194267	-0.077103	-1.620157
Cl	1.792771	0.0	0.0
H	0.203711	0.887409	-1.957639
H	0.515993	-0.85046	-1.92362
C	-0.484204	1.244499	0.582452
N	-0.584896	2.328119	1.027558
C	-0.494949	-1.199648	0.647724
N	-0.596169	-2.26337	1.141018
N	-1.456398	-0.338889	-2.239514
H	-2.135351	0.189332	-1.67828
H	-1.711351	-1.288098	-1.99372
F	-2.414438	0.0	0.0
