13

C	0.0	0.0	0.0
C	-0.423988	0.223075	-1.475357
Cl	1.794822	0.0	0.0
H	-1.506489	0.354005	-1.37407
H	0.078905	1.137693	-1.80657
C	-0.459412	1.107315	0.842893
N	-0.596564	2.066586	1.509118
C	-0.465281	-1.287994	0.515986
N	-0.616908	-2.377263	0.931167
N	-0.045536	-0.930452	-2.275019
H	-0.875533	-1.384351	-2.627353
H	0.551386	-0.675276	-3.046942
F	-2.489459	0.0	0.0
