13

C	0.0	0.0	0.0
C	-0.467317	-0.294076	-1.462342
Cl	1.793976	0.0	0.0
H	-1.196986	-1.097878	-1.382594
H	0.406121	-0.620444	-2.035114
C	-0.456439	1.283559	0.534915
N	-0.573496	2.361184	0.990144
C	-0.408441	-1.100283	0.880214
N	-0.555074	-2.049347	1.557843
N	-1.026051	0.918647	-2.036842
H	-1.915996	0.974397	-1.531455
H	-1.209638	0.74973	-3.02127
F	-2.427407	0.0	0.0
