16

C	-0.450671	-0.002778	-1.454655
C	0.0	0.0	0.0
F	-1.833984	-0.262522	-1.515963
H	1.090722	0.0	0.0
H	0.042419	-0.865532	-1.913919
C	-0.154712	1.256734	-2.227942
H	-0.412708	1.113106	-3.279746
H	0.90618	1.497209	-2.136992
H	-0.73893	2.090535	-1.83597
N	-0.46878	-1.111274	0.770221
H	-1.353095	-1.457748	0.425869
H	0.235399	-1.836045	0.773985
N	-0.503263	1.274663	0.628119
O	-1.632097	1.255202	1.118285
O	0.212584	2.271066	0.546416
Cl	3.359761	0.0	0.0
