16

C	-0.544036	-0.019443	-1.42756
C	0.0	0.0	0.0
F	-0.049146	-1.157634	-2.052453
H	1.091035	0.0	0.0
H	-0.146447	0.841808	-1.966637
C	-2.056105	-0.080635	-1.490669
H	-2.396112	-0.991267	-0.992451
H	-2.515562	0.789803	-1.012471
H	-2.380197	-0.11498	-2.533363
N	-0.472135	-1.08989	0.787592
H	0.22993	-1.325203	1.472922
H	-1.323258	-0.845212	1.270452
N	-0.414405	1.355448	0.567354
O	-1.134656	1.379694	1.566655
O	-0.038723	2.354029	-0.037607
Cl	3.342616	0.0	0.0
