16

C	-0.500644	-0.080013	-1.434341
C	0.0	0.0	0.0
F	-0.288896	1.152041	-2.054555
H	1.090672	0.0	0.0
H	-1.587948	-0.237013	-1.42981
C	0.238137	-1.148534	-2.210174
H	0.010752	-2.141225	-1.8135
H	1.314519	-0.975555	-2.129201
H	-0.063629	-1.116915	-3.259702
N	-0.442254	-1.09025	0.822433
H	-1.280209	-1.537794	0.482689
H	0.30736	-1.753228	0.943185
N	-0.560304	1.272655	0.578857
O	-1.789793	1.310265	0.673801
O	0.201325	2.172562	0.907723
Cl	3.394584	0.0	0.0
