14

C	0.0	0.0	0.0
C	-0.59284	-0.006544	-1.428364
Br	1.948973	0.0	0.0
H	-1.58332	-0.460848	-1.32737
H	-0.340954	0.909836	0.491441
C	-0.386163	-1.153171	0.809053
N	-0.592733	-2.069098	1.514838
N	0.22653	-0.936162	-2.290843
O	0.201168	-2.119626	-1.959258
O	0.867231	-0.472156	-3.227367
N	-0.742161	1.26464	-2.039899
H	-1.608152	1.658156	-1.691903
H	0.036802	1.881739	-1.8587
Cl	-3.369668	0.0	0.0
