14

C	0.0	0.0	0.0
C	-0.602145	-0.451366	-1.361906
Br	1.949312	0.0	0.0
H	-1.534019	-0.965144	-1.121316
H	-0.343027	1.014241	0.196313
C	-0.378903	-0.868582	1.113548
N	-0.563385	-1.566609	2.040402
N	0.305574	-1.488598	-1.973928
O	0.352095	-2.565577	-1.380659
O	0.950797	-1.197725	-2.975983
N	-0.890897	0.584978	-2.285497
H	-0.167111	1.291354	-2.320555
H	-1.781126	0.982048	-1.99829
Cl	-3.347825	0.0	0.0
