14

C	0.0	0.0	0.0
C	-0.567939	-0.035315	-1.412328
Br	1.952483	0.0	0.0
H	-1.656062	-0.165949	-1.258977
H	-0.325346	0.951293	0.420026
C	-0.402275	-1.085034	0.89217
N	-0.596273	-1.928131	1.687246
N	-0.069338	-1.277819	-2.138669
O	-0.261217	-2.358624	-1.589901
O	0.475427	-1.125516	-3.234114
N	-0.28713	1.170373	-2.106854
H	-0.980029	1.317323	-2.827765
H	0.628815	1.135887	-2.536155
Cl	-3.431072	0.0	0.0
