14

C	0.0	0.0	0.0
C	-0.570655	-5.6e-05	-1.410678
Br	1.952691	0.0	0.0
H	-1.658249	-0.140193	-1.260072
H	-0.318384	0.94308	0.443002
C	-0.402596	-1.102192	0.870695
N	-0.595633	-1.960043	1.649685
N	-0.071408	-1.219099	-2.176632
O	-0.182963	-2.309559	-1.626569
O	0.387665	-1.038588	-3.305525
N	-0.301082	1.226433	-2.072855
H	-0.99854	1.388895	-2.785042
H	0.611999	1.210562	-2.507728
Cl	-3.438006	0.0	0.0
