14

C	0.0	0.0	0.0
C	-0.453576	0.272315	-1.45315
Br	1.945999	0.0	0.0
H	0.115854	-0.371382	-2.124818
H	-0.343654	0.792073	0.665619
C	-0.45491	-1.312567	0.429134
N	-0.72357	-2.413495	0.741234
N	0.045808	1.67931	-1.79473
O	0.519618	1.842595	-2.914464
O	-0.126507	2.557424	-0.954083
N	-1.824461	0.21195	-1.737609
H	-2.502634	0.401267	-0.986926
H	-2.09267	-0.654641	-2.176841
Cl	-4.365643	0.0	0.0
