14

C	0.0	0.0	0.0
C	-0.332378	-0.232523	-1.566117
Br	1.963481	0.0	0.0
H	0.464796	0.296159	-2.116568
H	-0.355299	0.974337	0.320196
C	-0.350313	-1.078675	0.903222
N	-0.503404	-1.999731	1.626617
N	-1.539063	0.499202	-2.223952
O	-2.359831	-0.161656	-2.817898
O	-1.434174	1.717452	-2.22123
N	-0.348067	-1.596304	-1.970684
H	0.51745	-2.071102	-1.709624
H	-1.159995	-2.099088	-1.582465
Cl	-2.772971	0.0	0.0
