15
Coordinates from ORCA-job run
  C   1.26746937385887     -0.07404632228453     -0.10999134129029
  C   -0.24904088230700     -0.07680650400109     -0.35235359980938
  Br  1.74831270611182     -0.50475164655657      1.74184366470446
  H   -0.34509436735086      0.16944976123172     -1.41955726482994
  H   1.74273618607198     -0.85588454949253     -0.70748300976983
  C   1.86502244514632      1.21069945032823     -0.45349041343838
  N   2.30802921443168      2.25396421065656     -0.76272413219995
  C   -0.97606284172252      0.99399070751573      0.45268634685794
  H   -0.55720334741544      1.98746347332920      0.27686644731761
  H   -2.03004017273000      1.01818643321380      0.16622040541281
  H   -0.92203118067163      0.78117667681668      1.52231323421790
  C   -0.84379831405468     -1.46329236470785     -0.12944560596588
  H   -0.31303985106394     -2.22702532973882     -0.70482985044784
  H   -1.89008713613457     -1.47259186762710     -0.44363594853785
  H   -0.80617183217003     -1.74153212868342      0.92558106777862
