15
Coordinates from ORCA-job run
  C   1.23764446492853     -0.03050257294322     -0.11320439547971
  C   -0.21855831487636     -0.12666788476989      0.36188736266312
  Br  2.37818887414389     -1.40561769664405      0.69411513008913
  H   -0.20918874918219     -0.04901002634854      1.45520243864481
  H   1.29224433467316     -0.20966853016719     -1.19098888855560
  C   1.83197538689957      1.26723905906312      0.18372123054484
  N   2.27700871902277      2.32733298233761      0.42553494481001
  C   -0.84482370189556     -1.45653556587658     -0.04567232095553
  H   -0.32140457839061     -2.30817106460176      0.38909907635558
  H   -1.88479895018087     -1.49416502739705      0.28640805368081
  H   -0.83816976219367     -1.56649592561780     -1.13488512729051
  C   -1.01544264958005      1.04469238929600     -0.21624600338400
  H   -0.99675742423933      1.02518181000220     -1.31061960009677
  H   -0.63010104516082      2.01008682296137      0.11650752367011
  H   -2.05881660396847      0.97130123070578      0.09914057530371
