15
Coordinates from ORCA-job run
  C   1.21789116867525     -0.02862429351307     -0.24752578146770
  C   -0.17418643650415     -0.08310873594703      0.39641348933955
  Br  2.47450180188626     -1.28344424148869      0.58299797010293
  H   -0.04661674850065      0.13091877633000      1.46385215694890
  H   1.15770523601021     -0.33539889133112     -1.29592836844209
  C   1.80863159997574      1.30235689904139     -0.17499980408981
  N   2.25102105800076      2.38904653178893     -0.11142905705128
  C   -0.80671356558997     -1.46100460248338      0.22853094658692
  H   -1.80553915399235     -1.46687263612681      0.67069258088889
  H   -0.22061372756558     -2.24416363358590      0.70966226499625
  H   -0.91000999149668     -1.71002206526259     -0.83255907087079
  C   -1.05959798957880      0.99706659708262     -0.22860579724368
  H   -2.05945393154863      0.95297168995902      0.20921163282915
  H   -0.66408346018163      2.00089457610182     -0.06428336123434
  H   -1.16193585958978      0.83938402943482     -1.30702980129292
