12

C	-0.504711	0.001419	-1.431891
C	0.0	0.0	0.0
F	-0.154605	-1.199928	-2.038907
H	1.101126	0.0	0.0
H	-0.045564	0.81483	-1.996339
H	-1.595731	0.07257	-1.453486
N	-0.563366	-1.165967	0.702536
H	-0.25013	-1.973	0.172362
H	-0.086257	-1.230727	1.596543
C	-0.479702	1.230961	0.636614
N	-0.887181	2.217991	1.124648
Cl	3.392504	0.0	0.0
