12

C	-0.396137	-0.03611	-1.459215
C	0.0	0.0	0.0
F	-1.770955	0.058263	-1.639009
H	1.103773	0.0	0.0
H	-0.061974	-0.98137	-1.896384
H	0.077317	0.793036	-1.988949
N	-0.540249	-1.172833	0.718855
H	-0.017272	-1.972785	0.37078
H	-0.256933	-1.081496	1.689926
C	-0.499919	1.222398	0.631875
N	-0.899486	2.202872	1.138586
Cl	3.370078	0.0	0.0
