12

C	-0.516005	-0.03444	-1.430086
C	0.0	0.0	0.0
F	-0.06529	-1.165693	-2.076734
H	1.094325	0.0	0.0
H	-1.611711	-0.060539	-1.437893
H	-0.157542	0.841756	-1.977306
N	-0.456054	-1.168267	0.755701
H	-1.260986	-0.943419	1.328309
H	0.299185	-1.462759	1.363319
C	-0.452774	1.263151	0.606621
N	-0.889291	2.230811	1.111082
Cl	3.355924	0.0	0.0
