12

C	-0.374968	0.091613	-1.465446
C	0.0	0.0	0.0
F	-1.758565	-0.06455	-1.631304
H	1.096463	0.0	0.0
H	-0.092181	1.054914	-1.894322
H	0.115729	-0.7192	-2.008474
N	-0.448344	-1.232848	0.644454
H	-1.302337	-1.558094	0.209363
H	0.275423	-1.929997	0.529962
C	-0.52109	1.163424	0.730138
N	-0.944677	2.108951	1.282225
Cl	3.332182	0.0	0.0
