12

C	-0.525502	-0.075867	-1.424492
C	0.0	0.0	0.0
F	-0.198144	1.062074	-2.141389
H	1.099788	0.0	0.0
H	-1.613652	-0.177582	-1.410418
H	-0.073513	-0.937568	-1.922359
N	-0.50017	-1.212704	0.695013
H	-0.511049	-1.026868	1.691469
H	0.219015	-1.918429	0.563301
C	-0.515788	1.196475	0.66187
N	-0.972875	2.129733	1.208221
Cl	3.384345	0.0	0.0
