12

C	-0.520361	-0.112818	-1.42379
C	0.0	0.0	0.0
F	-0.371537	1.079178	-2.116079
H	1.093717	0.0	0.0
H	-1.584793	-0.368688	-1.418236
H	0.049496	-0.88967	-1.934121
N	-0.407422	-1.222877	0.70558
H	-1.265132	-1.073076	1.222053
H	0.323809	-1.464912	1.362816
C	-0.503874	1.218119	0.647354
N	-0.96566	2.138843	1.212758
Cl	3.350711	0.0	0.0
