17

C	-0.235582	0.041403	-1.503915
C	0.0	0.0	0.0
Cl	0.224573	-1.527363	-2.216479
H	1.096303	0.0	0.0
N	-1.705972	0.254183	-1.892157
O	-2.516794	0.413107	-0.979551
O	-1.978466	0.304748	-3.088617
C	0.597416	1.13928	-2.134901
H	0.575502	1.068179	-3.222467
H	1.606416	0.996905	-1.726567
H	0.20696	2.113687	-1.830125
C	-0.590842	-1.168909	0.637609
N	-1.040669	-2.105992	1.186798
N	-0.320978	1.219626	0.722328
H	0.499781	1.807517	0.723296
H	-1.137658	1.7012	0.380107
F	2.572441	0.0	0.0
