17

C	-0.569632	0.047938	-1.416993
C	0.0	0.0	0.0
Cl	0.315216	1.28269	-2.345945
H	1.092585	0.0	0.0
N	-0.303181	-1.271854	-2.13984
O	-0.922744	-1.460865	-3.186347
O	0.511002	-2.043906	-1.648686
C	-2.05071	0.337014	-1.481292
H	-2.601569	-0.471764	-0.99173
H	-2.220221	1.271722	-0.947262
H	-2.38501	0.426728	-2.51304
C	-0.559032	-1.128998	0.724183
N	-1.0672	-1.990585	1.345222
N	-0.320765	1.275679	0.671242
H	-0.964796	1.138419	1.439974
H	0.564003	1.601431	1.046255
F	2.527189	0.0	0.0
