17

C	-0.290947	-0.050654	-1.492036
C	0.0	0.0	0.0
Cl	-2.02974	-0.3071	-1.849199
H	1.095003	0.0	0.0
N	0.098838	1.29199	-2.117805
O	-0.310491	1.512333	-3.255454
O	0.862639	2.009543	-1.486498
C	0.590697	-1.087966	-2.155514
H	0.5165	-1.021221	-3.242223
H	0.285791	-2.083803	-1.830054
H	1.605328	-0.884127	-1.787047
C	-0.411825	-1.257678	0.607642
N	-0.748474	-2.246659	1.148711
N	-0.581971	1.161572	0.658275
H	0.171529	1.653305	1.121558
H	-1.271053	0.887569	1.344442
F	2.579819	0.0	0.0
