12

C	0.0	0.0	0.0
C	-0.49285	-0.146256	-1.436687
F	1.353565	0.0	0.0
H	-1.520545	-0.529662	-1.30665
H	-0.40674	0.849878	0.530726
H	0.202119	-0.769	-1.998713
N	-0.393018	-1.224425	0.79575
O	-0.460562	-2.279926	0.184582
O	-0.471421	-1.088205	2.005463
C	-0.611994	1.169226	-2.042577
N	-0.674191	2.251348	-2.487472
F	-2.480344	0.0	0.0
