12

C	0.0	0.0	0.0
C	-0.523598	-0.175828	-1.405471
F	1.353263	0.0	0.0
H	-1.613185	-0.392389	-1.191576
H	-0.407038	0.882124	0.477935
H	-0.492846	0.801727	-1.894859
N	-0.400457	-1.148956	0.88791
O	-0.51527	-2.256498	0.375157
O	-0.458997	-0.907339	2.090368
C	0.238711	-1.125264	-2.19807
N	0.845722	-1.858923	-2.887195
F	-2.570412	0.0	0.0
