13

C	0.0	0.0	0.0
C	-0.402209	0.115663	-1.46613
F	1.387374	0.0	0.0
H	0.118944	-0.687033	-2.003144
H	-0.381831	0.834268	0.581429
H	-1.485703	-0.028816	-1.456372
C	-0.453102	-1.263046	0.602698
N	-0.558503	-2.334716	1.072617
C	0.000987	1.474407	-2.02641
H	-0.561041	2.261922	-1.515968
H	-0.228018	1.544154	-3.094393
H	1.070199	1.669239	-1.897751
F	-2.527961	0.0	0.0
