13

C	0.0	0.0	0.0
C	-0.437557	-0.242408	-1.44025
F	1.387679	0.0	0.0
H	0.142484	0.461209	-2.052676
H	-0.361648	0.968103	0.341446
H	-1.504621	0.002334	-1.42276
C	-0.454529	-1.020114	0.958152
N	-0.574772	-1.859785	1.770494
C	-0.194818	-1.677022	-1.888798
H	-0.883365	-2.339484	-1.3603
H	-0.381179	-1.785574	-2.962301
H	0.830297	-2.004541	-1.688706
F	-2.567776	0.0	0.0
