13

C	0.0	0.0	0.0
C	-0.433621	0.185447	-1.449749
F	1.38775	0.0	0.0
H	-1.501386	0.410828	-1.367227
H	-0.362623	0.8244	0.609511
H	0.142941	1.038368	-1.832521
C	-0.45506	-1.266359	0.593207
N	-0.570738	-2.337274	1.06295
C	-0.18125	-1.055809	-2.294523
H	-0.376331	-0.852444	-3.352965
H	0.849588	-1.414421	-2.202942
H	-0.856421	-1.854073	-1.976596
F	-2.559567	0.0	0.0
