18

C	-0.307471	-0.010024	-1.492572
C	0.0	0.0	0.0
Br	-2.290988	-0.096355	-1.791565
H	1.094856	0.0	0.0
C	0.199874	1.304599	-2.0659
H	0.073538	1.312175	-3.150326
H	1.267268	1.370649	-1.816821
H	-0.319359	2.165266	-1.643534
C	0.334686	-1.17356	-2.226092
H	-0.112373	-2.127958	-1.962641
H	1.392861	-1.187588	-1.939529
H	0.238156	-1.011414	-3.302921
N	-0.413284	-1.191631	0.745868
O	0.026715	-2.274478	0.343972
O	-1.09067	-1.048564	1.770304
C	-0.484819	1.18879	0.670036
N	-0.772806	2.208882	1.177229
H	2.490789	0.0	0.0
