18

C	-0.419353	-0.049902	-1.48578
C	0.0	0.0	0.0
Br	0.057512	1.738378	-2.219007
H	1.091256	0.0	0.0
C	0.397373	-1.047507	-2.297455
H	0.097885	-2.062261	-2.040566
H	0.229472	-0.875298	-3.363658
H	1.455835	-0.919393	-2.062097
C	-1.917767	-0.216946	-1.666552
H	-2.208157	-1.195417	-1.276004
H	-2.464155	0.562276	-1.132217
H	-2.181308	-0.166582	-2.726518
N	-0.354163	-1.188664	0.764492
O	-0.424159	-2.279566	0.172127
O	-0.405633	-1.073664	1.997395
C	-0.50623	1.160896	0.704428
N	-0.898783	2.127392	1.24809
H	2.422939	0.0	0.0
