17

C	-0.464199	0.089158	-1.447478
C	0.0	0.0	0.0
Br	-0.012655	-1.734883	-2.292261
H	1.092618	0.0	0.0
H	-0.347027	-0.939524	0.441234
N	-1.863928	0.32454	-1.55011
H	-2.380278	-0.382201	-1.039678
H	-2.160986	0.300665	-2.518155
C	0.328301	1.098927	-2.253646
H	1.396018	0.902346	-2.143514
H	0.052925	1.060346	-3.311189
H	0.106663	2.099586	-1.870713
C	-0.477789	1.184785	0.842077
H	-0.130592	2.131622	0.423699
H	-1.56594	1.229411	0.924804
H	-0.048572	1.099822	1.843708
Br	3.72107	0.0	0.0
