17

C	-0.27448	0.03185	-1.49235
C	0.0	0.0	0.0
Br	-2.262371	0.095282	-1.854516
H	1.099932	0.0	0.0
H	-0.343779	-0.953217	0.411749
N	0.289885	1.241037	-2.040943
H	0.321832	1.177647	-3.052745
H	1.248341	1.304886	-1.695525
C	0.231011	-1.240729	-2.157321
H	1.307164	-1.301596	-1.957318
H	0.061128	-1.20881	-3.237774
H	-0.260076	-2.128826	-1.75176
C	-0.530149	1.178045	0.799824
H	-1.621983	1.169095	0.850168
H	-0.21671	2.119507	0.347752
H	-0.132507	1.139108	1.817235
Br	3.63086	0.0	0.0
