17

C	-0.419617	-0.074464	-1.469655
C	0.0	0.0	0.0
Br	-0.227989	1.727319	-2.297609
H	1.09544	0.0	0.0
H	-0.291403	-0.977515	0.415791
N	0.444527	-0.952337	-2.237761
H	1.41245	-0.712715	-2.018079
H	0.302345	-1.894564	-1.880585
C	-1.866363	-0.489837	-1.673642
H	-2.552008	0.198037	-1.176912
H	-2.097625	-0.523338	-2.738991
H	-2.009244	-1.490903	-1.248322
C	-0.570113	1.111895	0.866019
H	-1.664072	1.149074	0.834479
H	-0.183795	2.081649	0.552686
H	-0.266821	0.953837	1.904415
Br	3.678329	0.0	0.0
