17

C	-0.395888	-0.061253	-1.480889
C	0.0	0.0	0.0
Br	-0.217535	1.796991	-2.195696
H	1.095254	0.0	0.0
H	-0.371962	0.910525	0.475287
N	0.491932	-0.880397	-2.278971
H	0.319308	-1.8532	-2.043349
H	1.454309	-0.674307	-2.008445
C	-1.834611	-0.474953	-1.737706
H	-2.054204	-0.404713	-2.803623
H	-2.528281	0.159286	-1.182285
H	-1.980783	-1.51244	-1.418443
C	-0.452159	-1.232098	0.784695
H	0.01786	-1.216796	1.770928
H	-0.125769	-2.154935	0.296351
H	-1.536628	-1.276985	0.923227
Br	3.674459	0.0	0.0
