17

C	-0.313115	0.007952	-1.483937
C	0.0	0.0	0.0
Br	-2.306243	0.283117	-1.758401
H	1.099644	0.0	0.0
H	-0.328094	0.956322	0.416125
N	0.342653	1.148816	-2.0612
H	0.364351	1.068419	-3.072036
H	1.30106	1.168397	-1.711315
C	0.013829	-1.31125	-2.166936
H	-0.166165	-1.235541	-3.242708
H	1.077153	-1.508637	-1.991804
H	-0.579724	-2.140002	-1.778601
C	-0.531729	-1.170161	0.808232
H	-1.619301	-1.257583	0.729115
H	-0.273701	-1.030943	1.861095
H	-0.078389	-2.11183	0.491903
Br	3.638793	0.0	0.0
