16

C	-0.572959	0.019447	-1.399113
C	0.0	0.0	0.0
Cl	0.049593	1.405439	-2.306403
H	1.089368	0.0	0.0
H	-1.659553	0.067002	-1.416011
N	-0.235313	-1.227791	-2.185754
O	0.7252	-1.892655	-1.82571
O	-0.968643	-1.453907	-3.1456
N	-0.484049	-1.239939	0.68461
O	0.043192	-1.531052	1.74998
O	-1.425511	-1.854484	0.169984
C	-0.487147	1.176387	0.83551
H	-0.078416	1.074836	1.840765
H	-1.581104	1.207104	0.8852
H	-0.114406	2.107841	0.411891
Cl	3.312128	0.0	0.0
