16

C	-0.427849	-0.065471	-1.450714
C	0.0	0.0	0.0
Cl	-2.192998	0.048212	-1.670136
H	1.099471	0.0	0.0
H	-0.100011	-0.995614	-1.900232
N	0.211262	1.019554	-2.280232
O	-0.001569	2.18707	-1.973671
O	0.87901	0.631887	-3.234167
N	-0.384382	-1.322149	0.611854
O	-0.763227	-1.325005	1.780935
O	-0.255584	-2.331602	-0.079213
C	-0.515574	1.149604	0.832049
H	-0.075667	1.085706	1.825447
H	-1.602851	1.136546	0.922219
H	-0.200625	2.083508	0.371303
Cl	3.214711	0.0	0.0
