16

C	-0.449083	-0.017682	-1.446109
C	0.0	0.0	0.0
Cl	-2.220314	0.017792	-1.627665
H	1.096674	0.0	0.0
H	-0.082473	-0.906475	-1.947017
N	0.125927	1.141478	-2.221728
O	-0.222531	2.276555	-1.912615
O	0.893674	0.840376	-3.131151
N	-0.373945	-1.343173	0.571636
O	-0.257391	-2.325658	-0.159074
O	-0.72913	-1.389161	1.746964
C	-0.510809	1.120819	0.87321
H	-1.598606	1.114832	0.958375
H	-0.074697	1.015386	1.864847
H	-0.186569	2.070459	0.45192
Cl	3.217164	0.0	0.0
