16

C	-0.582846	0.035886	-1.394844
C	0.0	0.0	0.0
Cl	0.07361	1.40296	-2.306902
H	1.08914	0.0	0.0
H	-1.667596	0.118233	-1.400221
N	-0.29426	-1.219535	-2.187723
O	-1.026977	-1.403194	-3.156913
O	0.625092	-1.935981	-1.821002
N	-0.507445	-1.224251	0.691015
O	-1.470565	-1.813942	0.187596
O	0.019001	-1.524546	1.754139
C	-0.454292	1.191081	0.836068
H	-0.040893	1.080594	1.838255
H	-0.056028	2.110351	0.409026
H	-1.546163	1.254592	0.891514
Cl	3.297056	0.0	0.0
