16

C	-0.448728	0.003108	-1.4443
C	0.0	0.0	0.0
Cl	-2.205212	0.236424	-1.634618
H	1.091562	0.0	0.0
H	-0.187499	-0.929722	-1.929934
N	0.249686	1.072821	-2.246955
O	0.874183	0.672993	-3.225674
O	0.126025	2.240708	-1.895577
N	-0.374031	-1.339435	0.579556
O	-0.420391	-2.311025	-0.17418
O	-0.560507	-1.393256	1.792281
C	-0.504232	1.116652	0.886759
H	-0.288292	2.06887	0.406961
H	0.025823	1.07449	1.835991
H	-1.576551	1.037807	1.071724
Cl	3.211116	0.0	0.0
