12
Coordinates from ORCA-job run
  C   -0.66157999702790     -0.25595170455029     -0.53800589049093
  C   0.55713600356073     -0.71728892886262      0.23406614918476
  Cl  -1.69076877350299     -1.70126367266594     -0.75359360074589
  H   0.26926491183264     -1.05989940329995      1.22690010820912
  H   -0.37592939574396      0.05632616449146     -1.54675245928878
  H   1.09883701620125     -1.50640270136841     -0.28954665732458
  N   -1.39276725895916      0.72752929015763      0.22725888077133
  H   -0.89056765852917      1.60664439004325      0.17211964722205
  H   -2.31045504678478      0.86589820566845     -0.17781987891882
  N   1.54436718621697      0.39100649832847      0.43663197106908
  O   1.41064380761099      1.41710336185500     -0.23095461642218
  O   2.44381920512539      0.17429850020296      1.23869634673483
