12
Coordinates from ORCA-job run
  C   -0.72600155027111     -0.10863416390199      0.08104753685349
  C   0.72781068705473      0.03444952987183     -0.31391175595591
  Cl  -1.03677728971925      1.04470120812987      1.46954156847580
  H   0.97873487033725      1.05579243290536     -0.59527826294229
  H   -0.89732857567240     -1.09805073050222      0.49961525565175
  H   0.94415683977022     -0.66124916362170     -1.12635370118473
  N   -1.55207578496893      0.09849053007803     -1.05172018030351
  H   -2.51984567221874     -0.10967700225832     -0.84592066414093
  H   -1.49063970666889      1.05086560168099     -1.38949351383273
  N   1.62889046862440     -0.33534600045949      0.81543339509124
  O   1.39190859135621     -1.40199038375365      1.37593874804398
  O   2.55016712237652      0.43064814183132      1.07910157424383
