12
Coordinates from ORCA-job run
  C   -0.69955107853194     -0.29588124861003     -0.29368717713026
  C   0.55765976289959      0.35754774530060      0.26540873438674
  Cl  -1.24086750517182     -1.52786405638250      0.88838512436755
  H   0.91042855891209      1.12182675037257     -0.43105853980019
  H   -0.44849484399789     -0.83197351010982     -1.20827908892533
  H   0.38593925560806      0.78020303743536      1.25415074989412
  N   -1.77136253571313      0.61748487716528     -0.56061911486092
  H   -1.59530835153412      1.15270572446436     -1.40051119700516
  H   -1.94548278794022      1.23803201166337      0.21929256264544
  N   1.67022057488666     -0.62742490069892      0.39718748000079
  O   1.93550031035497     -1.27978387445434     -0.60996373632627
  O   2.24031864022775     -0.70587255614593      1.48069420275349
