12
Coordinates from ORCA-job run
  C   -0.76370665662675     -0.33347723434081     -0.46748139634332
  C   0.54522982327329     -0.74228150887109      0.20441723920566
  Cl  -1.83692962433824     -1.77671540711521     -0.34076560059021
  H   0.39450679333616     -0.99078694805935      1.25358835369485
  H   -0.58936198515260     -0.17568766632490     -1.53101952551909
  H   1.03245587071986     -1.55923876379196     -0.32728928128640
  N   -1.39338499868649      0.82052984850343      0.07396433363203
  H   -1.34029979367655      0.87320357292086      1.08165085295395
  H   -1.06475238184670      1.67400139261062     -0.35249862254835
  N   1.45768878844994      0.43233459462774      0.15472727042259
  O   1.80776371617220      0.80111444395420     -0.96521679756452
  O   1.74979044837587      0.97900367588648      1.21592317394281
