12
Coordinates from ORCA-job run
  C   -0.74251625690071     -0.16445024473606      0.05847093249940
  C   0.68480622881837      0.34444019082385     -0.00681161273233
  Cl  -1.19207080457483     -0.38430207956524      1.77314195005970
  H   0.95625224203017      0.58874116627807     -1.03818131763955
  H   -0.80688585750460     -1.16023886539250     -0.38534152798687
  H   0.80725485392648      1.21460955835501      0.63239850756872
  N   -1.60278615253450      0.84177759113625     -0.52026048126065
  H   -1.39137235944435      0.94113101541374     -1.50695402532777
  H   -2.57222267815422      0.56425137375664     -0.43069434530777
  N   1.66838821740093     -0.68728847042350      0.43407000457585
  O   2.69509943397025     -0.26324704255793      0.95657749704799
  O   1.49705313296699     -1.83442419308833      0.03258441850329
