12
Coordinates from ORCA-job run
  C   -0.70105030795536     -0.20426517073492     -0.10953088754559
  C   0.71737875339018      0.32309130673879     -0.10318047214363
  Cl  -1.20214357624290     -0.46205836157603      1.63295770370374
  H   0.81003844586792      1.24595690517961      0.46690594388168
  H   -0.72199085824949     -1.19728257982246     -0.55332727876059
  H   1.04775294331845      0.46341387289448     -1.13372102546476
  N   -1.53662542998548      0.67977882135910     -0.83709928593295
  H   -2.46264510139001      0.29336059283925     -0.96146491242978
  H   -1.61996713962478      1.57757398019855     -0.37672427313354
  N   1.65204650787609     -0.66095281541230      0.51447150140924
  O   1.57743049626860     -1.81630946726781      0.10496718782154
  O   2.43977526672679     -0.24230708439625      1.35674579859465
