17
Coordinates from ORCA-job run
  C   0.59217329767722     -0.20401273312386      0.36734996540192
  C   -0.80308663749814      0.40898325170664      0.13021661029130
  F   0.56835409019616     -0.72478526131357      1.66172295909487
  H   -0.91313218527584      1.22059551887845      0.85838469612577
  C   1.69536437185450      0.83965924289133      0.35177490613593
  H   1.78820693102411      1.29061527481966     -0.63786939132829
  H   1.49802729624935      1.62455896077974      1.08548595385415
  H   2.64242913142331      0.35981174542054      0.60971013592999
  N   0.78164062654217     -1.32332982965810     -0.51536626227429
  H   1.70834753064793     -1.71170982451408     -0.38261215539936
  H   0.69316284083378     -1.03432933701818     -1.48273172715753
  C   -1.93242772762448     -0.60620312223956      0.32475179267637
  H   -1.86239180308087     -1.02985963179285      1.32611328279838
  H   -2.90196152332706     -0.11768252057692      0.21148219461876
  H   -1.84936642437720     -1.41515806681763     -0.39915261695542
  C   -0.84596629382282      0.99683015369888     -1.20893947972356
  N   -0.85837352144212      1.42601617885953     -2.30232086408898
