17
Coordinates from ORCA-job run
  C   0.67202741466378     -0.15863980864951      0.20983959534714
  C   -0.78158146364397      0.34140533238014      0.28872348812071
  F   0.86865719191447     -0.84804445841268      1.43938972452594
  H   -0.85530407782562      0.91168811572019      1.22140495917763
  C   1.68126574869290      0.96749644153179      0.18461153479145
  H   1.52670051145123      1.62770318404981      1.03921426431557
  H   2.68808951366262      0.54968324660591      0.25841235566679
  H   1.59735318899794      1.54062804271583     -0.73846338125945
  N   0.84845871473089     -1.02327439246352     -0.89730639366894
  H   0.29924894509127     -1.86720744060269     -0.79938321604271
  H   1.82161458075498     -1.27922277347515     -1.00541466888323
  C   -1.80781933555032     -0.79528970871254      0.32152498279269
  H   -1.53999820957059     -1.50796057794426      1.10258360996791
  H   -2.80076085772443     -0.39871830420572      0.53855356645283
  H   -1.85872572575178     -1.30576980166016     -0.64168062375002
  C   -1.05837017470569      1.25623210956809     -0.81923539834600
  N   -1.30185596518767      1.98829079355447     -1.70377439920830
