17
Coordinates from ORCA-job run
  C   0.67486101638271     -0.14965342453192      0.44235059301510
  C   -0.85516627840207      0.00858930940842      0.48429462047501
  F   1.12063553346445      0.25716005379957      1.72365473951333
  H   -1.21041576675207     -0.65438360716234      1.28375490204899
  C   1.36405305362869      0.74846441567458     -0.55996303531552
  H   2.44505879412321      0.66126951500890     -0.42801685174546
  H   1.11026844051550      0.46213901081261     -1.58027213942871
  H   1.08716134999398      1.78919372515466     -0.38891993389443
  N   0.99223933938535     -1.51542806399434      0.20859391558044
  H   0.66252388007397     -2.09087134433957      0.97517274599842
  H   1.99414139135296     -1.63690562502135      0.12519142032874
  C   -1.54018806747291     -0.36524460615447     -0.83278264411607
  H   -1.28259720517845      0.34441710479915     -1.62023572018477
  H   -2.62446218306521     -0.35059204986978     -0.70967914496384
  H   -1.22548530175578     -1.36255263678568     -1.13770775715562
  C   -1.20559124405252      1.37599557666414      0.87437621486402
  N   -1.50503675224184      2.47940264653743      1.14018807498038
