17
Coordinates from ORCA-job run
  C   0.65349378913614      0.01707581253944      0.36628965243036
  C   -0.83310377937392     -0.20793593025825      0.00508409529967
  F   0.70435029435791      1.31176000013938      0.92885054757079
  H   -0.88453116898062     -1.16609329883342     -0.52565536820346
  C   1.54621800421163      0.05802992024194     -0.85864497972818
  H   1.48146661117226     -0.87422698719668     -1.42417600545376
  H   1.28271766100280      0.89444342905704     -1.50425875456394
  H   2.57721795871117      0.20625413172784     -0.52939702262614
  N   1.12764394995796     -0.91849901317795      1.30997919737314
  H   1.92686348281081     -1.46218027708404      1.03632465390238
  H   0.43740093845751     -1.43312231236930      1.83085313970755
  C   -1.43494769354155      0.89932910645131     -0.86614647590833
  H   -1.00764063937822      0.87283064112045     -1.86927337154269
  H   -1.23554062873351      1.87201077045625     -0.41894928369467
  H   -2.51454029377231      0.77027627717555     -0.95622627612649
  C   -1.61176317593184     -0.35582568619477      1.23795036820335
  N   -2.21330531010622     -0.48312658379477      2.23839588336042
