17
Coordinates from ORCA-job run
  C   0.68868138451434      0.00497456776931      0.34287369932611
  C   -0.81306918814171     -0.21458130572702      0.02173028727786
  F   0.74757046131764      1.22785285628701      1.01243672903796
  H   -0.88572038291514     -1.16752598469140     -0.51689515268194
  C   1.53334636664381      0.11833256681336     -0.90952456104424
  H   1.42002472046375     -0.76235533354084     -1.54710589975111
  H   1.25713599479821      1.00491873570870     -1.47851409235337
  H   2.57706041807905      0.21009802205910     -0.60809999821071
  N   1.26033507694403     -0.96943457298917      1.22273314343603
  H   0.66100788929185     -1.15739195610021      2.01771347384485
  H   1.46850653360256     -1.83197069634968      0.73891114027716
  C   -1.44714040431416      0.90042624504521     -0.81522553621419
  H   -2.51783073565181      0.72618161014260     -0.93427741155412
  H   -1.30314397758415      1.86257758306515     -0.32390555681841
  H   -0.99908631622223      0.93776399149496     -1.80880722783219
  C   -1.54084557579087     -0.37768680494662      1.28315299278817
  N   -2.10583226503516     -0.51117952404045      2.30380397047212
