17
Coordinates from ORCA-job run
  C   0.71847929217113     -0.17209146465229      0.26678251238226
  C   -0.75644475855200      0.31259641079030      0.29138793798472
  F   0.87374906265247     -0.84479578725198      1.48090098180775
  H   -0.85365468265160      0.99636164459573      1.14247736112559
  C   1.69573267361972      0.98301669843909      0.24877557577873
  H   1.51139744769134      1.64059937751894      1.09985310142347
  H   2.70568538009881      0.57917175881428      0.32228122952903
  H   1.60739401784290      1.56503725215107     -0.67078408240647
  N   1.04705958693367     -1.10615515960538     -0.76638499679808
  H   0.37112135850875     -1.85582532583274     -0.83016110340730
  H   1.13365148323542     -0.64993102320500     -1.66449403721303
  C   -1.76414924160810     -0.82818643250198      0.45644841495130
  H   -1.77393281858784     -1.48063818726844     -0.41868133105759
  H   -1.51052835569512     -1.41502426069995      1.33906970959871
  H   -2.77152152530303     -0.42723568802901      0.57856241420970
  C   -1.02188813600533      1.06639853176804     -0.93355176855135
  N   -1.21215078435113      1.63670165496924     -1.94248191935748
