13

C	-0.425951	0.120053	-1.457243
C	0.0	0.0	0.0
Br	-2.38239	0.194463	-1.645827
H	1.093978	0.0	0.0
H	-0.13194	-0.811403	-1.944974
C	0.157952	1.229509	-2.199429
N	0.550495	2.066538	-2.923223
C	-0.490605	-1.239281	0.579531
N	-0.851496	-2.290648	0.95899
N	-0.432548	1.171766	0.821463
O	-0.347915	2.270091	0.282958
O	-0.778316	0.958447	1.97888
Cl	3.079717	0.0	0.0
