13

C	-0.430211	-0.011123	-1.459348
C	0.0	0.0	0.0
Br	-2.38451	-0.014105	-1.656639
H	1.09522	0.0	0.0
H	-0.099328	-0.968292	-1.87049
C	0.126681	1.053974	-2.283747
N	0.528031	1.849579	-3.04915
C	-0.482685	-1.182328	0.695331
N	-0.852353	-2.171395	1.210309
N	-0.430983	1.233253	0.732893
O	-0.561571	1.139081	1.948443
O	-0.558819	2.256114	0.068584
Cl	3.086271	0.0	0.0
