13

C	-0.548362	-0.021204	-1.429002
C	0.0	0.0	0.0
Br	0.175463	1.471706	-2.448305
H	1.091622	0.0	0.0
H	-1.629047	0.12639	-1.410255
C	-0.237835	-1.274762	-2.101486
N	-0.058543	-2.291088	-2.663036
C	-0.529342	-1.133456	0.749102
N	-0.979163	-2.045449	1.338746
N	-0.504766	1.248043	0.692567
O	0.238135	1.76124	1.518496
O	-1.63957	1.62772	0.399868
Cl	3.161374	0.0	0.0
