13

C	-0.427696	-0.012868	-1.460303
C	0.0	0.0	0.0
Br	-2.381709	-0.009924	-1.659237
H	1.095217	0.0	0.0
H	-0.099649	-0.971832	-1.868314
C	0.13254	1.048691	-2.287335
N	0.533065	1.842631	-3.055266
C	-0.483701	-1.18205	0.694556
N	-0.85074	-2.174332	1.204922
N	-0.435322	1.233898	0.727988
O	-0.541717	2.258687	0.062684
O	-0.593637	1.139075	1.940424
Cl	3.086152	0.0	0.0
