13

C	-0.423133	-0.011688	-1.462074
C	0.0	0.0	0.0
Br	-2.376214	0.009524	-1.663397
H	1.09522	0.0	0.0
H	-0.103251	-0.973662	-1.868448
C	0.14797	1.043925	-2.290782
N	0.525691	1.830252	-3.078419
C	-0.488982	-1.180485	0.693481
N	-0.863392	-2.172203	1.199647
N	-0.438304	1.238566	0.71932
O	-0.457862	2.274598	0.064005
O	-0.687613	1.135203	1.915613
Cl	3.088326	0.0	0.0
