13

C	-0.427113	-0.024867	-1.460283
C	0.0	0.0	0.0
Br	-2.381502	-0.008244	-1.660629
H	1.095162	0.0	0.0
H	-0.107853	-0.99122	-1.858483
C	0.142386	1.022429	-2.297441
N	0.564792	1.802612	-3.067577
C	-0.486564	-1.17454	0.705308
N	-0.853599	-2.160581	1.227651
N	-0.431291	1.242322	0.716772
O	-0.590353	1.158113	1.929612
O	-0.531143	2.261271	0.043903
Cl	3.086715	0.0	0.0
