13

C	-0.473182	0.002311	-1.453499
C	0.0	0.0	0.0
Br	0.128457	-1.624164	-2.335363
H	1.094909	0.0	0.0
H	0.009768	0.830991	-1.969516
C	-1.923739	0.103351	-1.568014
N	-3.094685	0.176659	-1.63714
C	-0.529449	-1.113243	0.770005
N	-0.95372	-2.035997	1.360627
N	-0.393987	1.297396	0.65201
O	-0.489097	1.308917	1.872382
O	-0.526709	2.267594	-0.091812
Cl	3.101582	0.0	0.0
