16

C	-0.320581	0.023551	-1.491457
C	0.0	0.0	0.0
Br	-0.169895	-1.793238	-2.21908
H	1.094434	0.0	0.0
H	-0.394322	-0.901702	0.468942
N	-1.783402	0.441657	-1.641152
O	-2.000532	1.567087	-2.086168
O	-2.634838	-0.317366	-1.193046
N	0.486961	0.881636	-2.29296
H	1.459072	0.703725	-2.036099
H	0.264254	1.846608	-2.080543
C	-0.485219	1.254814	0.720567
H	-1.576298	1.299765	0.790369
H	-0.127771	2.16228	0.228292
H	-0.075793	1.25846	1.732893
Br	3.57311	0.0	0.0
