16

C	-0.275488	0.039158	-1.488576
C	0.0	0.0	0.0
Br	-0.175686	-1.890794	-2.216135
H	1.094861	0.0	0.0
H	-0.389819	-0.909668	0.44996
N	-1.720331	0.37462	-1.845634
O	-2.588587	-0.016279	-1.073589
O	-1.920218	0.991409	-2.890199
N	0.576367	0.920354	-2.125499
H	1.541292	0.782691	-1.823381
H	0.473257	0.948683	-3.126598
C	-0.481416	1.257135	0.720588
H	-1.568287	1.284424	0.820955
H	-0.146963	2.15107	0.191523
H	-0.0379	1.279691	1.71871
Br	3.566039	0.0	0.0
