15

C	-0.299752	-0.031863	-1.495049
C	0.0	0.0	0.0
Cl	-2.098466	-0.091441	-1.79539
H	1.096493	0.0	0.0
H	-0.358019	0.928364	0.449312
C	0.220093	1.249008	-2.134888
H	-0.279104	2.132594	-1.729762
H	1.293354	1.312766	-1.931586
H	0.052826	1.221319	-3.214928
N	0.277041	-1.241631	-2.024481
H	1.242331	-1.292568	-1.700223
H	0.280318	-1.207982	-3.037708
C	-0.529263	-1.141187	0.731981
N	-0.970901	-2.029091	1.359913
Cl	3.344829	0.0	0.0
