15

C	-0.300632	-0.031175	-1.505308
C	0.0	0.0	0.0
Cl	-2.099639	-0.049712	-1.76553
H	1.095805	0.0	0.0
H	-0.370881	0.912781	0.472352
C	0.272121	1.215253	-2.151485
H	-0.192003	2.113046	-1.739577
H	0.098856	1.176113	-3.22757
H	1.346686	1.245172	-1.946555
N	0.245947	-1.197555	-2.162528
H	-0.097211	-2.034692	-1.701294
H	1.254807	-1.166188	-2.014661
C	-0.508485	-1.170785	0.697818
N	-0.915629	-2.120969	1.255039
Cl	3.344172	0.0	0.0
