15

C	-0.436161	0.089731	-1.45941
C	0.0	0.0	0.0
Cl	-2.253955	0.674498	-1.449204
H	1.094786	0.0	0.0
H	-0.327757	0.895028	0.532758
C	0.346653	1.169643	-2.174469
H	1.406321	0.909822	-2.108735
H	0.033466	1.24287	-3.219257
H	0.186717	2.136225	-1.696878
N	-0.311566	-1.147118	-2.111522
H	-0.583327	-1.093767	-3.083112
H	-0.813445	-1.890444	-1.644189
C	-0.540986	-1.176397	0.663966
N	-1.006465	-2.136831	1.153471
Cl	3.379648	0.0	0.0
