15

C	-0.450201	0.027425	-1.455116
C	0.0	0.0	0.0
Cl	-2.350646	0.072465	-1.450501
H	1.094019	0.0	0.0
H	-0.344944	-0.920385	0.481369
C	0.005403	1.280713	-2.1708
H	-0.299463	1.253208	-3.220019
H	-0.423298	2.169194	-1.707231
H	1.096355	1.315369	-2.101195
N	0.020391	-1.124562	-2.109739
H	-0.293767	-1.179514	-3.068475
H	-0.195915	-1.977795	-1.614732
C	-0.491965	1.13891	0.763113
N	-0.88865	2.056331	1.37855
Cl	3.382087	0.0	0.0
