14

C	-0.498608	-0.07669	-1.42464
C	0.0	0.0	0.0
F	0.09744	0.806458	-2.240519
H	1.091233	0.0	0.0
H	-0.359186	-0.848913	0.577674
N	-0.137385	-1.49378	-1.937783
O	-0.611662	-2.415939	-1.285509
O	0.553903	-1.560685	-2.936865
C	-1.961587	0.021474	-1.556663
N	-3.130368	0.06852	-1.666726
N	-0.479502	1.226677	0.679507
O	-0.393071	1.231985	1.902346
O	-0.905016	2.151129	-0.013885
Br	3.359041	0.0	0.0
