14

C	-0.469206	0.242808	-1.412433
C	0.0	0.0	0.0
F	0.13698	-0.541377	-2.318972
H	1.107744	0.0	0.0
H	-0.356547	0.773625	0.676001
N	-1.992272	0.000256	-1.540149
O	-2.663922	0.423863	-0.607749
O	-2.388474	-0.53956	-2.557006
C	-0.287019	1.657755	-1.774639
N	-0.173155	2.785514	-2.083218
N	-0.481348	-1.297018	0.527178
O	-0.9369	-2.116556	-0.270428
O	-0.372224	-1.459753	1.737193
Br	3.354722	0.0	0.0
