14

C	-0.494998	-0.008071	-1.427621
C	0.0	0.0	0.0
F	0.058823	0.954969	-2.181451
H	1.090602	0.0	0.0
H	-0.353017	-0.881856	0.531075
N	-0.062611	-1.369519	-2.030102
O	0.627118	-1.338135	-3.032358
O	-0.490863	-2.352728	-1.439023
C	-1.96042	0.02459	-1.560919
N	-3.12935	0.033901	-1.675641
N	-0.490292	1.184542	0.743579
O	-1.003094	2.10714	0.108052
O	-0.329938	1.156767	1.958391
Br	3.361653	0.0	0.0
