11
Coordinates from ORCA-job run
  C   1.22400066284250      0.07890532734230      0.02168846169090
  C   -0.14234836047159     -0.52361107912879     -0.23913600282580
  Cl  2.53400599384550     -1.02147797578310     -0.49989359790701
  H   -0.21840865566017     -1.47740461648485      0.29017800591453
  H   1.37387269300153      0.26998924971250      1.08491304308305
  H   1.35469837336675      1.01171365320821     -0.52804604408963
  H   -0.23739172125017     -0.74335216656832     -1.30607665378410
  C   -1.25550922600838      0.42044360027027      0.20822724411428
  H   -1.20821880536834      1.37179018621012     -0.32781319953588
  H   -2.23660014802749     -0.01925218983010      0.01771417948515
  H   -1.18910080627014      0.63325601105178      1.27824456385450
