11
Coordinates from ORCA-job run
  C   1.26187798623410     -0.09409596843805     -0.16826155956595
  C   -0.16493281584005     -0.60707948314448     -0.11558462128427
  Cl  1.78478457341153      0.57881129618053      1.40684575801261
  H   -0.35877648473411     -1.11206479790950     -1.06941351986458
  H   1.96098982329355     -0.89403882815513     -0.41149232703616
  H   1.36558112023349      0.70562296774618     -0.90312790126054
  H   -0.24039737243547     -1.36669331318018      0.66789356124124
  C   -1.20179030824357      0.48716123160810      0.10741528282651
  H   -1.14407943206001      1.24497587762084     -0.67875230247394
  H   -1.05152282999885      0.98430071476765      1.06654038416109
  H   -2.21173425986062      0.07210030290404      0.09793724524399
