18

C	-0.351939	-0.029432	-1.47141
C	0.0	0.0	0.0
Br	-2.364976	-0.144441	-1.751689
H	1.098876	0.0	0.0
C	0.019472	1.235139	-2.105347
N	0.341358	2.202142	-2.691231
C	0.302005	-1.189646	-2.201761
H	-0.116795	-2.13805	-1.864197
H	1.370433	-1.149559	-1.947229
H	0.162472	-1.107105	-3.280957
C	-0.417815	-1.245832	0.766936
H	-1.507056	-1.362918	0.798133
H	0.027289	-2.1532	0.351844
H	-0.042178	-1.147183	1.789388
N	-0.447883	1.24642	0.601211
H	-1.315204	1.110959	1.108215
H	0.268047	1.554954	1.25037
H	2.798409	0.0	0.0
