18

C	-0.459588	0.048245	-1.469156
C	0.0	0.0	0.0
Br	-0.056679	-1.658994	-2.394152
H	1.099598	0.0	0.0
C	-1.912258	0.205705	-1.547998
N	-3.080272	0.344718	-1.571218
C	0.277362	1.154987	-2.213275
H	1.349575	0.986638	-2.07673
H	0.015383	1.159454	-3.27367
H	0.005149	2.106395	-1.754691
C	-0.527602	-1.175617	0.800893
H	-0.196345	-2.130169	0.390339
H	-0.130249	-1.09563	1.817022
H	-1.624727	-1.173525	0.850995
N	-0.389487	1.294365	0.577713
H	0.418685	1.652456	1.077853
H	-1.152235	1.179271	1.23363
H	2.900849	0.0	0.0
