18

C	-0.392256	0.040463	-1.498574
C	0.0	0.0	0.0
Br	0.067947	-1.655826	-2.411236
H	1.096757	0.0	0.0
C	-1.84154	0.185255	-1.657522
N	-3.003341	0.354878	-1.752758
C	0.368203	1.148356	-2.227343
H	1.431118	1.021754	-1.992411
H	0.199231	1.101124	-3.3052
H	0.030485	2.121656	-1.863478
C	-0.565068	-1.180652	0.765316
H	-0.217204	-2.131979	0.361682
H	-0.216515	-1.09378	1.795887
H	-1.662614	-1.173194	0.770809
N	-0.385452	1.241229	0.670332
H	-1.305868	1.568713	0.399043
H	0.305855	1.956021	0.481807
H	2.923094	0.0	0.0
