13

C	0.0	0.0	0.0
C	-0.288973	-0.428088	-1.516953
Cl	1.767905	0.0	0.0
H	0.575527	-0.050206	-2.077614
H	-0.408524	-0.625713	0.781443
H	-0.168498	-1.517488	-1.489114
N	-0.382824	1.419484	0.279199
O	-0.372229	2.20321	-0.671201
O	-0.539355	1.73334	1.457008
N	-1.47911	-0.09192	-2.272475
H	-2.2285	-0.277048	-1.593737
H	-1.515457	0.927475	-2.307998
F	-2.414884	0.0	0.0
