13

C	0.0	0.0	0.0
C	-0.425048	-0.077256	-1.522278
Cl	1.763825	0.0	0.0
H	-0.81199	-1.094196	-1.626001
H	-0.391225	-0.809512	0.600193
H	0.496891	-0.000705	-2.107838
N	-0.401137	1.246723	0.72388
O	-0.323873	2.31062	0.114269
O	-0.670836	1.135892	1.913158
N	-1.406525	0.824884	-2.070977
H	-2.189243	0.688101	-1.400048
H	-1.059463	1.768402	-1.958811
F	-2.534121	0.0	0.0
