13

C	0.0	0.0	0.0
C	-0.508708	0.158318	-1.434749
Cl	1.761979	0.0	0.0
H	-1.228468	0.975127	-1.428929
H	-0.364728	-0.905215	0.466377
H	0.330749	0.402165	-2.096385
N	-0.411672	1.124771	0.904011
O	-0.546792	0.850828	2.091388
O	-0.479658	2.251321	0.426196
N	-1.12138	-1.120847	-1.806474
H	-1.427712	-1.043085	-2.771743
H	-1.966526	-1.044509	-1.208748
F	-2.582065	0.0	0.0
