13

C	0.0	0.0	0.0
C	-0.478256	0.184881	-1.459036
Cl	1.768549	0.0	0.0
H	-1.140667	1.039272	-1.458144
H	-0.378469	-0.903707	0.458482
H	0.387456	0.399206	-2.092134
N	-0.41046	1.110659	0.924345
O	-0.463028	2.245732	0.465478
O	-0.557365	0.813207	2.104094
N	-1.228928	-0.938558	-1.978859
H	-2.022041	-0.920245	-1.313682
H	-0.696833	-1.792509	-1.851394
F	-2.536662	0.0	0.0
