13

C	0.0	0.0	0.0
C	-0.434966	0.1143	-1.459269
Cl	1.763267	0.0	0.0
H	0.156756	0.894182	-1.943095
H	-0.407927	-0.869843	0.495705
H	-1.496884	0.358847	-1.381379
N	-0.424766	1.178981	0.822071
O	-0.643391	0.986251	2.011869
O	-0.40994	2.274594	0.266324
N	-0.274759	-1.14423	-2.18115
H	0.65126	-1.523517	-2.016893
H	-0.949595	-1.790253	-1.788439
F	-2.529143	0.0	0.0
