14

C	-0.557064	-0.011369	-1.402065
C	0.0	0.0	0.0
Cl	-2.293564	-0.271092	-1.448637
H	1.091897	0.0	0.0
H	-0.311396	-0.923217	0.493022
N	-0.187725	1.299976	-2.104334
O	1.01127	1.413486	-2.306583
O	-1.07783	2.10086	-2.356833
N	0.073086	-1.12575	-2.23652
O	0.433424	-2.116211	-1.618128
O	0.073449	-0.957967	-3.449433
C	-0.521743	1.14693	0.730809
N	-0.948231	2.066388	1.324109
Br	3.411682	0.0	0.0
