14

C	-0.475048	-0.002588	-1.432657
C	0.0	0.0	0.0
Cl	0.219642	-1.282194	-2.365038
H	1.091102	0.0	0.0
H	-0.349066	0.909462	0.491443
N	-2.016308	-0.058437	-1.465919
O	-2.548115	0.944514	-1.000716
O	-2.57062	-1.059044	-1.886951
N	-0.184717	1.34144	-2.11393
O	-0.546247	1.41879	-3.281321
O	0.334516	2.216387	-1.438929
C	-0.516071	-1.172194	0.693195
N	-0.953865	-2.103809	1.258095
Br	3.391064	0.0	0.0
