14

C	-0.453063	0.021692	-1.439577
C	0.0	0.0	0.0
Cl	0.262751	1.364297	-2.278682
H	1.093918	0.0	0.0
H	-0.307834	0.945014	0.454035
N	-0.126456	-1.305851	-2.13894
O	-0.85643	-2.225779	-1.784251
O	0.803906	-1.346723	-2.92481
N	-1.97398	0.148554	-1.592695
O	-2.610757	0.455834	-0.592489
O	-2.415346	-0.030677	-2.720639
C	-0.532794	-1.102072	0.786594
N	-0.94408	-1.991083	1.433564
Br	3.391325	0.0	0.0
