14

C	-0.439565	-0.004382	-1.441753
C	0.0	0.0	0.0
Cl	-0.058116	1.459157	-2.282601
H	1.094866	0.0	0.0
H	-0.339222	-0.924919	0.469487
N	0.188828	-1.232766	-2.131809
O	0.920168	-1.072348	-3.089918
O	-0.154522	-2.290605	-1.613761
N	-1.943363	-0.28481	-1.607897
O	-2.331194	-0.426346	-2.760755
O	-2.619001	-0.359558	-0.590214
C	-0.517529	1.150025	0.724597
N	-0.9148	2.081614	1.318625
Br	3.382378	0.0	0.0
