14

C	-0.449889	0.038475	-1.441737
C	0.0	0.0	0.0
Cl	-0.009284	1.552298	-2.182989
H	1.091575	0.0	0.0
H	-0.325482	0.934968	0.462126
N	0.112604	-1.128473	-2.259485
O	0.328586	-2.147604	-1.620233
O	0.232208	-0.967201	-3.46387
N	-1.980295	-0.114094	-1.528822
O	-2.427434	-1.049087	-2.181498
O	-2.617268	0.720507	-0.901141
C	-0.563995	-1.108705	0.756306
N	-1.049093	-1.953495	1.411367
Br	3.386895	0.0	0.0
