14

C	-0.450916	-0.005569	-1.437073
C	0.0	0.0	0.0
Cl	-0.060685	1.450622	-2.286848
H	1.094883	0.0	0.0
H	-0.339139	-0.922501	0.474288
N	0.162434	-1.242436	-2.123561
O	-0.204342	-2.294706	-1.610912
O	0.908426	-1.093594	-3.071474
N	-1.958105	-0.274953	-1.5895
O	-2.356764	-0.419217	-2.73822
O	-2.625571	-0.339914	-0.565986
C	-0.504056	1.153231	0.72839
N	-0.883041	2.087293	1.329928
Br	3.364081	0.0	0.0
