15

C	-0.472599	0.010906	-1.418117
C	0.0	0.0	0.0
Cl	-2.228256	0.219263	-1.599307
H	1.094951	0.0	0.0
H	-0.345866	0.939544	0.441525
N	0.211947	1.161323	-2.153042
O	1.020525	0.881595	-3.026672
O	-0.090139	2.281753	-1.766608
N	-0.068364	-1.250168	-2.178472
O	-0.634295	-1.463223	-3.245095
O	0.827165	-1.917581	-1.684137
N	-0.523945	-1.187556	0.672232
H	0.282245	-1.685399	1.028416
H	-1.107727	-0.92516	1.45331
F	2.588416	0.0	0.0
