15

C	-0.446818	0.035002	-1.431937
C	0.0	0.0	0.0
Cl	-0.201683	-1.507677	-2.225704
H	1.094185	0.0	0.0
H	-0.374039	-0.939357	0.413081
N	-1.93253	0.401368	-1.527415
O	-2.7008	-0.398358	-1.011832
O	-2.235792	1.470891	-2.040333
N	0.264572	1.127375	-2.237245
O	0.278458	1.012144	-3.45662
O	0.715632	2.061374	-1.591463
N	-0.561664	1.153505	0.714441
H	-0.917368	0.845267	1.609275
H	0.211369	1.783099	0.892252
F	2.601903	0.0	0.0
