17

C	-0.553586	-0.043803	-1.565419
C	0.175872	-0.009783	-0.200575
Cl	0.100056	1.411486	-2.502838
H	1.261258	-0.035879	-0.349568
N	-0.20936	-1.169938	-2.389695
H	-0.443936	-2.025731	-1.90318
H	-0.730634	-1.121485	-3.257148
N	-1.948865	0.107143	-1.309974
H	-2.449152	0.277457	-2.175098
H	-2.050592	0.9187	-0.704527
N	-0.147664	-1.35598	0.485985
O	0.420149	-2.365328	0.063372
O	-0.959794	-1.3607	1.406694
N	-0.192934	1.095717	0.587282
H	-0.849965	0.788554	1.297108
H	0.742221	1.371384	1.093429
H	2.066617	1.384445	1.597276
