17

C	-0.088509	0.103207	-1.428755
C	-0.022995	-0.016418	0.105883
Cl	-1.813689	0.380821	-1.982223
H	1.044436	-0.151871	0.31098
N	0.662258	1.298178	-1.723717
H	1.655688	0.984102	-1.545207
H	0.592666	1.476395	-2.721994
N	0.361625	-1.137897	-1.999738
H	1.368738	-1.149746	-1.752357
H	0.324368	-1.04654	-3.011303
N	-0.694353	-1.267197	0.576824
O	0.00759	-2.250118	0.795634
O	-1.915424	-1.223169	0.72648
N	-0.558899	1.086322	0.85842
H	-0.064665	1.902755	0.512886
H	-1.531295	1.193989	0.588266
H	2.894204	-0.076372	-1.194872
