17

C	-0.237052	0.068003	-1.407805
C	-0.003539	0.004997	0.110396
Cl	-2.067956	0.188224	-1.698447
H	1.086711	-0.059623	0.18531
N	0.370177	1.233652	-1.965406
H	0.119432	2.034626	-1.392902
H	1.386928	1.046911	-1.826258
N	0.25139	-1.132752	-1.997487
H	1.258414	-1.124105	-1.746044
H	0.21581	-0.981901	-3.002086
N	-0.535132	-1.289876	0.706165
O	0.199396	-2.272666	0.687368
O	-1.664746	-1.266019	1.203895
N	-0.521335	1.152113	0.780069
H	-1.529676	1.076559	0.837311
H	-0.143098	1.203933	1.716736
H	2.731756	0.017979	-1.153482
