14

C	-0.525315	0.001419	-1.41388
C	0.0	0.0	0.0
Br	-0.009273	1.696263	-2.223825
H	1.089686	0.0	0.0
H	-0.356322	0.87486	0.539882
C	-0.050179	-1.082061	-2.259084
N	0.333932	-1.946853	-2.956388
N	-2.067073	-0.00466	-1.433875
O	-2.610963	-0.496206	-2.411514
O	-2.616711	0.533379	-0.483233
N	-0.495954	-1.185196	0.742759
O	-0.300363	-1.194438	1.950489
O	-1.069172	-2.069948	0.10367
Cl	3.204026	0.0	0.0
