14

C	-0.50131	-0.011063	-1.422323
C	0.0	0.0	0.0
Br	-2.435232	-0.173319	-1.56116
H	1.091602	0.0	0.0
H	-0.380507	0.866708	0.537074
C	-0.102251	1.235559	-2.066975
N	0.231039	2.249325	-2.562693
N	0.170909	-1.149417	-2.269865
O	1.387537	-1.123356	-2.213563
O	-0.531869	-1.908434	-2.909149
N	-0.468977	-1.198951	0.716746
O	-0.38695	-2.273103	0.115882
O	-0.734471	-1.067321	1.912819
Cl	2.683305	0.0	0.0
