14

C	0.0	0.0	0.0
C	-0.457501	0.020891	-1.463618
Br	2.000668	0.0	0.0
H	-1.564178	-0.005495	-1.368084
H	-0.117821	-0.884122	-1.973071
N	-0.48818	1.181308	0.625667
H	-0.352877	1.06661	1.627934
H	-1.516991	1.12789	0.462279
N	-0.440866	-1.180588	0.694349
H	-1.473401	-1.094668	0.652944
H	-0.162884	-2.016019	0.187875
C	-0.048009	1.190746	-2.226437
N	0.253698	2.110236	-2.891886
H	-2.981946	0.0	0.0
