14

C	0.0	0.0	0.0
C	-0.53541	0.111046	-1.416811
Br	2.022403	0.0	0.0
H	-0.262716	-0.773672	-1.993037
H	-1.646674	0.119087	-1.214646
N	-0.371846	1.181684	0.715336
H	0.108961	2.002745	0.367258
H	-0.181277	1.073827	1.702869
N	-0.541728	-1.189743	0.545527
H	-0.31206	-1.246073	1.534247
H	-1.581812	-1.000759	0.469893
C	-0.138655	1.325905	-2.10517
N	0.176526	2.319522	-2.648575
H	-3.027305	0.0	0.0
