14

C	0.0	0.0	0.0
C	-0.299909	-0.005332	-1.513905
Br	1.962088	0.0	0.0
H	0.169905	0.889212	-1.931802
H	0.206652	-0.878714	-1.931823
N	-0.469728	1.234832	0.56956
H	-1.502372	1.108113	0.466241
H	-0.277856	1.212885	1.568749
N	-0.466219	-1.234208	0.575239
H	-0.270502	-1.208644	1.572772
H	-1.498735	-1.110199	0.474199
C	-1.683119	-0.038027	-2.037381
N	-2.463591	-0.076166	-2.923403
H	-2.791521	0.0	0.0
