14

C	0.0	0.0	0.0
C	-0.489764	0.008998	-1.447896
Br	2.03231	0.0	0.0
H	-0.159343	-0.875759	-2.000024
H	-1.601444	-0.029165	-1.282474
N	-0.52299	1.054018	0.794059
H	-0.291095	1.950386	0.377615
H	-1.563106	0.900289	0.697741
N	-0.419274	-1.214871	0.588194
H	-0.30236	-1.170176	1.590658
H	0.048254	-2.022579	0.202004
C	-0.119167	1.213028	-2.170869
N	0.166456	2.19706	-2.745865
H	-3.056729	0.0	0.0
