17

C	-0.516355	0.014934	-1.425501
C	0.0	0.0	0.0
Br	0.132486	-1.587798	-2.403012
H	1.101748	0.0	0.0
H	-0.025542	0.834502	-1.953757
C	-2.025926	0.065262	-1.583357
H	-2.404505	1.005586	-1.168786
H	-2.476562	-0.760354	-1.03218
H	-2.323201	0.008192	-2.633648
N	-0.559211	-1.162801	0.729819
H	-0.05416	-1.971207	0.37446
H	-0.228861	-1.061821	1.685005
C	-0.435909	1.274359	0.712715
H	0.124393	1.349343	1.651111
H	-0.17754	2.157774	0.120369
H	-1.50849	1.289036	0.942555
F	2.713666	0.0	0.0
