17

C	-0.567679	-0.023827	-1.408923
C	0.0	0.0	0.0
Br	0.156838	-1.565278	-2.410336
H	1.09433	0.0	0.0
H	-0.181927	0.838515	-1.959638
C	-2.082829	-0.100407	-1.482116
H	-2.416364	-0.98104	-0.933977
H	-2.439757	-0.166547	-2.512422
H	-2.523027	0.790822	-1.023253
N	-0.445388	-1.188434	0.7518
H	0.397108	-1.634359	1.090336
H	-0.987414	-0.908757	1.561029
C	-0.400492	1.294598	0.705516
H	-1.458453	1.318086	1.00242
H	-0.199592	2.169711	0.078952
H	0.217978	1.390383	1.601396
F	2.689589	0.0	0.0
