17

C	-0.31882	-0.152815	-1.493615
C	0.0	0.0	0.0
Br	-0.269053	1.582169	-2.463547
H	1.096804	0.0	0.0
H	-1.353297	-0.48483	-1.662206
C	0.715819	-1.071372	-2.134703
H	1.69645	-0.76611	-1.745557
H	0.679008	-1.04354	-3.225397
H	0.527504	-2.101238	-1.812165
N	-0.366967	-1.262513	0.676606
H	-1.15568	-1.71738	0.224804
H	0.435185	-1.878701	0.613309
C	-0.650544	1.169035	0.706852
H	-1.743983	1.158771	0.591203
H	-0.272748	2.122883	0.337282
H	-0.421737	1.089434	1.771478
F	2.740788	0.0	0.0
