17

C	-0.204905	0.027334	-1.49216
C	0.0	0.0	0.0
Br	-2.129764	0.30546	-2.036899
H	1.099636	0.0	0.0
H	-0.008311	-0.980585	-1.856595
C	0.696238	1.034937	-2.176142
H	1.685865	0.861376	-1.728388
H	0.717101	0.888861	-3.258747
H	0.381993	2.06121	-1.972513
N	-0.500842	-1.250314	0.568258
H	0.078624	-1.475613	1.369256
H	-1.45272	-1.121534	0.900745
C	-0.465802	1.247801	0.734581
H	-1.558776	1.344573	0.724979
H	-0.032749	2.153214	0.301297
H	-0.127786	1.192247	1.774144
F	2.715926	0.0	0.0
