17

C	-0.435926	-0.01642	-1.464401
C	0.0	0.0	0.0
Br	0.152982	-1.688182	-2.340788
H	1.095591	0.0	0.0
H	0.135774	0.753196	-1.989046
C	-1.923764	0.137236	-1.738523
H	-2.139756	0.094249	-2.808642
H	-2.272378	1.099558	-1.352563
H	-2.496584	-0.656643	-1.251669
N	-0.443669	-1.135083	0.810158
H	0.262784	-1.854207	0.709629
H	-1.321518	-1.518032	0.474165
C	-0.459608	1.303306	0.648198
H	-1.536292	1.318664	0.861722
H	0.077716	1.400233	1.593052
H	-0.207918	2.171579	0.028462
F	2.689155	0.0	0.0
