16

C	-0.451547	-0.055667	-1.4158
C	0.0	0.0	0.0
Cl	-2.420009	0.061422	-1.476561
H	1.094174	0.0	0.0
H	-0.355465	0.927749	0.44538
N	-0.146497	1.229671	-2.189665
O	-0.055909	1.122608	-3.408912
O	-0.047853	2.268788	-1.55425
N	0.018446	-1.115307	-2.139203
H	-0.314861	-1.196325	-3.084727
H	0.112877	-1.974801	-1.627947
C	-0.435674	-1.210818	0.816711
H	-1.511401	-1.396824	0.76883
H	-0.151618	-1.045624	1.858503
H	0.102058	-2.111751	0.503951
H	2.861646	0.0	0.0
