16

C	-0.210292	0.019284	-1.494781
C	0.0	0.0	0.0
Cl	-0.175796	-1.751084	-2.12918
H	1.095146	0.0	0.0
H	-0.407535	-0.901589	0.452849
N	-1.622939	0.428069	-1.942589
O	-2.557142	0.10804	-1.212979
O	-1.728117	1.030346	-3.008155
N	0.727787	0.84655	-2.087958
H	0.730081	0.815471	-3.097215
H	1.656475	0.677489	-1.665536
C	-0.474313	1.271927	0.691864
H	-0.129793	2.150726	0.142365
H	-1.561483	1.316336	0.792163
H	-0.02665	1.315378	1.688744
H	2.899832	0.0	0.0
