16

C	-0.304101	-0.121723	-1.481777
C	0.0	0.0	0.0
Cl	-1.928553	-0.842179	-1.796083
H	1.098017	0.0	0.0
H	-0.293068	-0.956655	0.446476
N	-0.331995	1.295064	-2.077195
O	-1.372283	1.941057	-2.01153
O	0.740222	1.713348	-2.492571
N	0.676487	-0.865159	-2.214268
H	0.548182	-1.843216	-1.978751
H	1.59377	-0.593039	-1.828048
C	-0.606487	1.165501	0.755637
H	-1.696356	1.200722	0.675425
H	-0.333597	1.080772	1.810159
H	-0.204864	2.114508	0.395757
H	2.907671	0.0	0.0
