16

C	-0.296339	-0.147489	-1.488158
C	0.0	0.0	0.0
Cl	-0.430472	-1.880321	-1.960878
H	1.091533	0.0	0.0
H	-0.285667	1.031971	0.246959
N	-1.681638	0.467781	-1.769874
O	-1.706456	1.587268	-2.281651
O	-2.667665	-0.136666	-1.366312
N	0.669506	0.486666	-2.315988
H	0.431092	1.466625	-2.406614
H	1.576113	0.397891	-1.836178
C	-0.604823	-0.985615	0.978595
H	-1.693447	-1.042311	0.899066
H	-0.191109	-1.98227	0.823053
H	-0.342328	-0.676116	1.993932
H	2.902952	0.0	0.0
