15

C	-0.333958	0.074915	-1.459874
C	0.0	0.0	0.0
Cl	-2.143728	0.756459	-1.716114
H	1.096401	0.0	0.0
H	0.241893	0.875435	-1.921429
N	-0.163368	-1.128951	-2.146232
H	-0.381486	-1.053381	-3.128931
H	-0.677683	-1.889776	-1.721818
C	-0.544131	-1.197043	0.603749
N	-0.986247	-2.185394	1.066321
C	-0.334942	1.258131	0.792282
H	0.152794	1.191839	1.767676
H	-1.407483	1.423619	0.922051
H	0.098138	2.117104	0.272625
F	2.532345	0.0	0.0
