15

C	-0.17587	0.206032	-1.515969
C	0.0	0.0	0.0
Cl	-0.253965	-1.471969	-2.384393
H	1.097171	0.0	0.0
H	-1.142746	0.62582	-1.808221
N	0.911201	0.992859	-1.926333
H	1.002867	1.063338	-2.92946
H	1.77729	0.676283	-1.445913
C	-0.615393	-1.19098	0.541609
N	-1.136309	-2.106065	1.064358
C	-0.460983	1.247705	0.755839
H	0.083015	2.105955	0.361305
H	-0.221106	1.148209	1.817379
H	-1.538569	1.421211	0.656167
F	2.65654	0.0	0.0
