15

C	-0.595337	-0.05869	-1.398774
C	0.0	0.0	0.0
Cl	0.167203	-1.38595	-2.347915
H	1.094783	0.0	0.0
H	-1.653598	-0.359985	-1.352428
N	-0.389275	1.177682	-2.128715
H	-0.793764	1.079123	-3.053352
H	-0.887549	1.919261	-1.648241
C	-0.504848	-1.125648	0.766141
N	-0.934118	-2.019152	1.400327
C	-0.340186	1.311504	0.717213
H	0.022994	1.245197	1.743872
H	0.218348	2.116087	0.235941
H	-1.413167	1.55058	0.741996
F	2.555763	0.0	0.0
