15

C	-0.176514	0.315502	-1.496244
C	0.0	0.0	0.0
Cl	-0.259991	-1.295314	-2.483878
H	1.096744	0.0	0.0
H	-1.141479	0.759729	-1.757539
N	0.912362	1.126969	-1.850636
H	1.005412	1.268594	-2.845339
H	1.777468	0.775637	-1.394072
C	-0.609474	-1.229075	0.45885
N	-1.104468	-2.177919	0.946757
C	-0.461295	1.189195	0.845296
H	0.072907	2.077214	0.505568
H	-1.54118	1.361406	0.769615
H	-0.208828	1.017089	1.894458
F	2.657014	0.0	0.0
