13

C	0.0	0.0	0.0
C	-0.40856	-0.02479	-1.481918
Br	1.935171	0.0	0.0
H	0.217509	-0.749889	-2.006383
H	-0.360838	0.887043	0.511054
H	-0.347742	-0.903629	0.494572
N	0.066841	1.30609	-2.101579
O	0.494326	1.260272	-3.253568
O	-0.084197	2.336808	-1.450237
N	-1.769535	-0.180909	-1.810448
H	-1.947184	-1.109043	-2.166483
H	-2.479277	0.002221	-1.021359
H	-3.491212	0.0	0.0
