13

C	0.0	0.0	0.0
C	-0.506249	0.038015	-1.435006
Br	1.936311	0.0	0.0
H	0.236625	-0.359981	-2.132764
H	-0.323352	-0.930505	0.457223
H	-0.34829	0.854245	0.572204
N	-0.522214	1.541344	-1.902659
O	-0.586974	1.692881	-3.124589
O	-0.522083	2.462382	-1.088993
N	-1.734893	-0.618788	-1.570986
H	-2.518677	-0.309686	-0.880714
H	-2.069858	-0.567974	-2.526665
H	-3.609941	0.0	0.0
