13

C	0.0	0.0	0.0
C	-0.441383	-0.10401	-1.461715
Br	1.939632	0.0	0.0
H	0.1077	-0.916483	-1.94586
H	-0.348399	0.920549	0.458811
H	-0.347273	-0.868306	0.554051
N	0.138891	1.135111	-2.191447
O	0.592189	0.956042	-3.321782
O	0.021853	2.230253	-1.648543
N	-1.818884	-0.140061	-1.706515
H	-2.086197	-0.983258	-2.196945
H	-2.536562	0.009289	-0.886239
H	-3.589697	0.0	0.0
