13

C	0.0	0.0	0.0
C	-0.507187	-0.011522	-1.414576
Br	1.943124	0.0	0.0
H	-1.629232	-0.062861	-1.204572
H	-0.346862	-0.875837	0.538465
H	-0.355246	0.907557	0.480437
N	-0.098431	-1.301218	-2.073609
O	-0.245705	-2.345074	-1.434692
O	0.303058	-1.257856	-3.246516
N	-0.122747	1.136703	-2.164038
H	-0.5885	1.127015	-3.061176
H	0.875459	1.115446	-2.339147
H	-2.807982	0.0	0.0
