15
Coordinates from ORCA-job run
  C   -0.16946857849068      0.25159280454384     -0.55738843909587
  C   1.01076242965121     -0.52382927981383      0.07385718388517
  Br  -0.16766422852361     -0.08237009807474     -2.46832734300694
  H   1.93331212982847     -0.21510571580670     -0.42692890528505
  N   0.13922589788214      1.74332748332534     -0.39329458103432
  O   -0.82071754824436      2.49998114874507     -0.34430341919748
  O   1.32327068476965      2.06098697915020     -0.36131757300576
  C   -1.50965354054744     -0.07822822030748      0.05180264650566
  H   -2.29549377303145      0.49136491360281     -0.43925865573442
  H   -1.71106199693794     -1.14396410039304     -0.06676815942460
  H   -1.50424590253650      0.17530603193350      1.11513005292420
  C   0.82060587753079     -1.96614639980376     -0.09443341435140
  N   0.65948936915003     -3.12200120752261     -0.22431566230413
  C   1.11611275286388     -0.18798620919017      1.49867034312088
  N   1.17152642663580      0.09607186961158      2.63687592600406
