15
Coordinates from ORCA-job run
  C   -0.11113130266511      0.26631444410823     -0.43578112156378
  C   0.64420650206765     -0.54322341715028      0.64322746541788
  Br  0.76234475025277      0.06164365631599     -2.13931033957886
  H   0.14004575249837     -0.35662979530282      1.59807532669665
  N   -0.07202627157135      1.74007610228636     -0.00102177295433
  O   -0.07770865233793      2.60023975818622     -0.86517062261612
  O   -0.13450761455083      1.91779135512212      1.21325266111468
  C   -1.57632984263722     -0.11808106330140     -0.52496933280577
  H   -2.07468659829559      0.51503894264122     -1.26039806585714
  H   -1.67328271027727     -1.15913654340429     -0.83454321860931
  H   -2.04965335014041      0.02003618266601      0.45131102545590
  C   2.03528199730233     -0.10382414439995      0.77873348522206
  N   3.14488762719277      0.26012992466681      0.90081661669360
  C   0.56912189832616     -1.97526310636791      0.34751705466950
  N   0.47343781483566     -3.12511229606631      0.12926083871505
