15
Coordinates from ORCA-job run
  C   -0.31249821250220      0.10340364606852     -0.51981062117675
  C   0.55679207087688     -0.93340943392015      0.22351434015864
  Br  -0.52733690759258     -0.48814142745516     -2.35270598674833
  H   -0.01073244393910     -1.87230908296348      0.18104367406369
  N   0.40200692814847      1.45392568596716     -0.55635148901722
  O   -0.22185316247585      2.37763308124000     -1.05812291014291
  O   1.52253623415170      1.50663277780485     -0.05912659463134
  C   -1.66172505668331      0.30542810784206      0.13796146295841
  H   -1.52739130662074      0.70900518694578      1.14514561449568
  H   -2.19165135135075     -0.64678198926536      0.19785883810341
  H   -2.25223080742269      1.00638982474708     -0.44939879325804
  C   0.70976885052942     -0.57283460775318      1.63762340927906
  N   0.77203045010106     -0.30819905244986      2.77998060214235
  C   1.85696850268310     -1.18443088327211     -0.40466938310389
  N   2.88531621209660     -1.45531183353615     -0.90194216312276
