14
Coordinates from ORCA-job run
  C   -0.25255255695523     -0.44768936676018     -0.34334244336650
  C   0.79779383736775      0.44305744952187      0.38148483682888
  Cl  -0.21600844424030     -2.08003893250688      0.37965216814948
  H   0.77762979780156      1.42668045273909     -0.10723733368593
  C   0.13686331325856     -0.54411549948263     -1.75069381888428
  N   0.42987967462727     -0.58177468186281     -2.88825811702985
  C   -1.65310705310089      0.13942179745833     -0.21235999062811
  H   -1.67812673110267      1.14608399440763     -0.63797305505573
  H   -1.94335585695904      0.17848729409927      0.83852069197033
  H   -2.36355792117116     -0.48811643434189     -0.75072301643845
  C   2.15275158031283     -0.09971932408226      0.25365511784725
  N   3.24370606796768     -0.51815230041007      0.13743447898865
  C   0.43901941955003      0.62746775292433      1.79045196940323
  N   0.13006487264360      0.79740779829619      2.91038851190103
