14
Coordinates from ORCA-job run
  C   -0.29837484390340     -0.49598959928243     -0.34519994496864
  C   0.66219439916781     -0.05164646320653      0.79486781687144
  Cl  -0.41632532730019     -2.27915182337059     -0.25178287100975
  H   0.23322847008565     -0.42403429863408      1.73365362953105
  C   0.27403795456380     -0.12603873742825     -1.63871792246400
  N   0.71783032959684      0.20740852702327     -2.67476139783345
  C   -1.68332109015220      0.11366919907954     -0.16561189381053
  H   -2.35200607594581     -0.26685346423938     -0.93801962621747
  H   -1.63175271053998      1.20130335547879     -0.24626615934952
  H   -2.08253823874200     -0.16336859568197      0.81247937097499
  C   0.73629618187485      1.41147624029960      0.85682231049493
  N   0.76088837598542      2.58486474440104      0.90120828324840
  C   2.00138655743333     -0.62576704960333      0.63700044923288
  N   3.07645601787589     -1.08387203483568      0.52232795529967
