14
Coordinates from ORCA-job run
  C   -0.25647632168132     -0.44618971052883     -0.34348246649038
  C   0.80050377070151      0.43383091610064      0.38480560592619
  Cl  -0.24247860669164     -2.07748424398739      0.38202686648885
  H   0.79438266173650      1.41621690292188     -0.10690270766325
  C   0.13938277818547     -0.54834478249315     -1.74855466571013
  N   0.44043407680221     -0.58820816056220     -2.88394193388749
  C   -1.65064875918771      0.15772523905031     -0.22083872490017
  H   -1.94672336426717      0.19991407310216      0.82825765476527
  H   -1.66052487315941      1.16475410854992     -0.64623760173122
  H   -2.36556801596823     -0.46071906600250     -0.76392369432169
  C   2.14956959951181     -0.12499113220468      0.26419271155673
  N   3.23501709954733     -0.55849811771364      0.15184355764692
  C   0.43746891047050      0.62723381009622      1.79136685578227
  N   0.12566104400016      0.80476016367127      2.90938854253810
