15

C	0.0	0.0	0.0
C	-0.398269	0.066845	-1.501021
Br	1.928156	0.0	0.0
H	0.504891	-0.175659	-2.069068
H	-0.394349	0.813748	0.598991
N	-0.360956	-1.273474	0.723719
O	-0.51908	-1.172675	1.932731
O	-0.353144	-2.309371	0.070771
C	-0.796201	1.50386	-1.850734
H	4.4e-05	2.194388	-1.556676
H	-1.722797	1.739643	-1.330913
H	-0.953141	1.590014	-2.928995
C	-1.362905	-0.907934	-2.023994
N	-1.907981	-1.683028	-2.720394
Cl	-3.089917	0.0	0.0
