15

C	0.0	0.0	0.0
C	-0.58036	-0.384665	-1.355059
Br	1.920263	0.0	0.0
H	-0.217624	0.389765	-2.043165
H	-0.333564	0.995485	0.290096
N	-0.443828	-0.908564	1.119958
O	-0.534589	-0.381947	2.224542
O	-0.639892	-2.087009	0.847836
C	-2.113091	-0.35027	-1.328841
H	-2.512803	-0.543855	-2.324323
H	-2.485829	0.621479	-1.005185
H	-2.543354	-1.079988	-0.649045
C	-0.050419	-1.653037	-1.866281
N	0.380937	-2.622648	-2.370191
Cl	-5.113627	0.0	0.0
