18

C	-0.39215	0.027424	-1.475253
C	0.0	0.0	0.0
Cl	-2.206482	0.262645	-1.663058
H	1.097872	0.0	0.0
C	0.324006	1.158717	-2.190177
H	1.398797	1.009296	-2.02957
H	0.024662	2.094169	-1.720223
H	0.084641	1.170846	-3.255834
C	-0.104089	-1.251344	-2.128342
N	0.108519	-2.278864	-2.657327
C	-0.501942	-1.217018	0.755534
H	-0.082699	-1.190868	1.765143
H	-0.172177	-2.147236	0.28634
H	-1.596142	-1.227699	0.826516
N	-0.37288	1.273477	0.611534
H	0.404695	1.560761	1.196971
H	-1.196008	1.164756	1.192265
H	2.847871	0.0	0.0
