18

C	-0.539012	0.014366	-1.44036
C	0.0	0.0	0.0
Cl	0.160902	-1.364365	-2.377719
H	1.100127	0.0	0.0
C	-2.058721	-0.083211	-1.520926
H	-2.481867	0.714773	-0.907802
H	-2.385203	-1.053323	-1.142475
H	-2.397442	0.019819	-2.554115
C	-0.115019	1.246473	-2.116027
N	0.133068	2.251391	-2.673292
C	-0.480107	-1.196591	0.797563
H	-1.53819	-1.115754	1.075148
H	-0.324904	-2.129303	0.252525
H	0.121262	-1.250897	1.710288
N	-0.464494	1.25896	0.620396
H	0.328967	1.894241	0.59116
H	-0.639783	1.082982	1.603039
H	2.888911	0.0	0.0
