18

C	-0.552274	0.018482	-1.43478
C	0.0	0.0	0.0
Cl	0.063049	-1.405079	-2.364736
H	1.100139	0.0	0.0
C	-2.075818	-0.006167	-1.492949
H	-2.446275	-0.946127	-1.080434
H	-2.423905	0.084573	-2.524088
H	-2.450846	0.831264	-0.902343
C	-0.080698	1.218241	-2.136264
N	0.211062	2.182076	-2.741446
C	-0.47123	-1.193174	0.809609
H	-0.307819	-2.132211	0.277911
H	-1.531107	-1.122941	1.086529
H	0.128191	-1.227378	1.724328
N	-0.418358	1.273077	0.614755
H	0.434033	1.797015	0.798175
H	-0.859341	1.09706	1.510031
H	2.863643	0.0	0.0
