18

C	-0.420245	-0.030996	-1.474566
C	0.0	0.0	0.0
Cl	-0.030434	1.566691	-2.242897
H	1.106949	0.0	0.0
C	0.368522	-1.089696	-2.239319
H	1.427382	-0.942057	-2.003539
H	0.194907	-0.996006	-3.313061
H	0.063013	-2.088841	-1.92233
C	-1.866813	-0.216865	-1.623523
N	-3.015329	-0.442321	-1.734882
C	-0.46752	-1.249343	0.730832
H	-1.558662	-1.278849	0.822379
H	-0.114873	-2.16301	0.250467
H	-0.028014	-1.236956	1.733748
N	-0.582691	1.17249	0.663557
H	0.000615	1.969998	0.426099
H	-0.455869	1.036015	1.661719
H	2.967555	0.0	0.0
