18

C	-0.312527	0.177404	-1.491125
C	0.0	0.0	0.0
Cl	-2.119351	0.467951	-1.76741
H	1.104179	0.0	0.0
C	0.458398	1.349548	-2.071003
H	0.308889	1.429493	-3.149602
H	0.126475	2.273249	-1.595232
H	1.516722	1.181656	-1.827176
C	-0.009072	-1.038406	-2.246988
N	0.229032	-2.003728	-2.873348
C	-0.553197	-1.278065	0.595958
H	-1.648448	-1.270555	0.618073
H	-0.187157	-1.349261	1.621572
H	-0.213898	-2.160274	0.047098
N	-0.376002	1.1527	0.807315
H	0.372589	1.835333	0.771685
H	-1.238409	1.576342	0.484015
H	2.851037	0.0	0.0
