18

C	-0.384687	-0.056057	-1.476133
C	0.0	0.0	0.0
Cl	-2.198535	0.18118	-1.687208
H	1.103465	0.0	0.0
C	0.345173	1.024575	-2.251235
H	0.053018	1.989003	-1.837974
H	0.112146	0.976609	-3.317089
H	1.416786	0.873997	-2.074207
C	-0.103662	-1.372109	-2.054369
N	0.115557	-2.415861	-2.547504
C	-0.5034	-1.174116	0.819349
H	-1.598095	-1.192149	0.872735
H	-0.156441	-2.126828	0.412822
H	-0.102725	-1.08394	1.832643
N	-0.373246	1.305964	0.535658
H	0.389416	1.61507	1.130499
H	-1.21636	1.236528	1.09399
H	2.846087	0.0	0.0
