18

C	-0.364559	-0.042703	-1.506886
C	0.0	0.0	0.0
Cl	0.074462	1.539289	-2.275476
H	1.096724	0.0	0.0
C	0.424551	-1.129488	-2.229841
H	0.301059	-1.042366	-3.311295
H	1.475982	-1.004176	-1.947289
H	0.07908	-2.116095	-1.915644
C	-1.810374	-0.19285	-1.699659
N	-2.970225	-0.355467	-1.810554
C	-0.479843	-1.260182	0.707611
H	-0.063375	-2.168242	0.267119
H	-0.124781	-1.196118	1.737342
H	-1.573975	-1.336757	0.722659
N	-0.477925	1.165337	0.72102
H	0.116646	1.95158	0.49219
H	-1.43086	1.396924	0.458624
H	2.946359	0.0	0.0
