18

C	-0.302584	0.001197	-1.50235
C	0.0	0.0	0.0
Cl	-2.10608	0.271559	-1.824338
H	1.103719	0.0	0.0
C	0.48476	1.08832	-2.213834
H	0.161736	2.06585	-1.854492
H	1.539712	0.938375	-1.943179
H	0.343551	1.039608	-3.295341
C	-0.004557	-1.297259	-2.108
N	0.230523	-2.326774	-2.624412
C	-0.562515	-1.194856	0.741061
H	-0.230265	-2.137628	0.300752
H	-1.657231	-1.175619	0.759388
H	-0.199408	-1.148333	1.768629
N	-0.372708	1.243999	0.662354
H	-1.216675	1.644159	0.270471
H	0.391057	1.902743	0.566724
H	2.850426	0.0	0.0
