18

C	-0.490156	0.097638	-1.459617
C	0.0	0.0	0.0
Cl	0.307334	-1.167482	-2.477284
H	1.093744	0.0	0.0
C	-1.997029	-0.094328	-1.626087
H	-2.271896	-1.101746	-1.313969
H	-2.544043	0.628878	-1.014153
H	-2.287446	0.042919	-2.669926
C	-0.125738	1.400569	-2.027254
N	0.061149	2.461524	-2.497174
C	-0.493873	-1.258198	0.692794
H	-1.556824	-1.199065	0.95307
H	0.077269	-1.355932	1.617864
H	-0.316982	-2.152294	0.089978
N	-0.366278	1.181221	0.778743
H	-1.262671	1.57462	0.517107
H	0.353575	1.883842	0.645818
H	2.873787	0.0	0.0
