18

C	-0.118377	-0.162501	-1.528125
C	0.0	0.0	0.0
F	-1.239307	-0.874347	-1.908922
H	1.094665	0.0	0.0
N	-0.303522	1.222825	-2.149372
O	0.706875	1.908385	-2.243694
O	-1.442409	1.585278	-2.438705
N	1.038164	-0.753614	-2.118572
H	0.909092	-1.75714	-2.082491
H	1.846757	-0.506592	-1.503256
N	-0.380526	-1.247176	0.671438
H	0.428074	-1.856974	0.66576
H	-1.139308	-1.708349	0.183243
C	-0.700611	1.1937	0.608524
H	-1.78385	1.162155	0.441343
H	-0.518957	1.177179	1.68452
H	-0.311842	2.133332	0.210241
F	2.71371	0.0	0.0
