18

C	-0.074342	0.008636	-1.53103
C	0.0	0.0	0.0
F	-0.064984	-1.29684	-1.973678
H	1.105808	0.0	0.0
N	-1.393284	0.583144	-2.045003
O	-2.33406	-0.187787	-2.201543
O	-1.45141	1.806328	-2.187517
N	1.011749	0.698497	-2.128052
H	1.830369	0.534148	-1.500725
H	0.799032	1.684941	-2.164716
N	-0.697966	-1.143433	0.588979
H	-0.323544	-1.978713	0.153784
H	-0.404666	-1.183869	1.560681
C	-0.495273	1.291402	0.618627
H	-0.238357	1.296529	1.68282
H	-1.581599	1.395188	0.52572
H	-0.00876	2.155279	0.163575
F	2.740232	0.0	0.0
