18

C	-0.479254	-0.035916	-1.428388
C	0.0	0.0	0.0
F	0.081911	1.015326	-2.149162
H	1.0916	0.0	0.0
N	0.010317	-1.264121	-2.208182
O	0.788105	-2.048233	-1.684887
O	-0.424662	-1.354219	-3.360126
N	-1.890981	-0.056636	-1.578378
H	-2.124356	-0.025582	-2.563922
H	-2.273115	0.753504	-1.107369
N	-0.470562	-1.14587	0.778648
H	-1.339704	-1.505297	0.400144
H	0.236297	-1.864492	0.691873
C	-0.45198	1.29842	0.661277
H	-1.526257	1.308737	0.893804
H	-0.19608	2.168848	0.05242
H	0.090775	1.37358	1.604341
F	2.643831	0.0	0.0
