18

C	-0.122573	-0.018194	-1.512107
C	0.0	0.0	0.0
F	-0.009708	-1.326073	-1.991193
H	1.098053	0.0	0.0
N	-1.501493	0.347525	-2.081673
O	-2.471915	0.291339	-1.327765
O	-1.563765	0.61538	-3.2806
N	0.848895	0.838029	-2.043712
H	0.951297	0.701691	-3.040133
H	1.724514	0.645722	-1.518623
N	-0.548775	-1.185832	0.634062
H	-1.35501	-0.942047	1.195404
H	0.162215	-1.57132	1.241436
C	-0.439772	1.317288	0.62156
H	0.014098	1.398229	1.613902
H	-0.090462	2.162726	0.025973
H	-1.528776	1.380624	0.722196
F	2.705654	0.0	0.0
