18

C	-0.535602	-0.02581	-1.416393
C	0.0	0.0	0.0
F	-0.097836	1.07189	-2.110877
H	1.09382	0.0	0.0
N	0.098655	-1.216187	-2.172525
O	1.156436	-1.030112	-2.749306
O	-0.502865	-2.295344	-2.114237
N	-1.951139	-0.132071	-1.535527
H	-2.219513	-0.974889	-2.022371
H	-2.382514	-0.117028	-0.621496
N	-0.374176	-1.220032	0.740131
H	-1.040101	-1.791298	0.234486
H	0.479821	-1.760741	0.80882
C	-0.500716	1.2449	0.720076
H	-0.283956	2.146782	0.143814
H	-1.574259	1.211564	0.951064
H	0.040734	1.302795	1.665977
F	2.631018	0.0	0.0
