10
Coordinates from ORCA-job run
  C   0.84190641993253     -0.51573324051776      0.25059219411902
  C   -0.05170567656161      0.39059219485550     -0.18316013850680
  H   0.51902076889489     -1.45718706562513      0.68725277785483
  H   0.31664877125821      1.32030176657524     -0.61372616955542
  C   2.25276435077424     -0.29685089894714      0.16399805314868
  N   3.41429877112100     -0.12667054998606      0.09747929723278
  C   -1.53198600005226      0.20077760095704     -0.11061953683740
  H   -1.79140701114920     -0.76056228225468      0.33614373559833
  H   -1.97601910750197      0.25021127245743     -1.10895130585574
  H   -1.99352128671583      0.99512120248558      0.48299109280172
