10
Coordinates from ORCA-job run
  C   0.98829717298600      0.23985322581108      0.05314387738893
  C   -0.20052495298552     -0.38581519978431     -0.00556075377382
  H   1.05218423452489      1.32472845494265      0.03973954549891
  H   -0.21731791346696     -1.47434884393124      0.01100897833585
  C   2.22337599965988     -0.47673247738570      0.13625095523117
  N   3.24414324253179     -1.05625528894651      0.20491142309215
  C   -1.51173326867527      0.32529521281183     -0.09251025398351
  H   -1.37996140967355      1.40869693973984     -0.10191013998019
  H   -2.15033680487803      0.06114401475564      0.75528160894080
  H   -2.04912630002323      0.03343396198671     -0.99935524075028
