10
Coordinates from ORCA-job run
  C   1.07295653194755     -0.37129043610543     -0.50214814947518
  C   -0.23277237312548     -0.16007684201027     -0.75236571657365
  H   1.73946876045883     -0.73092445743349     -1.27940798297322
  H   -0.58304163601305     -0.36607023190254     -1.76196985039205
  C   1.65515352446448     -0.13726385850319      0.78429663256496
  N   2.13594510621837      0.05490187130451      1.84023677368644
  C   -1.24166886846551      0.33201053127995      0.23324914922461
  H   -1.69414952370422      1.26355941053549     -0.11878893451394
  H   -0.79885645844599      0.50958957690025      1.21408677128605
  H   -2.05203506333496     -0.39443556406528      0.34281130716597
