10
Coordinates from ORCA-job run
  C   1.09526621393968     -0.12297223741626     -0.57155817008905
  C   -0.22646753471810      0.03707582121766     -0.77084017855152
  H   1.78132322806771     -0.19535542706158     -1.40915707842653
  H   -0.56882603438876      0.09122915961182     -1.80243441498079
  C   1.66859182850202     -0.20918170938440      0.73711602968930
  N   2.14247210408833     -0.28084687057718      1.81104268051783
  C   -1.26263158208863      0.14763215938841      0.29959156106942
  H   -1.79732547450451      1.09805683404849      0.21611696576539
  H   -0.82515932445538      0.08168110187067      1.29659926230069
  H   -2.00624342444237     -0.64731883169764      0.19252334270525
