10
Coordinates from ORCA-job run
  C   1.02358338315968     -0.66348571152161     -0.23043782698550
  C   -0.31737226458599     -0.65161924086359     -0.34858441902981
  H   1.60832669314420     -1.50377304785017     -0.59030401328009
  H   -0.78101365335474     -1.51795773842124     -0.81637492911296
  C   1.75049847609598      0.41612289301903      0.36525164863732
  N   2.35080765833420      1.30164681716037      0.85363110545721
  C   -1.22320079061930      0.44556296308494      0.10672221470508
  H   -1.79871733037925      0.83803160006840     -0.73654724917955
  H   -1.94425397181309      0.06677104971341      0.83663481287275
  H   -0.66865819998168      1.26770041561048      0.56100865591555
