18

C	0.0	0.0	0.0
C	-0.584537	0.086284	-1.406172
Cl	1.848731	0.0	0.0
H	-1.679283	0.030876	-1.162614
N	-0.43716	1.159295	0.723109
H	-0.831672	0.929435	1.620039
H	0.262111	1.880263	0.765345
C	-0.525631	-1.260379	0.647059
H	-1.622839	-1.103985	0.623309
H	-0.236413	-2.14976	0.084541
H	-0.135302	-1.343494	1.664926
N	-0.137566	-0.87718	-2.369382
H	-0.766171	-1.663463	-2.389843
H	0.800347	-1.187827	-2.15544
N	-0.402489	1.449791	-2.027438
O	-1.207578	1.738936	-2.907341
O	0.532775	2.174155	-1.681454
F	-2.953918	0.0	0.0
