18

C	0.0	0.0	0.0
C	-0.257086	-0.178551	-1.537699
Cl	1.871411	0.0	0.0
H	0.486284	-0.890216	-1.897916
N	-0.538536	1.238638	0.43763
H	-0.341752	1.323347	1.4314
H	-1.57744	0.984406	0.338844
C	-0.368444	-1.205133	0.849224
H	0.032688	-2.135609	0.447011
H	-1.460288	-1.215973	0.857655
H	0.02809	-1.051952	1.858574
N	-0.160083	1.041213	-2.295663
H	0.690849	1.49695	-1.982636
H	-0.920864	1.634187	-1.981219
N	-1.544711	-0.877741	-1.929311
O	-1.601194	-2.068033	-1.632401
O	-2.34748	-0.285022	-2.629506
F	-2.740574	0.0	0.0
