18

C	0.0	0.0	0.0
C	-0.502367	-0.014321	-1.460968
Cl	1.813406	0.0	0.0
H	-1.599426	0.059362	-1.305174
N	-0.517773	1.074655	0.791934
H	-0.353269	1.953784	0.315195
H	-1.541792	0.880871	0.722867
C	-0.43838	-1.306047	0.65129
H	-1.530106	-1.298785	0.588587
H	-0.012895	-2.168956	0.144525
H	-0.111903	-1.275362	1.692685
N	-0.117894	-1.177866	-2.182988
H	-0.607692	-1.208398	-3.067643
H	0.877188	-1.151098	-2.37359
N	-0.052454	1.256576	-2.182231
O	-0.523103	2.334384	-1.816333
O	0.759224	1.144049	-3.103642
F	-2.88243	0.0	0.0
