18

C	0.0	0.0	0.0
C	-0.339368	-0.0135	-1.558884
Cl	1.791126	0.0	0.0
H	0.530009	0.339034	-2.118769
N	-0.542518	1.147363	0.662258
H	-1.558991	0.95011	0.65964
H	-0.41534	1.955619	0.061584
C	-0.501251	-1.240858	0.717739
H	-0.255049	-1.134334	1.775814
H	-1.588221	-1.247139	0.584884
H	-0.035444	-2.146698	0.330914
N	-1.491874	0.721825	-1.868279
H	-1.725672	0.611289	-2.846076
H	-2.286106	0.425516	-1.23413
N	-0.39367	-1.494318	-2.020616
O	-1.492967	-2.007584	-2.213333
O	0.685476	-2.071379	-2.178785
F	-3.055923	0.0	0.0
