18

C	0.0	0.0	0.0
C	-0.325765	0.270635	-1.520993
Cl	1.854692	0.0	0.0
H	0.537119	0.757579	-1.978872
N	-0.504922	1.097886	0.7714
H	-1.527141	1.010269	0.637651
H	-0.318044	0.882222	1.748156
C	-0.467404	-1.359397	0.489895
H	-0.188725	-1.467131	1.542359
H	-1.55989	-1.330152	0.393957
H	-0.026403	-2.185889	-0.068267
N	-1.509522	0.972658	-1.752295
H	-2.304276	0.56619	-1.19143
H	-1.704721	1.022722	-2.742655
N	-0.286856	-1.120854	-2.247206
O	0.82009	-1.605946	-2.491738
O	-1.356526	-1.637143	-2.560867
F	-3.04065	0.0	0.0
