18

C	0.0	0.0	0.0
C	-0.499871	-0.02058	-1.46317
Cl	1.812896	0.0	0.0
H	-1.596173	0.054586	-1.311855
N	-0.521714	1.078292	0.783903
H	-1.545648	0.881346	0.716686
H	-0.362428	1.954212	0.298944
C	-0.439784	-1.302491	0.656766
H	-0.116692	-1.267467	1.699071
H	-1.531844	-1.294954	0.591404
H	-0.015181	-2.168137	0.153444
N	-0.114696	-1.186812	-2.180177
H	-0.610281	-1.225193	-3.061479
H	0.878786	-1.155947	-2.377111
N	-0.047049	1.247783	-2.187233
O	0.774869	1.133064	-3.10019
O	-0.523957	2.325994	-1.830692
F	-2.885252	0.0	0.0
