18

C	0.0	0.0	0.0
C	-0.636681	0.060341	-1.375622
Cl	1.86941	0.0	0.0
H	-1.748378	0.15042	-1.034269
N	-0.391143	1.103232	0.803183
H	-0.235385	1.991132	0.350604
H	0.066406	1.063722	1.702141
C	-0.461336	-1.272166	0.68277
H	-0.107855	-1.270663	1.718362
H	-1.55592	-1.174339	0.641582
H	-0.104798	-2.160737	0.167634
N	-0.369027	-1.11232	-2.132709
H	0.59191	-1.107256	-2.455823
H	-0.969994	-1.137064	-2.944494
N	-0.21044	1.314196	-2.128919
O	0.303892	1.172362	-3.242015
O	-0.430006	2.41935	-1.626658
F	-2.937285	0.0	0.0
