17
Coordinates from ORCA-job run
  C   -0.46444066384230      0.69880077064052     -0.33349628369737
  C   0.67262521011051     -0.08445202515150      0.34034692076957
  Br  0.19636511049095      1.68539738522671     -1.94773995503290
  H   1.31083536854416      0.70846242504722      0.77004527733797
  N   -1.07109000659281      1.54484912818183      0.61425105535296
  H   -0.45635827418359      2.31366017021618      0.84769601667200
  H   -1.96840647090138      1.88866167037361      0.29699671034507
  N   -1.53165642080339     -0.24931485795314     -0.87713733385146
  O   -2.69401667643036     -0.01748598390878     -0.56510874401974
  O   -1.14569363685067     -1.15360226655137     -1.59994808833218
  C   1.55321472999690     -0.96924545354573     -0.52654157250362
  H   1.95554142255251     -0.43079013384164     -1.38279226557902
  H   2.39518936481060     -1.31235267850678      0.08214871831439
  H   0.99722561459808     -1.83550889443386     -0.87797556353218
  N   0.00273875356148     -0.90480429962121      1.33988911139731
  H   -0.40725068008338     -0.32550984284248      2.06034563682334
  H   0.65517725502271     -1.55576511332958      1.75702035953586
