17
Coordinates from ORCA-job run
  C   -0.61912564217941      0.61297691159140     -0.19693349377866
  C   0.78088481155653      0.05927217680752      0.08281122334182
  Br  -0.48146000008447      2.66005682557756     -0.10198613522855
  H   1.47640704236483      0.57437271414798     -0.58632473289953
  N   -1.56627897396913      0.06106233784470      0.63765316723295
  H   -1.23435321351884      0.08109671436529      1.59458634928465
  H   -2.50108776444579      0.42113201614826      0.51353202907177
  N   -1.03654401423742      0.41609031283279     -1.64517430448541
  O   -2.23837133376334      0.31338550223015     -1.85894253497432
  O   -0.14479422282939      0.40170631452075     -2.48527038554527
  C   0.83367944997941     -1.44078713219314     -0.18181773344893
  H   0.57991282135035     -1.67327183799025     -1.21554504319289
  H   0.15115056899678     -1.96944392706909      0.48391256517190
  H   1.85161584075007     -1.79993278974970     -0.00526265295940
  N   1.03664363412366      0.30500840711450      1.50264167760841
  H   1.31815380195857      1.26816354204063      1.64355910535648
  H   1.79156719394758     -0.29088808821935      1.81856089944498
