17
Coordinates from ORCA-job run
  C   -0.54884516382621      0.43725955286976     -0.52007005314037
  C   0.43898573072681     -0.29679742210158      0.40178019372226
  Br  -0.40905266120975     -0.13073145066657     -2.35550319752741
  H   0.35151708985877      0.23162450290232      1.36074589980705
  N   -0.37010531241577      1.84395771664923     -0.44662566051535
  H   -0.96604918521824      2.33744508314930     -1.09956465183958
  H   -0.55280983925188      2.16251141925780      0.49867498257543
  N   -1.96336633378459      0.03260235868206      0.00848253544333
  O   -2.12660806735417      0.35983767851992      1.18599088689792
  O   -2.78730227725419     -0.51512707170077     -0.70162605642809
  C   1.87113761485154     -0.17179068197130     -0.09048395164174
  H   2.03249243147778     -0.81309892241472     -0.95897313187389
  H   2.55455702923002     -0.48279194763325      0.70375543299937
  H   2.09911744338351      0.85620217673837     -0.37132449298562
  N   0.02075405442820     -1.68327054521780      0.52806983296157
  H   0.80493029160466     -2.31458050019077      0.45018333172166
  H   -0.44935284524650     -1.85125194687199      1.40648809982346
