17
Coordinates from ORCA-job run
  C   -0.62597610967411      0.59772092842860     -0.21984592001759
  C   0.77928958410881      0.07277714743788      0.08723762641428
  Br  -0.51788769645295      2.64867120592557     -0.18383805283339
  H   1.47300723222811      0.57809825607717     -0.59114425628783
  N   -1.57254550340506      0.05706811180642      0.62280679385877
  H   -1.24917744945651      0.11016440146866      1.58141771030463
  H   -2.51094479882745      0.40072772663237      0.48047106834473
  N   -1.02866027612303      0.35301353596575     -1.66488310638371
  O   -0.12987072230249      0.32354878318562     -2.49708911242238
  O   -2.22739103528976      0.23004063078897     -1.88533748939458
  C   0.85591453369932     -1.43352505088386     -0.13229484922703
  H   1.87813703349447     -1.77178592364179      0.05998716169148
  H   0.17769279908008     -1.95222272875334      0.54561104707676
  H   0.61114809539983     -1.70070790329588     -1.15976970962696
  N   1.01949019932055      0.36387355809775      1.50126449415315
  H   1.77821629509835     -0.21349316410743      1.84155366564806
  H   1.28855781910182      1.33403048486753      1.61585292870161
