15

C	0.0	0.0	0.0
C	-0.414316	-0.02621	-1.533564
Cl	1.778908	0.0	0.0
H	0.497291	-0.279766	-2.079849
C	-0.378983	1.272444	0.657352
N	-0.570511	2.245659	1.288853
N	-0.503013	-1.148079	0.687088
H	-1.532868	-0.995291	0.594322
H	-0.259303	-1.044704	1.668021
C	-0.778929	1.337311	-1.985401
N	-1.080903	2.3586	-2.48448
N	-1.406718	-1.028146	-1.860264
H	-1.591124	-0.961568	-2.855448
H	-2.243032	-0.743437	-1.310938
F	-2.76273	0.0	0.0
