15

C	0.0	0.0	0.0
C	-0.246387	0.040319	-1.584281
Cl	1.782382	0.0	0.0
H	0.542507	-0.608614	-1.981935
C	-0.428594	1.249841	0.64626
N	-0.660498	2.275811	1.167822
N	-0.5946	-1.107302	0.65956
H	-0.45809	-1.928992	0.077956
H	-1.617746	-0.864847	0.609758
C	0.073733	1.391377	-2.086428
N	0.294078	2.447194	-2.555401
N	-1.523185	-0.476111	-2.029759
H	-2.2576	-0.216698	-1.316367
H	-1.741822	-0.058042	-2.925428
F	-2.911534	0.0	0.0
