15

C	0.0	0.0	0.0
C	-0.525281	-0.091319	-1.436807
Cl	1.78812	0.0	0.0
H	-1.625527	-0.058845	-1.234034
C	-0.362751	1.331652	0.546914
N	-0.567894	2.35226	1.092193
N	-0.541331	-1.095549	0.73855
H	-0.273589	-1.001358	1.713458
H	-1.5741	-0.894743	0.638414
C	-0.156602	-1.383169	-2.030424
N	0.140499	-2.350106	-2.630043
N	-0.102605	1.049447	-2.231193
H	0.801936	0.880614	-2.651793
H	-0.776525	1.216927	-2.964757
F	-2.777275	0.0	0.0
