15

C	0.0	0.0	0.0
C	-0.507969	0.038735	-1.457648
Cl	1.796285	0.0	0.0
H	-1.607954	0.083314	-1.244971
C	-0.386887	1.272842	0.640266
N	-0.600439	2.311589	1.143351
N	-0.523345	-1.084078	0.770994
H	-0.291431	-1.953142	0.297574
H	-1.555477	-0.895824	0.673378
C	-0.184985	-1.234348	-2.116682
N	0.1025	-2.226187	-2.680329
N	-0.046182	1.208631	-2.1788
H	-0.693076	1.429687	-2.923908
H	0.874304	1.056083	-2.572583
F	-2.752341	0.0	0.0
