15

C	0.0	0.0	0.0
C	-0.331344	0.20458	-1.508832
Cl	1.821964	0.0	0.0
H	0.202717	1.114425	-1.82089
C	-0.410327	1.17311	0.779022
N	-0.590984	2.144955	1.413216
N	-0.455556	-1.209195	0.59886
H	-0.253049	-1.937558	-0.081906
H	-1.48429	-1.031277	0.58278
C	-1.747279	0.417328	-1.88654
N	-2.521794	0.648161	-2.750875
N	0.133839	-0.983808	-2.239996
H	1.113234	-0.87604	-2.471272
H	-0.396375	-1.055414	-3.098078
F	-2.594594	0.0	0.0
