13
Coordinates from ORCA-job run
  C   0.95100037348626     -0.86638724072036     -0.30297109341193
  C   -0.13462220915913     -0.11430861483765     -0.02489286097672
  H   0.84575387373885     -1.90794549170228     -0.59290824609336
  C   2.28513484165951     -0.35897059076312     -0.23440331081116
  N   3.38659145957382      0.05059170143682     -0.17919896398433
  C   -1.51153911758457     -0.70364637315853     -0.11380563118099
  H   -2.11883887880364     -0.14737112075905     -0.83492262468237
  H   -2.02102037001994     -0.63070800203959      0.85232330011657
  H   -1.48999227697883     -1.75215873870585     -0.41533913998081
  C   -0.05020988946853      1.32656403960522      0.38130944492084
  H   0.97819163724856      1.68629144245173      0.42706646264020
  H   -0.60685307913025      1.95092611200301     -0.32466131885470
  H   -0.51259636456209      1.46812287718964      1.36340398229876
