13
Coordinates from ORCA-job run
  C   1.29844241352043     -0.05280269901927     -0.24157933419633
  C   -0.00902760821866      0.17814340592261      0.00069266827167
  H   1.99305781644932      0.77185416450168     -0.37353750884388
  C   1.84987450202929     -1.36771277026313     -0.33633354920131
  N   2.31190922346740     -2.44678353594141     -0.41467921614773
  C   -1.01252104248133     -0.91932287719571      0.19243114367777
  H   -1.48869509939351     -0.82626946787061      1.17373330482156
  H   -0.56435201690507     -1.91056900774369      0.11700798850592
  H   -1.80778517347849     -0.83853498152579     -0.55527882671186
  C   -0.52980155316890      1.58241989643287      0.08987627109379
  H   0.25804395100012      2.32214484531087     -0.06137046382307
  H   -1.31036014941290      1.74828563594125     -0.65944686007356
  H   -0.98778526340768      1.75814739145032      1.06848438262704
