13
Coordinates from ORCA-job run
  C   0.86191315205396     -0.69725507196041     -0.72076427348468
  C   -0.12935176840742     -0.12259196940136     -0.00744386741573
  H   0.72983436578342     -1.68112408341825     -1.16184514593248
  C   2.12569683734309     -0.06747887414650     -0.94013106609241
  N   3.16842771357571      0.44523813183065     -1.12399819572940
  C   -0.00454945803305      1.23155068192513      0.62437921851891
  H   -0.78128614021096      1.89971068346730      0.23898200715016
  H   0.96864834824211      1.68827867816723      0.44141282134568
  H   -0.15714188238681      1.15783067169344      1.70586434160171
  C   -1.43568525656448     -0.83337444452571      0.19044984807200
  H   -1.63383107829069     -0.97727520816713      1.25740863644778
  H   -1.44987009132491     -1.80882300486919     -0.29853018941715
  H   -2.26080474177997     -0.23368619059521     -0.20678413506440
