13
Coordinates from ORCA-job run
  C   1.29777418519276     -0.05277497580320     -0.24719490075253
  C   -0.00950398269984      0.17828796413833     -0.00362743514421
  H   1.98751562607061      0.77188758050024     -0.40296080404968
  C   1.85366476607330     -1.36740536228405     -0.31604054682070
  N   2.31692655882918     -2.44717219153152     -0.37459941437146
  C   -1.00710170280442     -0.91881818554764      0.21913394123250
  H   -0.55581712655460     -1.90970805942914      0.16030390582011
  H   -1.80834528144978     -0.85592533413720     -0.52400603978833
  H   -1.47590271113600     -0.80706280622680      1.20198002501486
  C   -0.53589948337437      1.58189194649067      0.05741456477040
  H   -0.98894834140852      1.77726498728381      1.03459957116906
  H   -1.32122277755940      1.72796559444942     -0.69097705841934
  H   0.24786027082107      2.32156884209707     -0.11402580866069
