13
Coordinates from ORCA-job run
  C   0.97300753497484     -0.81912117329928     -0.36120995259203
  C   -0.13201471869910     -0.11099988560621     -0.04627394614277
  H   0.89127968439529     -1.81558056511473     -0.78602483081548
  C   2.29717268055028     -0.31980164926795     -0.16303560191917
  N   3.38965755109464      0.08610862949703     -0.00289028227291
  C   -1.49743515325490     -0.68837474370253     -0.27690979300239
  H   -2.05405322651664     -0.73933951987180      0.66430888229318
  H   -2.07382912378653     -0.04765519290795     -0.95174721366136
  H   -1.45167722245626     -1.69073328892262     -0.70583308193417
  C   -0.08096256136185      1.26721394809711      0.54227751477254
  H   -0.61041450743350      1.97320789666929     -0.10538131746984
  H   0.94048046030578      1.62250889366701      0.68157229962971
  H   -0.59021139781203      1.28156665076263      1.51114732311467
