13
Coordinates from ORCA-job run
  C   0.91037220621889     -0.77844727671300     -0.55947542914163
  C   -0.13846722660771     -0.10458696231016     -0.04242721420721
  H   0.76241539035062     -1.71937550887682     -1.08195086962818
  C   2.25773831516046     -0.31318018992410     -0.45839906738284
  N   3.36891010746993      0.06503923235460     -0.37951181975873
  C   -1.53226621977243     -0.64190243947384     -0.18216327903655
  H   -2.16689451463341      0.07797658263492     -0.70888115541556
  H   -1.55490720358905     -1.58679877060407     -0.72755224101365
  H   -1.98193344317392     -0.79854503830003      0.80353942174747
  C   0.00483019460581      1.19645623788968      0.68911076351900
  H   -0.39423859077339      1.10249554770507      1.70422417173374
  H   1.04251680571031      1.52537576392506      0.75338306618285
  H   -0.57807582096611      1.97649282169268      0.18910365240129
