13
Coordinates from ORCA-job run
  C   1.29221619825697     -0.06127907951509     -0.27425655771099
  C   -0.00744487087271      0.17858745654943     -0.00123739529228
  H   1.98361265545785      0.75864390499828     -0.44669411289194
  C   1.83541344729442     -1.37981783584447     -0.36297502392452
  N   2.28711150652952     -2.46350512169699     -0.43876297280195
  C   -1.00684483836992     -0.91175402603822      0.24430915804597
  H   -0.56413389277596     -1.90584630816892      0.17369940593176
  H   -1.45105163385983     -0.79733632818016      1.23822477296321
  H   -1.82576670777827     -0.84333100949669     -0.47874988488574
  C   -0.52384819300005      1.58531629304235      0.07091339468217
  H   -0.96200057967280      1.78142566960668      1.05473401355138
  H   -1.31913801827471      1.73755759120980     -0.66582099598325
  H   0.26187492706551      2.32033879353400     -0.11138380168382
