13
Coordinates from ORCA-job run
  C   0.88250226985705     -0.60513051638701     -0.77646656664656
  C   -0.13196386222199     -0.11535420834878     -0.03308802123738
  H   0.75117265731230     -1.50505650112722     -1.37047731912815
  C   2.17022547608571      0.01169647712799     -0.83389108815986
  N   3.23188700265480      0.51585695219431     -0.88555508415108
  C   -0.00890595554927      1.11995204095959      0.80772970511626
  H   0.98205833213573      1.57031940961232      0.74323789168626
  H   -0.75050539915808      1.86293089604115      0.49742310030778
  H   -0.21690312452246      0.88300292271793      1.85602419526838
  C   -1.46310223296631     -0.80760827557717     -0.01224750695487
  H   -1.72315374244415     -1.10581493344111      1.00825694392233
  H   -1.47270324269220     -1.69586177349868     -0.64603279031074
  H   -2.25060817849113     -0.12893249027335     -0.35491345971235
