14
Coordinates from ORCA-job run
  C   0.70199324233665      0.02175767768670     -0.19997749760626
  C   -0.50131618179945      0.11865839005103      0.44208275574072
  N   0.77958203777694     -0.25501369982367     -1.55035162384204
  H   0.15405320683029     -0.95338904418294     -1.91303800093837
  H   1.70046670012067     -0.25026766060496     -1.95502909743804
  N   1.92499290230084      0.31959683354483      0.38962436802678
  H   1.84590649576473      0.60442638173377      1.35584218512983
  H   2.62420798067643     -0.40026385034772      0.27045350113995
  C   -1.81690828794043      0.03917644123075     -0.28670832120447
  H   -2.58574383316156      0.60082060645512      0.24672385578328
  H   -1.71665841506056      0.46917664922627     -1.28693426658466
  H   -2.17875504813787     -0.99026235891104     -0.38933158285527
  C   -0.48388534118984      0.27281579212740      1.85264904264621
  N   -0.44693545851686      0.40376784181446      3.02399468200233
