14
Coordinates from ORCA-job run
  C   0.70418373146362      0.01817184548080     -0.19569223943543
  C   -0.50339707401170      0.12676973057125      0.43637218183892
  N   0.79052219632378     -0.28382178531055     -1.54012402270836
  H   0.16513202539457     -0.98647672234679     -1.89446162458002
  H   1.71364179859889     -0.28752878572486     -1.93957994102851
  N   1.92335678711069      0.32586386656084      0.39630957347920
  H   1.83901951532942      0.62845649429762      1.35666082542930
  H   2.62411773021091     -0.39500966043449      0.29351978488782
  C   -1.81450497716320      0.03378687956025     -0.29909013285101
  H   -2.17532696579375     -0.99778223237395     -0.38344984812853
  H   -2.58624979801788      0.60561658013247      0.21907741439222
  H   -1.70991358469181      0.44350896953876     -1.30721266041531
  C   -0.49697771275944      0.30779295793959      1.84382959493869
  N   -0.47260367199411      0.46065186210905      3.01284109418102
