14
Coordinates from ORCA-job run
  C   0.72715630169654     -0.07356886438321     -0.18127694586871
  C   -0.47270635171371      0.13136185234809      0.44012706393364
  N   0.85136582570711     -0.28250590955279     -1.54425149442218
  H   1.51156766783080     -1.00790516635560     -1.78357562241015
  H   -0.01718679212684     -0.36046148120475     -2.04782666851807
  N   1.94989281649710     -0.11172237012789      0.47251254846570
  H   2.66775435197108      0.41947542234198      0.00006253669612
  H   1.89420580607100      0.11228808043112      1.45594077736462
  C   -1.80286092075060     -0.03858169385096     -0.25076004939390
  H   -2.06062647155183      0.82105001784563     -0.87870199733970
  H   -2.59928665066334     -0.15452210978016      0.48530070345926
  H   -1.81163171961972     -0.93587511862423     -0.87767411595666
  C   -0.44350350700230      0.56392816974521      1.79231439029238
  N   -0.39414035634529      0.91503917116755      2.91680887369765
