14
Coordinates from ORCA-job run
  C   0.69424152641417     -0.15581462084152     -0.16449105125708
  C   -0.58062688648908     -0.12561672658818      0.32878148996184
  N   1.23854945465228      0.92915960734031     -0.82322615741377
  H   0.64588015933436      1.41335178823614     -1.47541131232771
  H   2.20179499086009      0.84448191506380     -1.10087762646585
  N   1.59049698199493     -1.19400914565141      0.05886809824968
  H   1.20675324766547     -1.94359832568419      0.61704468829107
  H   2.03499636316899     -1.54301937695454     -0.77882463356395
  C   -1.43408463768794      1.11470713065193      0.28959592098519
  H   -2.00407518162221      1.20236389999207     -0.64245493152602
  H   -2.15302509977456      1.11205761287365      1.11073512384376
  H   -0.80746929483272      2.00463620602885      0.39308695446333
  C   -1.10787031478227     -1.32706853414831      0.86974045215025
  N   -1.52856130890151     -2.33363143031860      1.31743298460927
