14
Coordinates from ORCA-job run
  C   0.69616654908699     -0.00864083917337     -0.22669437008747
  C   -0.49538388667473      0.20464852512532      0.40671044145897
  N   0.75356041779530     -0.55796408278000     -1.49814049418528
  H   0.16757361505554     -1.36323990219483     -1.65216541568457
  H   1.68406218717960     -0.65281151146712     -1.86881226634591
  N   1.92442701395702      0.42411006982739      0.26182760724504
  H   2.61945544296611     -0.30649404158670      0.32367096893475
  H   1.85475242861268      0.94334829627249      1.12624925552793
  C   -1.82905966253960     -0.03903149332511     -0.24899195989598
  H   -1.75153165876521      0.12478054732734     -1.32702283479692
  H   -2.58055603053185      0.64612207106800      0.14959042875647
  H   -2.19674736680576     -1.05714355794565     -0.08071132078785
  C   -0.45172942973228      0.63947328685965      1.75787559379448
  N   -0.39498961960381      1.00484263199258      2.87761436606635
