14
Coordinates from ORCA-job run
  C   0.72392834271551     -0.14480918651711     -0.17685583645735
  C   -0.47104454489102      0.15970292818388      0.41063081955417
  N   1.92717355352626     -0.21030751356119      0.50983201772736
  H   1.86505830466849      0.03660264255303      1.48592061617751
  H   2.67963858422103      0.27172027360183      0.04047529784401
  N   0.88762057408088     -0.44111598515438     -1.52022126302432
  H   0.04457584173012     -0.47671725430273     -2.06802542444973
  H   1.49927753049709     -1.22602324502125     -1.68735810291779
  C   -1.82105837234015      0.05531461662916     -0.25072967605533
  H   -2.54415039681336     -0.40067544451300      0.42942418981681
  H   -2.20736118986419      1.03933564404318     -0.53880606221740
  H   -1.79160725192844     -0.56393131741151     -1.15104581863565
  C   -0.42385039652767      0.71682759279563      1.71782139474191
  N   -0.36820057907455      1.18407624867448      2.79893784789581
