14
Coordinates from ORCA-job run
  C   0.69749421650538     -0.00710425895665     -0.21504061703515
  C   -0.49797093242194      0.20509407980934      0.41357822323603
  N   0.75984775727854     -0.58953480019444     -1.46675243663628
  H   0.15914083789259     -1.38003668417887     -1.62948136861540
  H   1.67760200832912     -0.66653497134650     -1.87200990640369
  N   1.91991837194736      0.45516945333424      0.25864546325291
  H   2.63985263406949     -0.25299740382670      0.29404685201963
  H   1.84679491461118      0.95387658610849      1.13441087886303
  C   -1.82107705963129     -0.08033042426027     -0.24637886751061
  H   -1.75314209223797      0.11109442993357     -1.32081786876905
  H   -2.60279203624561      0.56259832268851      0.16122474793705
  H   -2.14640097285715     -1.11731862350598     -0.10406874139267
  C   -0.46421526601749      0.69708729387623      1.74440288551150
  N   -0.41605238122220      1.10893700051904      2.84824075554268
