14
Coordinates from ORCA-job run
  C   0.69603382820167     -0.06178242888701     -0.21352931260144
  C   -0.47778340776664      0.22336256146568      0.42681269491309
  N   1.95420459925188      0.21631332535656      0.30749916926870
  H   2.59155777754552     -0.56770876301322      0.28285257455795
  H   1.92447741822544      0.64238555948157      1.22327178721099
  N   0.71387401988279     -0.53500040474148     -1.51128962119883
  H   0.03270404442542     -1.23479183985937     -1.75113454601310
  H   1.62192400230431     -0.66194398855602     -1.92542014414203
  C   -1.81533100026917      0.14806314235813     -0.26130517779040
  H   -2.26422223773677     -0.84988816371409     -0.19835643170381
  H   -2.51924749645022      0.84941262141417      0.19024488862761
  H   -1.70779699084540      0.40998357939364     -1.31722988554626
  C   -0.41226145565709      0.56724054766281      1.80199098547729
  N   -0.33813310111174      0.85335425163864      2.94359301894023
