14
Coordinates from ORCA-job run
  C   0.73046138923232      0.00015719107357     -0.18013599942114
  C   -0.48421200620179      0.07962386673468      0.44124965843636
  N   0.89255315168386     -0.45494027555056     -1.47750732052077
  H   1.55036123022857      0.08843218934570     -2.01716889712391
  H   0.03905037325605     -0.64758531378333     -1.97602164459631
  N   1.93266707343705      0.37348333829274      0.40221167793579
  H   1.85209216049223      0.63788229544553      1.37362419661985
  H   2.67193004824124     -0.29792797142444      0.24876861124746
  C   -1.79521839485170     -0.13183086106875     -0.27487382006403
  H   -2.61490533152484      0.29503116151234      0.30407915692013
  H   -1.79778439766004      0.36433550337336     -1.25060078850000
  H   -2.02073178591159     -1.19251751716907     -0.42827861933620
  C   -0.48886121439159      0.33395346062908      1.83804706740131
  N   -0.46740229602976      0.55190293258914      2.99660672100146
