14
Coordinates from ORCA-job run
  C   0.59182022115190     -0.21394768527791     -0.37036069063891
  C   -0.54680963343942     -0.12436287405068      0.38130065762401
  N   1.02966834050290      0.83967385716608     -1.14905741109998
  H   0.98306476817526      1.75860815767160     -0.74361809145277
  H   1.83912282414292      0.66361260596813     -1.71982772296835
  N   1.32674113120017     -1.38271967853742     -0.53170622702820
  H   0.94529653706132     -2.17041478100968     -0.02670930897529
  H   2.31638515516331     -1.27346564516205     -0.35834707394835
  C   -1.46029396840203      1.07186646225283      0.33461081834849
  H   -2.49173825284739      0.77545951684113      0.53317374316390
  H   -1.42677061361996      1.52945728741525     -0.65738458590953
  H   -1.19162772871629      1.83376879956190      1.07484665949217
  C   -0.84318869460789     -1.20115153228057      1.25735535403547
  N   -1.07367008576478     -2.10738449055860      1.97572387935736
