14
Coordinates from ORCA-job run
  C   0.67317251944953     -0.21738941582393     -0.25721665951594
  C   -0.55033492192098     -0.11819500052771      0.34358335377615
  N   1.55755611665782     -1.26804074314059     -0.06198328125265
  H   1.18620871595300     -2.01475730005955      0.50793130914096
  H   1.96177573557620     -1.60942448910558     -0.92261617379770
  N   1.17376258005733      0.73814450250574     -1.12501257637572
  H   0.61000981915697      1.56676491548802     -1.22275725877779
  H   2.15200397352933      0.94210281937449     -0.98064332246520
  C   -1.40373766395491      1.12432299402222      0.28287183946350
  H   -1.94131455110002      1.21627359154546     -0.66691919757646
  H   -0.80000838332729      2.02645839586408      0.42397700162500
  H   -2.14923863317001      1.11062425257632      1.07896762014380
  C   -1.04235621442077     -1.26595238598974      1.01950098170068
  N   -1.42749909248622     -2.22893213672922      1.58031636391138
