14
Coordinates from ORCA-job run
  C   0.73207343914810     -0.00645018929020     -0.17520676937713
  C   -0.48654572958819      0.08989244910438      0.43585279829829
  N   0.90164774189034     -0.48762171510139     -1.46225775384112
  H   0.05012935399421     -0.68552128397340     -1.96195460065246
  H   1.56365229859905      0.04428122065718     -2.00845153897013
  N   1.93104685847486      0.37563516398518      0.40797888223622
  H   1.84485593177453      0.65715350670511      1.37410320684429
  H   2.67094346451816     -0.29858962387813      0.27078873501060
  C   -1.79366632138007     -0.13370092613617     -0.28371646317808
  H   -1.78881849445915      0.33966965232939     -1.27067483758427
  H   -2.02257384655565     -1.19678939786476     -0.41349602752827
  H   -2.61514840761461      0.31047158379807      0.27961981687005
  C   -0.50094307106068      0.37403096404737      1.82689613117691
  N   -0.48865321774090      0.61753859561737      2.98051842069510
