14
Coordinates from ORCA-job run
  C   0.70021968807916      0.00393319369046     -0.20582127768383
  C   -0.49346466468621      0.12130476475697      0.45051468790420
  N   1.93768077818332      0.24050160374342      0.38095908125677
  H   2.61173628145474     -0.49739008795498      0.23093700397117
  H   1.87815694739942      0.49743621214086      1.35636410131058
  N   0.75574997592805     -0.23266410658038     -1.56547876045446
  H   0.10819647321577     -0.90484693405125     -1.93963059309502
  H   1.67296535306684     -0.24571445988287     -1.97829546396682
  C   -1.81697196638981      0.11113023602473     -0.26815344678362
  H   -2.21582775066206     -0.90123793537401     -0.40007959389579
  H   -2.56111823179526      0.68253778829698      0.28934988191249
  H   -1.70978552160029      0.56902758584180     -1.25523741791432
  C   -0.45890370461674      0.23046954794351      1.86513217635748
  N   -0.40763365757692      0.32451259140475      3.03943962108116
