14
Coordinates from ORCA-job run
  C   0.69475401936873     -0.18929131548405     -0.16354249127010
  C   -0.49115234936397      0.23752699127922      0.36992609556553
  N   0.78747338439286     -0.73130733905721     -1.43441672014604
  H   0.25957470794731     -0.27737419216993     -2.15915464090825
  H   1.69520168788647     -1.06103100953078     -1.70979689067990
  N   1.87619873625002     -0.25889962465870      0.55629912274086
  H   1.79874603878741      0.04145042276250      1.51669961675702
  H   2.67578284532807      0.13921402584563      0.08566419802232
  C   -1.84944126359029      0.00224342811188     -0.23574367117234
  H   -2.37644043964896     -0.79078946275981      0.30031807440405
  H   -1.79186259341562     -0.29986927124010     -1.28432752460515
  H   -2.45400708841048      0.91187417787176     -0.17499978220300
  C   -0.43081769815710      0.87331038879972      1.63933771962137
  N   -0.39500998737448      1.40294278022988      2.69273689387362
