14
Coordinates from ORCA-job run
  C   0.71248345411082     -0.21294091149941     -0.11611176447237
  C   -0.45840173878957      0.30061156377585      0.36672894997153
  N   1.90489751372918     -0.24153280501550      0.59196539693206
  H   1.86283435233928      0.23137357419423      1.48350071512527
  H   2.69904208846987      0.05209904380446      0.04087341819941
  N   0.83285745766430     -0.77916806234857     -1.37360869823373
  H   1.39039811513098     -1.62072319618721     -1.38677187010958
  H   -0.02755563475020     -0.86866559891890     -1.88901899457685
  C   -1.78504200895455      0.13591223733362     -0.33216643035447
  H   -1.90736989115949     -0.88267829317327     -0.71393069960270
  H   -2.60459793462873      0.31683732209212      0.36455110986097
  H   -1.90681441963497      0.83256818115252     -1.16842546605077
  C   -0.39497436182831      1.05881117056272      1.56562025083592
  N   -0.31875699169860      1.67849577422735      2.56579408247529
