14
Coordinates from ORCA-job run
  C   0.70110114326035     -0.10241719107319     -0.17802562451897
  C   -0.49295061344341      0.09580525211300      0.45833362727069
  N   0.75570256903267     -0.48921390847316     -1.50171378852918
  H   1.67068950254841     -0.66151922344511     -1.88244341417254
  H   0.09745679853991     -0.06553737912325     -2.13263758342959
  N   1.93606529096293     -0.07663485737112      0.45849058943225
  H   2.62231632502542      0.51082573669190      0.00558946991183
  H   1.87332300367108      0.12023475703588      1.44740102297055
  C   -1.81530991306489     -0.18826467089150     -0.20469884507909
  H   -2.58625049218585     -0.38805384436630      0.54114160136768
  H   -2.16615989910656      0.65069032316259     -0.81734307178543
  H   -1.72970489982901     -1.06815153715176     -0.84758463992682
  C   -0.45874839351847      0.61743178820796      1.77758510670714
  N   -0.40553042189256      1.04580475468406      2.87490554978150
