14
Coordinates from ORCA-job run
  C   0.72636792138730     -0.06900752870435     -0.18456542170220
  C   -0.47137843085539      0.12730011646146      0.44361814428620
  N   1.96201030393558      0.19828850760432      0.38623217916732
  H   2.63485799965604     -0.54017964023343      0.23563071862157
  H   1.91277541330637      0.47857005427871      1.35536714815975
  N   0.83651367606722     -0.54888275786663     -1.47847249799736
  H   1.53678061839216     -0.07238165562878     -2.02797082625396
  H   -0.03516386355680     -0.66550845463230     -1.96893392598187
  C   -1.80120973740240      0.02938091710657     -0.26185771393434
  H   -2.12406257846798     -1.00758216045450     -0.40338761324310
  H   -2.57488512313301      0.53533823784139      0.31707930378387
  H   -1.76572348086147      0.51413958912724     -1.24268487793562
  C   -0.44279100080914      0.39577880874539      1.83758066339003
  N   -0.39409171765848      0.62374596635492      2.99336471963972
