14
Coordinates from ORCA-job run
  C   0.72800419632670     -0.11312861456066     -0.15294409820647
  C   -0.47651289529785      0.22446681570602      0.39765317939042
  N   1.95798584726269      0.26149694812850      0.36699853019406
  H   2.62520001986933     -0.49649291538162      0.39113437167039
  H   1.89854343619271      0.74747443902021      1.25053995156437
  N   0.85124487483789     -0.86360075367842     -1.30983326049988
  H   -0.01452222902259     -1.07851693789832     -1.77701543306774
  H   1.56448090628164     -0.52353190943853     -1.93823969823998
  C   -1.79673615305132     -0.01341396870299     -0.29253689408725
  H   -2.57384193018112      0.60996255782248      0.15150281180787
  H   -2.12770067462919     -1.05447304671977     -0.21346190970690
  H   -1.74183086345269      0.24913682700290     -1.35378504152992
  C   -0.46484288052843      0.78914590818376      1.70034143628543
  N   -0.42947165460776      1.26247465051645      2.77964605442561
