14
Coordinates from ORCA-job run
  C   0.69863860719366     -0.13788118054887     -0.19898144522367
  C   -0.46098192040688      0.30113742457433      0.37745731374503
  N   0.71734995762498     -0.78520094872438     -1.41631106497889
  H   0.00327466261772     -1.46331561024995     -1.61205269652616
  H   1.61887323640834     -0.96305436129050     -1.82420178528427
  N   1.96145336361368      0.15412967791391      0.29646163071627
  H   1.95617645475669      0.73340064449162      1.12289735082906
  H   2.57575997217353     -0.64204657263287      0.37770809359193
  C   -1.81214862116054      0.21568978590695     -0.28442823839190
  H   -1.70009516829003      0.16799079754609     -1.37174942807020
  H   -2.40800842980271      1.09735159066212     -0.04274712631864
  H   -2.38638717748293     -0.65556305416590      0.04787565335601
  C   -0.40097868011493      0.79941795245130      1.70498804343646
  N   -0.36292625713059      1.17794385406616      2.82108369911896
