14
Coordinates from ORCA-job run
  C   0.70271741459291     -0.10016107572642     -0.16075175531471
  C   -0.50268146903982      0.12025906429420      0.45036132291681
  N   0.76502499648747     -0.52354995418109     -1.47603055118994
  H   0.04082140573008     -0.16171149018401     -2.07611691923293
  H   1.67808548629791     -0.51087174607283     -1.90241970754161
  N   1.92091997785611     -0.09101767973505      0.50362393892143
  H   1.84523253469782      0.15829371588624      1.47965820337389
  H   2.64935072915887      0.43375817594117      0.04141512303829
  C   -1.80382329054202     -0.16931984646708     -0.24767894932465
  H   -2.63841819797004     -0.10704403434187      0.45022337936832
  H   -1.79433993450753     -1.18011783256320     -0.66901051426010
  H   -2.01597562792691      0.52757442498041     -1.06628065170252
  C   -0.46936201391542      0.60093269705944      1.78469443686109
  N   -0.37655201091943      1.00497558111011      2.88831264408663
