14
Coordinates from ORCA-job run
  C   0.68437356977575     -0.19296549361161     -0.24665033227597
  C   -0.54516378172755     -0.13307115988375      0.34709661777233
  N   1.61956998803475     -1.18989532747218     -0.01033313968105
  H   1.28359863615136     -1.93248925591882      0.58629288214714
  H   2.04335696133346     -1.54235331647905     -0.85697874584499
  N   1.14004209970632      0.75342884386553     -1.14838895261323
  H   0.53612181231668      1.54855335524785     -1.27898427478870
  H   2.10644390102443      1.01107367180853     -1.01028788747218
  C   -1.45933646616376      1.06176116487272      0.23705605286406
  H   -0.90262106254678      1.99794695613055      0.34583417707747
  H   -1.99610556307191      1.09129749068391     -0.71722157974349
  H   -2.20733764804900      1.04032621528046      1.03065907119750
  C   -0.98182525487473     -1.27828673996026      1.06394114460083
  N   -1.32011719190902     -2.23832640456387      1.65896496676027
