14
Coordinates from ORCA-job run
  C   0.71633235404757     -0.17807247745685     -0.14705478686698
  C   -0.45370315075625      0.29503391643590      0.37724257618995
  N   1.94718144679880     -0.09736663371692      0.48759695456474
  H   1.92787307681656      0.42422279920519      1.35238590333548
  H   2.68866500010219      0.20859803311371     -0.12657008513646
  N   0.79833954764891     -0.80836286965614     -1.37689551638173
  H   1.40363010561144     -1.61643455775493     -1.37733768316751
  H   -0.08347184668140     -0.97775020232981     -1.83265697606893
  C   -1.80557971640992      0.01387538849372     -0.23005721318747
  H   -2.01617811585820      0.65138440146636     -1.09539709858056
  H   -2.59374458947918      0.18971577106262      0.50318653323526
  H   -1.88856988586407     -1.03081422222110     -0.54612299861333
  C   -0.36736712259285      1.12344539392479      1.52716328597223
  N   -0.27140710338359      1.80352525943346      2.48551710470533
