14
Coordinates from ORCA-job run
  C   0.69286044670540     -0.15383190152027     -0.17107570113001
  C   -0.46883470557804      0.33422469859033      0.35946017150978
  N   1.95702985587912      0.12753002676945      0.33307598969848
  H   1.94158649665193      0.72379292623471      1.14866376668706
  H   2.53305722786284     -0.68973074445189      0.48027571279677
  N   0.70212737013433     -0.86866259228572     -1.35325444037542
  H   1.60637368980926     -1.13920375093045     -1.70125101037132
  H   -0.02629660979444     -1.55029863495335     -1.48016699010876
  C   -1.79245338840897      0.22627421735751     -0.35088092898246
  H   -1.64217558778657      0.27751269018062     -1.43253153887717
  H   -2.31712407060699     -0.70813140823603     -0.12095766818991
  H   -2.45076475434428      1.04739969674966     -0.06201276119395
  C   -0.40492430656633      0.93695397769109      1.64269388913167
  N   -0.33046166395726      1.43717079880434      2.70796150940526
