14
Coordinates from ORCA-job run
  C   0.68328399978512     -0.17479645514693     -0.25455467543863
  C   -0.54514543863587     -0.15921269585678      0.34293040614871
  N   1.14342803946903      0.84688216922887     -1.06640068048351
  H   2.11597201581209      1.07796818127644     -0.91776361199157
  H   0.54994269877152      1.66098826941489     -1.09747275912964
  N   1.60845137813977     -1.20201062497232     -0.11990948998006
  H   1.26883427520109     -1.98594015444597      0.41882956414312
  H   2.00074150832165     -1.49211232206981     -1.00471492352217
  C   -1.44723567424612      1.04953666067754      0.32104215010992
  H   -2.22277740746350      0.96577786138049      1.08264686027373
  H   -0.88302263029189      1.96386904755016      0.53726177903466
  H   -1.94489356019835      1.18103455376697     -0.64527686859913
  C   -0.98977906156428     -1.36189759908274      0.95198639380633
  N   -1.33880014310026     -2.37108689172079      1.45139585562823
