14
Coordinates from ORCA-job run
  C   0.69087677889101     -0.15800276913849     -0.17670177443784
  C   -0.48792969929711      0.13022203522791      0.45319972697477
  N   0.72542244421442     -0.53633170203996     -1.50511783333615
  H   1.62867904910440     -0.78423823130609     -1.87244308547976
  H   0.13073350653326     -0.03023387274250     -2.13865338877476
  N   1.91948687937931     -0.23427993121908      0.46830641868801
  H   1.86634612787714     -0.04122366869776      1.45864693749951
  H   2.65247329157269      0.30085646770098      0.02372763687740
  C   -1.82697180251075     -0.04559707465295     -0.21330823296701
  H   -1.79087081383735     -0.88785899568631     -0.90935935587665
  H   -2.60051485520413     -0.25397533328967      0.52794721845765
  H   -2.13965623787563      0.84584382374241     -0.76893866834500
  C   -0.42078855493632      0.63843165456794      1.77662299206684
  N   -0.34528611391094      1.05538759753358      2.87707140865298
