14
Coordinates from ORCA-job run
  C   0.69712204481636     -0.17193278813502     -0.22897689695755
  C   -0.56336338478517     -0.15971521466067      0.29970145702666
  N   1.31049482241931      0.94545462350395     -0.76900275571017
  H   0.73421682248861      1.76921822887494     -0.82258062706858
  H   1.81223589184607      0.75790333104059     -1.62485799654320
  N   1.50049803727621     -1.30050288651200     -0.30244000887106
  H   1.10920343478243     -2.11295861640111      0.15268044342173
  H   2.45449291858626     -1.12663622279513     -0.01942824114671
  C   -1.50296461396635      1.01471027443313      0.18638160262934
  H   -1.31320595618918      1.77708920651020      0.94901434133268
  H   -1.42845579823213      1.48798301149650     -0.79722402801962
  H   -2.53622408760966      0.68552627286283      0.30430958074506
  C   -0.97462722294416     -1.30245416724892      1.03557267881209
  N   -1.29742290848860     -2.26268505296928      1.63885045034934
