14
Coordinates from ORCA-job run
  C   0.67268800941517     -0.19500689596954     -0.27581962558898
  C   -0.52944207970349     -0.13040894339866      0.37114103641429
  N   1.61658825993497     -1.19148831133160     -0.07476612985241
  H   2.00188807566058     -1.55003672610499     -0.93714318741665
  H   1.30584308462465     -1.93052509675025      0.53979532883916
  N   1.08872243027321      0.74539121716529     -1.20256306894581
  H   0.48048352200513      1.54054229191053     -1.31116876826170
  H   2.06069557731663      1.00223219385874     -1.10949156021639
  C   -1.44671049291856      1.06483115690659      0.29480925209807
  H   -2.02551730004416      1.08917300449717     -0.63464600084652
  H   -2.15821378770579      1.04912030356051      1.12135003134683
  H   -0.88479383354232      2.00095334428024      0.37331764581756
  C   -0.93512427160364     -1.27058898131100      1.11375931511613
  N   -1.24810719371239     -2.22618855731303      1.72942573149641
