14
Coordinates from ORCA-job run
  C   0.66274973187834     -0.23543748113129     -0.25618502482581
  C   -0.55147791059491     -0.10340817562797      0.35827549677949
  N   1.54713572658583     -1.28039655226794     -0.03824962736498
  H   1.20053749597348     -1.99992029105802      0.57902059962976
  H   1.93805157789983     -1.65286691870451     -0.89165445958361
  N   1.13796504783306      0.67031085318490     -1.18844553362339
  H   0.58051139609980      1.49864108310886     -1.31367155044800
  H   2.12219957890646      0.87076611112090     -1.09107759683698
  C   -1.39500053294426      1.14304897708673      0.24406851102637
  H   -1.67817285421824      1.36067270041613     -0.78949047615367
  H   -0.87753481040630      2.01695024279367      0.64944496843491
  H   -2.32010668534028      1.02283087834591      0.80676002126579
  C   -1.00791888977254     -1.19548133518304      1.14073190370796
  N   -1.35893887190029     -2.11571009208432      1.78947276799217
