14
Coordinates from ORCA-job run
  C   0.69808831769926     -0.09245405940604     -0.19224531258269
  C   -0.48825521773558      0.08049229791987      0.46516463454745
  N   0.73905077216338     -0.44729469107890     -1.52630001405032
  H   0.08580027016366      0.00671824655184     -2.14131871398770
  H   1.65175290469778     -0.61270397640100     -1.91556844726754
  N   1.94211969697409     -0.06639460157818      0.42695302666221
  H   2.61384563619840      0.53799918677795     -0.02562156721006
  H   1.89313894809538      0.10974117914952      1.42069578314355
  C   -1.81949522243752     -0.20644207538110     -0.17833302123731
  H   -2.22108600691183      0.65944179454009     -0.71704292770882
  H   -2.55630961627343     -0.49010482502394      0.57516609076809
  H   -1.72281840766907     -1.03517656570945     -0.88474774985766
  C   -0.43940690005904      0.57447546222556      1.79460882493151
  N   -0.37742517490547      0.98170262741378      2.89958939384930
