14
Coordinates from ORCA-job run
  C   0.64830261146367     -0.15497964699305     -0.29788435860778
  C   -0.50772666501964     -0.12944635389281      0.43150010162404
  N   1.55747165268155     -1.20605436224740     -0.27885275562565
  H   1.82750707678366     -1.53359551741633     -1.19596608189024
  H   1.27841805720708     -1.96879709165378      0.32219277994559
  N   1.07107175154228      0.94496649174841     -1.01911598100554
  H   0.36999286138674      1.44798152216165     -1.53567102320506
  H   1.96075556775009      0.85723452885032     -1.48065646998397
  C   -1.33896057001178      1.11658540148200      0.58859747444217
  H   -1.88574947257670      1.09652462883159      1.53300487606789
  H   -2.07760152432391      1.23169198322281     -0.21295706078712
  H   -0.69417345797640      1.99942915310051      0.59006423024189
  C   -0.93575362997321     -1.34272017363136      1.03059682844306
  N   -1.27255425893343     -2.35982056356254      1.52314744034070
