14
Coordinates from ORCA-job run
  C   0.69803365375859     -0.19813329699017     -0.20048353890057
  C   -0.58232454317551     -0.14307776674547      0.27464914218255
  N   1.56436750071421     -1.26141208845598      0.00740958754565
  H   1.14067201438972     -2.04787889293161      0.47875442497238
  H   2.05788102156174     -1.53852327591275     -0.82938512972147
  N   1.27942745898452      0.81907646608752     -0.93765317863943
  H   2.23629927223852      1.01082462842061     -0.67910969101911
  H   0.72294007588650      1.65290673881040     -1.03287561321330
  C   -1.43311563689861      1.10141916423907      0.21786904799236
  H   -0.85340855406421      1.98972323716757      0.48830843008319
  H   -1.86889132047238      1.26481290055246     -0.77359237934500
  H   -2.25752153375861      1.02866230094058      0.92833767206273
  C   -1.13406822301387     -1.33770138557664      0.80811928076731
  N   -1.56829118615062     -2.33969872960558      1.25265194523271
