14
Coordinates from ORCA-job run
  C   0.69002503807843     -0.17649729692548     -0.23737504666656
  C   -0.54272218956824     -0.15776337441855      0.35213048268142
  N   1.13420264112710      0.82917529984775     -1.07635530804021
  H   0.54615236319418      1.64669601712168     -1.11484315500106
  H   2.10913458253914      1.06382146136317     -0.96314187481424
  N   1.62909875947076     -1.18022848059580     -0.05313263736856
  H   1.26102972353627     -1.98895295147412      0.42991862061040
  H   2.09970430139074     -1.43850241013205     -0.91010315765126
  C   -1.46912954859589      1.03023774023853      0.25970436487087
  H   -0.98502220329411      1.94970794192410      0.60563666056918
  H   -2.34801174910464      0.87506230209573      0.88513821735701
  H   -1.82980425898425      1.19905447637851     -0.76062316163702
  C   -0.97994840929436     -1.33380120747669      1.01230503859740
  N   -1.31570905049514     -2.31700951794678      1.56974095649262
