15

C	0.0	0.0	0.0
C	-0.544999	-0.124525	-1.436528
Cl	1.790928	0.0	0.0
H	-1.626584	-0.215971	-1.287984
H	-0.338107	0.939494	0.438455
C	-0.406446	-1.11545	0.856501
N	-0.603848	-2.048043	1.542605
C	-0.023092	-1.354495	-2.158813
H	-0.175626	-2.259557	-1.565089
H	1.040839	-1.264384	-2.394329
H	-0.573101	-1.454149	-3.095688
N	-0.314046	1.072925	-2.231622
H	-0.931162	1.806762	-1.901279
H	0.644955	1.387817	-2.129719
Br	-3.710477	0.0	0.0
