15

C	0.0	0.0	0.0
C	-0.540409	0.238398	-1.438253
Cl	1.79358	0.0	0.0
H	0.323239	0.156043	-2.105187
H	-0.319883	0.790831	0.679361
C	-0.39616	-1.289084	0.574261
N	-0.584772	-2.298361	1.144356
C	-1.116559	1.651934	-1.52168
H	-0.398192	2.40631	-1.178088
H	-1.389739	1.888287	-2.554799
H	-2.028858	1.699866	-0.920917
N	-1.456438	-0.830112	-1.805756
H	-2.332561	-0.723488	-1.283346
H	-1.699839	-0.715672	-2.783461
Br	-4.256914	0.0	0.0
