15

C	0.0	0.0	0.0
C	-0.50052	-0.999563	-1.120882
Cl	1.79036	0.0	0.0
H	0.38101	-1.601695	-1.364814
H	-0.340637	1.020261	-0.181348
C	-0.411537	-0.422449	1.335879
N	-0.65281	-0.791605	2.424514
C	-0.908448	-0.182368	-2.340239
H	-0.132879	0.533682	-2.624539
H	-1.098623	-0.855264	-3.178331
H	-1.836059	0.349546	-2.115512
N	-1.565527	-1.896548	-0.763418
H	-2.428829	-1.38446	-0.556077
H	-1.321798	-2.447471	0.052859
Br	-4.247959	0.0	0.0
