16
Coordinates from ORCA-job run
  C   -0.72224847445361     -0.03626151194341     -0.43275456187457
  C   0.81162186397773     -0.01261985487984     -0.39990855056033
  Br  -1.29761182152621     -0.35856717280278     -2.33492423469284
  H   1.14979221368150      0.66978154394583     -1.18258913895083
  N   -1.26423483619640      1.36606929021559     -0.15549598569539
  O   -2.35671295712972      1.42990081738400      0.39365304116397
  O   -0.58217382464372      2.30775953469875     -0.53707025466739
  N   -1.26757216098048     -0.90928831133780      0.50614321342460
  H   -0.97921394383687     -1.86679350632294      0.34587850567465
  H   -2.27481702770140     -0.83390240093345      0.56424154893496
  C   1.28343073653979     -1.36275980427159     -0.71047185457136
  N   1.65250617649572     -2.46271722050460     -0.89320325627103
  C   1.35554925933806      0.43362797717413      0.96373777297562
  H   1.06083108994658      1.46253944827576      1.16900895777614
  H   2.44588896499707      0.38812245839375      0.94868041363511
  H   0.98396474149197     -0.21489128709139      1.75607438369869
