16
Coordinates from ORCA-job run
  C   -0.65900151077979      0.23530936310682     -0.36011534529735
  C   0.60478195981205     -0.16393833859614      0.42324019947600
  Br  -0.46467159776363      1.94152533363291     -1.22997728073461
  H   0.36424363004589     -1.13556961930703      0.87402577512052
  N   -1.78600075172747      0.35212223475129      0.72823063405877
  O   -2.22134488107239      1.43772593338843      1.07202397870821
  O   -2.11441199510609     -0.74600862245657      1.17561172406922
  N   -0.97272282060907     -0.75913423170741     -1.31903641793993
  H   -1.72717123665610     -0.46620495321883     -1.92746786546164
  H   -1.22802101701292     -1.61990202427192     -0.84636497737530
  C   0.85236497868216      0.77255079460543      1.51984559573171
  N   1.08912452856861      1.51379317665434      2.39944024990743
  C   1.83929847372902     -0.31125691885852     -0.46797792750995
  H   2.65842459658765     -0.73329285618853      0.11709571777494
  H   2.15373316218515      0.65721268670137     -0.85574257374306
  H   1.61137448111692     -0.97393195823564     -1.30183148678496
