16
Coordinates from ORCA-job run
  C   -0.73090337760126      0.07051508219938     -0.39516556180338
  C   0.70542639640139     -0.41132800193464     -0.12496983506702
  Br  -0.70798369401881      1.33410652028956     -1.96145389457802
  H   0.91576539796101     -1.09391023943477     -0.95948277609981
  N   -1.30333822669627      0.91807971702587      0.74188810712866
  O   -2.51946967949152      1.05274668729094      0.74319993230108
  O   -0.51555475046234      1.39672905626649      1.54625643819159
  N   -1.60036824390402     -1.01155453722293     -0.54751467507980
  H   -2.56466627174641     -0.71794740262443     -0.64123480217855
  H   -1.32785653005779     -1.62616345262177     -1.30237953509980
  C   0.69113474082507     -1.22271523431040      1.09764468928810
  N   0.73436616428271     -1.86673048871501      2.07835937155369
  C   1.83997168010016      0.61745154045956     -0.07658013588057
  H   2.77775874888540      0.08288776837432      0.08694174406035
  H   1.69461951117715      1.32575534741218      0.73414305147499
  H   1.91009813434553      1.15307763754565     -1.02165211821151
