16
Coordinates from ORCA-job run
  C   1.02239916325929      0.42430474907122     -0.13540615374039
  C   -0.33566521029856     -0.06256431467621      0.35771097918594
  Cl  1.61294597763709      1.78080195754930      0.97854793965877
  H   -0.19450458825467     -0.42885331367639      1.38381361965961
  H   0.91811020430225      0.91979000560265     -1.10320444417393
  N   1.96689010760995     -0.62841442957301     -0.24380566127243
  H   2.12964571861877     -1.05823399360052      0.65914033040001
  H   2.85130736085019     -0.29532247216016     -0.60493996684862
  C   -0.81701710715270     -1.21510824021712     -0.52532331331753
  H   -0.12654349571212     -2.05670257178099     -0.50868848345353
  H   -1.80050464265092     -1.55627530873280     -0.19198685910114
  H   -0.91266890244987     -0.88373049427549     -1.56427747225279
  C   -1.37372294617428      1.05600121890786      0.37705885063091
  H   -1.10017689229149      1.86264580471358      1.05621197541460
  H   -1.49511312014398      1.47948946522860     -0.62530117226652
  H   -2.34338162714894      0.66117193761947      0.68944983147704
