16
Coordinates from ORCA-job run
  C   1.12494203945071      0.34021197443566      0.49853748157396
  C   -0.36688728785368     -0.01694244081572      0.54745487696711
  Cl  2.01545293573795     -0.72381780060944      1.65390451727287
  H   -0.65980128550134      0.01793389075335      1.60311054826347
  H   1.25535860358604      1.35134872149233      0.89215955818851
  N   1.78324746733927      0.28469619408905     -0.77726409944684
  H   1.59719809296572     -0.58524754424953     -1.25792306356824
  H   1.50853213790892      1.06525391899780     -1.35820459211508
  C   -0.67065375165523     -1.41140007990258      0.01019267624801
  H   -0.08978230011990     -2.17904652669813      0.52338218502660
  H   -0.46571046430121     -1.47817233506049     -1.06239684385582
  H   -1.72968445308198     -1.64202933709406      0.14803390070529
  C   -1.16635292376912      1.04310207598282     -0.20913792841035
  H   -0.94059491436996      1.01970735284473     -1.27897841608820
  H   -0.95578288751649      2.04971520998687      0.16418378591906
  H   -2.23848100881970      0.86468672584734     -0.09705458668034
