20

C	0.0	0.0	0.0
C	-0.253559	0.155831	-1.533188
F	1.370773	0.0	0.0
H	0.503258	0.91036	-1.795797
C	-0.507482	1.139147	0.840847
H	-1.605789	1.070881	0.852641
H	-0.122661	1.011782	1.854327
H	-0.198363	2.101065	0.423247
N	-0.610369	-1.223155	0.528357
O	-1.794747	-1.395257	-0.024907
O	-0.314076	-1.539207	1.714356
C	-1.58172	0.684118	-2.056126
H	-1.45153	0.935728	-3.117648
H	-2.371311	-0.053407	-1.94502
H	-1.907038	1.583827	-1.530834
C	0.130038	-1.135733	-2.257184
H	1.097834	-1.50894	-1.910253
H	0.19827	-0.954282	-3.337839
H	-0.630572	-1.895341	-2.071415
H	-3.004019	0.0	0.0
