20

C	0.0	0.0	0.0
C	-0.434668	-0.091407	-1.467315
F	1.375855	0.0	0.0
H	0.375042	-0.663873	-1.933764
C	-0.598936	1.088562	0.833525
H	-0.288405	2.055801	0.436171
H	-1.692552	0.999728	0.796055
H	-0.265368	0.999854	1.86801
N	-0.293434	-1.365511	0.650966
O	-1.016425	-1.41321	1.639877
O	0.26083	-2.329509	0.124579
C	-0.474803	1.302057	-2.093182
H	-0.571434	1.205885	-3.178485
H	-1.343247	1.856732	-1.731797
H	0.434499	1.874988	-1.886516
C	-1.756142	-0.825133	-1.681827
H	-1.642613	-1.893643	-1.483091
H	-2.58731	-0.446377	-1.055072
H	-2.056079	-0.715064	-2.730248
H	-4.099168	0.0	0.0
