14
Coordinates from ORCA-job run
  C   0.87836040632629     -0.37841058321942      0.19316373754885
  C   -0.49933877168723      0.27340813021365      0.11263387700325
  Br  1.21989248943975     -1.14986147727061      1.92736831048310
  H   -0.54216903769693      1.05197120266462      0.87996483764849
  H   1.01938315580172     -1.15728799028711     -0.55500819408884
  N   1.94894678568159      0.65061914683463     -0.07297753774337
  O   1.83531143810420      1.72713381225951      0.50102318899201
  O   2.84108815499122      0.31499993960194     -0.84449276474091
  C   -1.63826953109598     -0.73317793105780      0.29796727098564
  H   -1.61297931229377     -1.15785813322030      1.30088993658283
  H   -2.59716165859062     -0.23275855147357      0.15704953911497
  H   -1.56308373401720     -1.54112389113272     -0.43290097654531
  C   -0.60410782032470      0.92143745528659     -1.19932016342475
  N   -0.68487256463833      1.40990887080060     -2.26436106181594
