14
Coordinates from ORCA-job run
  C   0.83218435940082     -0.04707024217471      0.79554062371045
  C   -0.61726196090414      0.26898892512854      0.42695390469814
  Br  1.64124336016564      1.31463286742003      1.88099645204848
  H   -1.16700292847583      0.28070462098742      1.37535210233295
  H   0.88820997845356     -0.98898875198077      1.33787674608880
  N   1.63104657614558     -0.26540050872221     -0.46277860993498
  O   1.83967249573541      0.70365251676562     -1.18014240931613
  O   1.94666940928977     -1.43231690403411     -0.68776587289512
  C   -1.19951230848117     -0.81659049958189     -0.48826625321482
  H   -2.26894138443037     -0.64897298373976     -0.62193502456991
  H   -0.72671256916599     -0.79414109262736     -1.47117554321777
  H   -1.05160814518899     -1.80604810255471     -0.05060837525434
  C   -0.77261257643312      1.59367224937506     -0.17787523386544
  N   -0.97437430611117      2.63787790573885     -0.67517250661030
