14
Coordinates from ORCA-job run
  C   0.86708176921289     -0.04766725809809      0.75707182000779
  C   -0.59511222704198      0.27717545990222      0.45174231301811
  Br  1.73431230149214      1.31521644532319      1.79518213495080
  H   -1.10108867731087      0.30142836232654      1.42400232932853
  H   0.94031353837400     -0.98622961425128      1.30319170447790
  N   1.60676188206077     -0.28062326566252     -0.53428589532660
  O   1.90206627672568     -1.45163622513502     -0.76566726383904
  O   1.79096395411495      0.68210740002735     -1.26667616987722
  C   -1.22674476516043     -0.81141039306956     -0.42637062773616
  H   -0.79896357811231     -0.80176863923558     -1.42992970620083
  H   -1.06680931875716     -1.79804876885040      0.01342840851246
  H   -2.29977527338623     -0.63616169403003     -0.51325496558335
  C   -0.76733084332552      1.59806974123656     -0.15677874460076
  N   -0.98367503888593      2.63954844951663     -0.65365533713163
