14
Coordinates from ORCA-job run
  C   0.86036923526668     -0.03331536923158      0.70815961943602
  C   -0.60981294180785      0.24055282478468      0.36227119931462
  Br  1.50269746269605      1.20651743818226      2.03294061825021
  H   -1.08963363735891      0.45015779302381      1.32410728275950
  H   0.97505806898571     -1.03780182864861      1.12194635706321
  N   1.76128832986223     -0.01419087628989     -0.52237130701610
  O   2.91372753646361      0.36759234453890     -0.40460489798808
  O   1.24449134501385     -0.46832207599051     -1.53873036795019
  C   -1.35749533352361     -0.93527830206576     -0.28019852875891
  H   -1.22773756185958     -1.83260739964616      0.33018718300168
  H   -1.00287673395942     -1.13396315981336     -1.28716913925633
  H   -2.42314115621884     -0.70118253981531     -0.31604435008493
  C   -0.72032454232723      1.46088116409991     -0.43949434217788
  N   -0.82761007123270      2.43095998687162     -1.09199932659281
