16

C	0.0	0.0	0.0
C	-0.428164	-0.181997	-1.4692
F	1.402636	0.0	0.0
H	0.487457	-0.032139	-2.056655
H	-0.283039	1.003037	0.31874
N	-0.495692	-1.0421	0.838125
H	-1.526771	-0.86051	0.706705
H	-0.268155	-0.779183	1.793074
N	-1.285719	0.971626	-1.931851
O	-0.998364	2.093103	-1.519639
O	-2.112761	0.755737	-2.810245
C	-1.080385	-1.501467	-1.811464
H	-2.06129	-1.489014	-1.338365
H	-1.172516	-1.620131	-2.891627
H	-0.474759	-2.307651	-1.396821
F	-2.699155	0.0	0.0
