16

C	0.0	0.0	0.0
C	-0.202557	-0.006035	-1.535852
F	1.40721	0.0	0.0
H	0.451431	-0.808487	-1.879093
H	-0.301284	0.954416	0.43842
N	-0.59573	-1.154365	0.563432
H	-0.433687	-1.126115	1.566174
H	-1.623725	-0.893907	0.419579
N	0.457711	1.233186	-2.069215
O	1.265785	1.100426	-2.990808
O	0.121932	2.318315	-1.598311
C	-1.555684	-0.114505	-2.207249
H	-1.40545	0.015194	-3.286542
H	-2.266198	0.579641	-1.771336
H	-1.966082	-1.102834	-2.014768
F	-2.872402	0.0	0.0
