16

C	0.0	0.0	0.0
C	-0.504444	-0.040619	-1.45115
F	1.404872	0.0	0.0
H	-1.486167	-0.532049	-1.410697
H	-0.270088	0.995549	0.384504
N	-0.479697	-1.08172	0.764642
H	-1.488461	-1.128889	0.517245
H	-0.469031	-0.757897	1.720622
N	0.468908	-0.843363	-2.261577
O	1.091289	-0.312012	-3.182803
O	0.599064	-2.026605	-1.945632
C	-0.65764	1.360253	-2.010414
H	-0.783039	1.38683	-3.092264
H	-1.550632	1.72502	-1.500232
H	0.218698	1.953517	-1.759773
F	-2.701966	0.0	0.0
