16

C	0.0	0.0	0.0
C	-0.202659	0.229184	-1.517942
F	1.407181	0.0	0.0
H	0.476741	-0.488112	-1.979585
H	-0.303625	0.875077	0.578934
N	-0.592605	-1.228169	0.385796
H	-0.43035	-1.345916	1.38187
H	-1.620326	-0.953839	0.282294
N	0.41748	1.556153	-1.849095
O	0.070362	2.538583	-1.196556
O	1.205118	1.598592	-2.79655
C	-1.551065	0.177537	-2.203836
H	-1.920421	-0.845691	-2.163885
H	-1.409716	0.472334	-3.25093
H	-2.287154	0.766416	-1.666802
F	-2.874837	0.0	0.0
