16

C	0.0	0.0	0.0
C	-0.202583	0.296523	-1.506164
F	1.40718	0.0	0.0
H	0.456341	-0.416727	-2.002113
H	-0.300349	0.851317	0.616178
N	-0.594698	-1.241111	0.331999
H	-1.623295	-0.960833	0.240539
H	-0.431372	-1.402694	1.321676
N	0.451288	1.621448	-1.782454
O	0.115076	2.588076	-1.100946
O	1.254334	1.679179	-2.715969
C	-1.554614	0.318372	-2.187933
H	-1.961234	-0.690189	-2.196953
H	-2.268241	0.908057	-1.622185
H	-1.40358	0.661824	-3.218163
F	-2.871284	0.0	0.0
