16

C	0.0	0.0	0.0
C	-0.39357	-0.256649	-1.484685
F	1.403863	0.0	0.0
H	0.528686	-0.165873	-2.070632
H	-0.323292	1.002873	0.260368
N	-0.5003	-0.889663	0.986089
H	-0.33498	-1.846405	0.692316
H	-1.527733	-0.689124	0.881369
N	-1.219342	0.887579	-2.018395
O	-2.070371	0.647436	-2.86713
O	-0.891473	2.020694	-1.673483
C	-1.089768	-1.57068	-1.748808
H	-0.458149	-2.395817	-1.405772
H	-1.280424	-1.705284	-2.813292
H	-2.026817	-1.524546	-1.191595
F	-2.698134	0.0	0.0
