16

C	0.0	0.0	0.0
C	-0.415241	0.033259	-1.485332
F	1.419233	0.0	0.0
H	0.510666	0.240659	-2.035927
H	-0.276496	0.946007	0.463332
N	-0.492003	-1.15741	0.667219
H	-1.524488	-0.952844	0.575554
H	-0.255486	-1.050915	1.649491
N	-1.24127	1.258789	-1.79014
O	-2.064166	1.18897	-2.695844
O	-0.936492	2.304207	-1.219498
C	-1.092432	-1.209495	-2.015223
H	-0.514288	-2.080724	-1.707783
H	-1.171154	-1.174657	-3.102771
H	-2.079062	-1.237697	-1.555795
F	-2.685935	0.0	0.0
