16

C	0.0	0.0	0.0
C	-0.220526	0.102848	-1.540137
F	1.371802	0.0	0.0
H	0.245365	-0.807365	-1.924326
H	-0.313409	0.920043	0.504738
N	-0.60444	-1.189165	0.480152
H	-1.629527	-0.925523	0.353833
H	-0.450945	-1.227627	1.484334
N	0.688402	1.199419	-2.028004
O	0.532517	2.323934	-1.555137
O	1.509292	0.925425	-2.905642
C	-1.561881	0.340326	-2.202369
H	-2.31684	-0.303051	-1.757343
H	-1.907236	1.352646	-1.997863
H	-1.441134	0.199628	-3.283611
F	-2.900779	0.0	0.0
