16

C	0.0	0.0	0.0
C	-0.468495	-0.343535	-1.428118
F	1.405269	0.0	0.0
H	-1.544606	-0.532263	-1.275064
H	-0.332252	1.023692	0.179117
N	-0.509576	-0.813178	1.044465
H	-0.372108	-1.784505	0.779973
H	-1.533802	-0.619265	0.928939
N	0.204348	-1.596546	-1.859235
O	1.09746	-1.540729	-2.709235
O	-0.149617	-2.646484	-1.311845
C	-0.208082	0.776676	-2.410092
H	-0.470965	0.486457	-3.429115
H	-0.842922	1.6162	-2.117453
H	0.840207	1.082362	-2.396729
F	-2.768	0.0	0.0
