16

C	0.0	0.0	0.0
C	-0.42257	0.232733	-1.466275
F	1.412224	0.0	0.0
H	0.498118	0.525384	-1.984793
H	-0.277867	0.878367	0.582558
N	-0.493587	-1.231935	0.517152
H	-1.525103	-1.016987	0.454966
H	-0.248682	-1.252055	1.503017
N	-1.266704	1.478361	-1.596804
O	-0.950058	2.446207	-0.908654
O	-2.114368	1.513913	-2.480432
C	-1.082794	-0.938022	-2.156744
H	-0.46617	-1.824677	-2.000488
H	-1.198245	-0.744599	-3.225237
H	-2.054087	-1.06373	-1.682261
F	-2.688808	0.0	0.0
