19

C	0.0	0.0	0.0
C	-0.196693	-0.017265	-1.546336
F	1.414969	0.0	0.0
H	0.269836	0.939904	-1.854689
N	-0.512202	1.163257	0.646209
H	-1.522932	1.004016	0.744375
H	-0.403378	1.964606	0.031041
C	-0.493916	-1.240813	0.694633
H	-0.157563	-1.22035	1.734019
H	-0.103065	-2.123729	0.189417
H	-1.58927	-1.235464	0.661358
C	-1.605841	-0.051519	-2.095703
H	-2.083823	-1.007331	-1.886913
H	-2.26227	0.687874	-1.641922
H	-1.555051	0.099458	-3.183843
N	0.540127	-1.16251	-2.104706
H	0.394622	-1.177953	-3.107512
H	1.528205	-1.031118	-1.931955
H	-3.574602	0.0	0.0
