19

C	0.0	0.0	0.0
C	-0.374386	-0.055936	-1.516441
F	1.393047	0.0	0.0
H	0.561493	0.234869	-2.00264
N	-0.442676	1.257134	0.559639
H	-0.20357	1.24938	1.54681
H	-1.466803	1.225434	0.518153
C	-0.450527	-1.202068	0.80567
H	-0.091777	-1.087079	1.834071
H	-0.053832	-2.123362	0.380405
H	-1.544872	-1.216737	0.804796
C	-1.470538	0.898165	-1.977463
H	-1.602824	0.775422	-3.059859
H	-1.205094	1.936942	-1.777204
H	-2.412937	0.660104	-1.466476
N	-0.632356	-1.452118	-1.918225
H	-0.665067	-1.46653	-2.933066
H	-1.571733	-1.680028	-1.604856
H	-3.551884	0.0	0.0
