19

C	0.0	0.0	0.0
C	-0.570181	-0.050805	-1.421697
F	1.422757	0.0	0.0
H	-1.542673	-0.550043	-1.303103
N	-0.414434	1.201073	0.636615
H	-0.069518	1.985132	0.096956
H	-0.051856	1.232932	1.580643
C	-0.455645	-1.196891	0.803662
H	-1.547925	-1.141963	0.872587
H	-0.004911	-1.170532	1.801355
H	-0.153195	-2.12761	0.31557
C	0.333787	-0.820896	-2.3689
H	-0.169116	-0.971676	-3.3303
H	1.261524	-0.269501	-2.536999
H	0.587034	-1.804472	-1.96638
N	-0.794672	1.315809	-1.921511
H	-1.681975	1.594856	-1.500251
H	-0.96496	1.252307	-2.920178
H	-3.639223	0.0	0.0
