19

C	0.0	0.0	0.0
C	-0.202337	-0.014447	-1.546079
F	1.414783	0.0	0.0
H	0.248711	0.950055	-1.855502
N	-0.505137	1.165514	0.649757
H	-1.516424	1.014612	0.752425
H	-0.389382	1.967324	0.037112
C	-0.501448	-1.239492	0.691746
H	-0.108614	-2.12381	0.190883
H	-0.175681	-1.21846	1.735231
H	-1.597257	-1.231593	0.648357
C	-1.616449	-0.071891	-2.079471
H	-1.590966	0.11316	-3.163326
H	-2.294795	0.624607	-1.589785
H	-2.05709	-1.05128	-1.895563
N	0.546473	-1.148645	-2.111341
H	1.53384	-1.006506	-1.942278
H	0.395313	-1.162387	-3.113952
H	-3.604161	0.0	0.0
