14
Coordinates from ORCA-job run
  C   0.71731109465053      0.07796927958560     -0.65083831174949
  C   -0.81600276533999      0.04303498106721     -0.55684325689432
  Cl  1.26184343872702     -1.39367196845837     -1.50055240761105
  H   -1.24231096190312     -0.12534357979135     -1.54734700528951
  H   0.94977296702783      0.91368943860013     -1.31586116118595
  C   1.44556455382514      0.23834829665546      0.66904757742595
  H   1.08938347093091      1.12752195342037      1.19388540319886
  H   2.51244668195602      0.35234190744157      0.47382090240701
  H   1.30003686818999     -0.62832949511319      1.31165560111004
  C   -1.32074805100678      1.28531992465984      0.01688232326495
  N   -1.69323414399839      2.31287758244941      0.44618577764832
  N   -1.29200052120552     -1.11785222882484      0.28536019997284
  O   -1.76390744091416     -2.07001085784145     -0.32470546332735
  O   -1.14815519093948     -1.01589523385036      1.49930982102971
