14
Coordinates from ORCA-job run
  C   0.59236857725730      0.65073867047582      0.03180536144176
  C   -0.70942131710177      0.06202016551141     -0.52433136638169
  Cl  1.21841385718234      1.77441217419606     -1.20444803658466
  H   -0.52251603028938     -0.44954666638411     -1.47024233305912
  H   0.35305529575717      1.24943641100008      0.91203854441609
  C   1.61759235016349     -0.41874781642159      0.35343537033271
  H   1.81189431706794     -1.05001269183881     -0.51597801583938
  H   1.27171029865766     -1.04531379103653      1.17859569102653
  H   2.55299835468697      0.05221710826679      0.65658963001787
  C   -1.76061789084433      1.06108462562293     -0.67566051968675
  N   -2.60326427517107      1.86858181329375     -0.80265455981795
  N   -1.17886285993576     -0.99713685649398      0.44545571607880
  O   -1.53203469894387     -0.60023978216773      1.55030977597732
  O   -1.10931597848670     -2.16049336402408      0.06508474207849
