14
Coordinates from ORCA-job run
  C   0.68774355460628     -0.33766384578752     -0.27999208250570
  C   -0.75983574552174      0.13355620142283     -0.15423971776256
  Cl  0.92067236478765     -1.77710614535390      0.74430459956726
  H   -0.91948604835141      0.95522642827825     -0.86071273885551
  H   0.82753892008097     -0.66352490861265     -1.31169846181591
  C   1.66770247664983      0.75553477823038      0.09759061915334
  H   1.54714594866568      1.04427781596173      1.14294755672816
  H   2.68873241262819      0.40072137372807     -0.04575691877084
  H   1.51492509222972      1.63441625497614     -0.53532042214856
  C   -1.10468813840279      0.56408263102564      1.19342725889810
  N   -1.33215644009423      0.97000889598648      2.27130553736287
  N   -1.69435092124588     -0.96391157174395     -0.62793064021574
  O   -2.53562750106108     -1.39039374354654      0.15012021726498
  O   -1.50531597497119     -1.32322416456497     -1.78404480689987
