14
Coordinates from ORCA-job run
  C   0.60103707800997      0.64150220399904     -0.05435955164422
  C   -0.72660293108756      0.01966482403154     -0.50293069153458
  Cl  1.19562151863540      1.62507372911765     -1.41891796691314
  H   -0.57951713876303     -0.58800050661579     -1.39764199894451
  H   0.40034275137093      1.32957949723167      0.76831969237946
  C   1.62433852867552     -0.40595108584343      0.33822599599639
  H   1.77872438845317     -1.12458447720745     -0.46919354819099
  H   2.57632039134316      0.07762312305851      0.55877477368360
  H   1.30105236610224     -0.94004931043536      1.23437674994294
  C   -1.77009333162981      1.01463280934465     -0.71990808830004
  N   -2.60679265607938      1.81840765612530     -0.89954645033259
  N   -1.17505510549942     -0.92796126878225      0.58510637312472
  O   -1.48403622017759     -0.41515982931845      1.65510934869794
  O   -1.13533963935360     -2.12477736470564      0.32258536203504
