14
Coordinates from ORCA-job run
  C   0.69418633265208      0.06994914946800     -0.67594515012862
  C   -0.83531313140076      0.04550567685192     -0.52864292487926
  Cl  1.19964596673894     -1.40960020661111     -1.53575652586794
  H   -1.29653976454088     -0.12509551148565     -1.50296602655106
  H   0.90857791196540      0.90100865883793     -1.35284933719295
  C   1.46896996379695      0.23246640857110      0.61697911707594
  H   2.52937186252133      0.33635202952678      0.38417792095984
  H   1.33890679600209     -0.62900072373853      1.26988149117854
  H   1.13840178541235      1.12786539874792      1.14814213617905
  C   -1.31203658575221      1.29369853934337      0.05618668591821
  N   -1.66388195122709      2.32548084455240      0.49278737137955
  N   -1.28727518458276     -1.10833026081847      0.33588256034575
  O   -1.78272045394912     -2.06291610089539     -0.25125551993848
  O   -1.10029354763633     -0.99938390235027      1.54337820152144
