14
Coordinates from ORCA-job run
  C   0.60779497862882      0.09649225287387     -0.75150973409554
  C   -0.88970523310186      0.14287929496520     -0.40906628273497
  Cl  0.90097474541556     -1.31846870317533     -1.79845096128988
  H   -1.47865666837361      0.09248055932155     -1.32654962813289
  H   0.79182420968610      0.97608315244063     -1.37381033415567
  C   1.54667110187816      0.08948178425481      0.43867401676223
  H   1.44192605028071     -0.82318324163458      1.02296535482450
  H   2.57441602917519      0.15737896153692      0.07992964072450
  H   1.34532456928180      0.94574899079236      1.08631074163542
  C   -1.20468218783202      1.35349921617608      0.34078352724126
  N   -1.42896920289311      2.35702880057142      0.90808395309414
  N   -1.30702572452893     -1.06211713021317      0.40124724270640
  O   -1.93447646573211     -1.92696787570078     -0.19862608352266
  O   -0.96441620188470     -1.08033606220897      1.57901854694316
