14
Coordinates from ORCA-job run
  C   0.70669757270558     -0.33929158124789     -0.22450301263916
  C   -0.75493739304422      0.10407068388952     -0.19795992251173
  Cl  0.92161375506631     -1.69881060021892      0.90739218352791
  H   -0.89832376876551      0.87136172201977     -0.96626101328501
  H   0.90189085606049     -0.73208786077492     -1.22337709400121
  C   1.64426093448045      0.80086421183064      0.12037173085619
  H   1.50082961856781      1.63154944742048     -0.57647956963837
  H   1.47003479887510      1.15535605012584      1.13749727578379
  H   2.67842755597555      0.46324449906938      0.04631833483496
  C   -1.17128926111449      0.61687024256716      1.09981008766451
  N   -1.45665309163925      1.08948417346759      2.13593956247072
  N   -1.64239257279261     -1.04566602058776     -0.63603865913152
  O   -2.50948812269751     -1.43918054085756      0.13081053486366
  O   -1.39167088167771     -1.47876442670334     -1.75452043879475
