14
Coordinates from ORCA-job run
  C   0.71938647537720     -0.35622900010801     -0.14597892719992
  C   -0.73903041311078      0.08494483810711     -0.25638219194963
  Cl  0.85187872323893     -1.61403724783485      1.10917390509540
  H   -0.82633644388870      0.78445247946310     -1.09471062770869
  H   0.98033355745888     -0.83169347105791     -1.09256606037434
  C   1.63537870774034      0.81141358562061      0.16354019645117
  H   1.54452235324218      1.57830269442053     -0.61098412581915
  H   2.67079553586366      0.47082104972254      0.19133235400655
  H   1.39219415553954      1.25227801710308      1.13160305819528
  C   -1.24076402928019      0.70546083550484      0.96170660273311
  N   -1.59502277241099      1.26406345020582      1.93171269238862
  N   -1.59919154615446     -1.09893689423848     -0.65510433241643
  O   -2.51793604373237     -1.42788525165376      0.08146515125213
  O   -1.27520825988323     -1.62395508525461     -1.71380769465410
