14
Coordinates from ORCA-job run
  C   0.56023523063784      0.67178609934351     -0.10093443851216
  C   -0.65835240887819     -0.12880529075891     -0.57453939546294
  Cl  1.25403600820610      1.45629704908296     -1.54545437366167
  H   -0.36166165814256     -0.86758833493917     -1.32141642084318
  H   0.21542712510554      1.47005737356354      0.55813024845826
  C   1.59340645197476     -0.20238485265281      0.58222425846088
  H   1.89576197509084     -1.02833080759027     -0.06444773447757
  H   1.19677956820141     -0.60706174458964      1.51575334125109
  H   2.47559177937976      0.39220264905264      0.82055768965092
  C   -1.72804564721684      0.72066133120812     -1.08493348488901
  N   -2.58571731583394      1.40597468640622     -1.50104878326955
  N   -1.17801678809671     -0.90877845390775      0.61025973780023
  O   -1.02916623048443     -2.12515201769181      0.57586551283397
  O   -1.65027808994359     -0.24687768652665      1.52798384266073
