14
Coordinates from ORCA-job run
  C   0.71359507731166     -0.32893319133623     -0.22308719690183
  C   -0.75687579452407      0.08267820461198     -0.19140206696028
  Cl  0.96859975312682     -1.65939378101377      0.93486179936349
  H   -0.92405832269917      0.83191882470777     -0.97267014320800
  H   0.90869837402521     -0.73821285449464     -1.21533859593439
  C   1.62850478363116      0.83879778243238      0.08905912169311
  H   1.45465037955792      1.21183650135047      1.09966136600073
  H   2.66923963922666      0.52238777376986      0.01370806483785
  H   1.46131863799268      1.65052995188391     -0.62468436539443
  C   -1.17445536887353      0.61241789472075      1.09925780094275
  N   -1.47968017684823      1.10552523269332      2.12007155306998
  N   -1.62292764340781     -1.09427615856442     -0.59922386462879
  O   -2.47439455676974     -1.49190808472853      0.18285622206750
  O   -1.37321478174956     -1.54236809603284     -1.71206969494768
