14
Coordinates from ORCA-job run
  C   0.68394262589318      0.07830275712107     -0.68526258156908
  C   -0.84313984832352      0.04645932121149     -0.51604637881419
  Cl  1.18260047626636     -1.39243001584427     -1.56419806149404
  H   -1.31774764683473     -0.11759752278101     -1.48507039861860
  H   0.88535595013372      0.91525896492993     -1.35882265732910
  C   1.47682422234240      0.23357179166324      0.59746403512862
  H   1.15047629772032      1.12324316804385      1.14069471571134
  H   1.35988602148899     -0.63374457290655      1.24508257624607
  H   2.53327714444652      0.34366827630455      0.35000957727118
  C   -1.31603096611854      1.28793446082234      0.08604106378165
  N   -1.66544568997720      2.31467954367821      0.53625547776450
  N   -1.27791153887468     -1.11618333009770      0.34532999516395
  O   -1.77769756751398     -2.06813184934755     -0.24238744662700
  O   -1.07438948064882     -1.01603099279760      1.55091008338471
