14
Coordinates from ORCA-job run
  C   0.74489389454684     -0.35366598592114     -0.15365367590395
  C   -0.73101805998292      0.05232414711527     -0.11686090220212
  Cl  1.15069211861569     -1.51869861408628      1.12692012932636
  H   -0.87587914749446      0.90908530514929     -0.77966614957612
  H   0.92736105219702     -0.85669473943119     -1.10676977008838
  C   1.62324034151861      0.87909249891100     -0.01536623517502
  H   1.42180158762998      1.58620754358328     -0.82454490827123
  H   1.44748983698896      1.37103563644511      0.94339812157967
  H   2.67369827692078      0.59101408627334     -0.06068471353419
  C   -1.19765748327104      0.39992743687814      1.22001981392322
  N   -1.56535513192825      0.70889831140061      2.29162469339092
  N   -1.64784529481517     -1.00827823414122     -0.69838061893075
  O   -1.47232618387895     -2.16604163924996     -0.34605689504225
  O   -2.49909580704707     -0.59520575292625     -1.47997888949616
