14
Coordinates from ORCA-job run
  C   0.70994774044548      0.07438906416287     -0.65829412206849
  C   -0.82199546774230      0.09657991453482     -0.54206971836043
  Cl  1.18292242098755     -1.38415925731862     -1.57124750646647
  H   -1.26843808812863     -0.01730585779459     -1.53148045178902
  H   0.96676099915899      0.92505420252375     -1.29481403903311
  C   1.46283354305396      0.15459475515471      0.65510665368025
  H   1.14778820650481      1.03386816226681      1.22135452063594
  H   1.29467545570991     -0.73184399647125      1.26453647253374
  H   2.53029667219039      0.23696186454562      0.44718157725098
  C   -1.26874963900481      1.33527877967069      0.08533187006726
  N   -1.59394308866258      2.36186705392668      0.55362335467733
  N   -1.33109396011110     -1.07584296603808      0.26426162187612
  O   -1.84801101404710     -1.98660365201050     -0.37199976931429
  O   -1.16499378035456     -1.02383806715290      1.47850953631019
