14
Coordinates from ORCA-job run
  C   0.70588548972615      0.08324861513846     -0.66179796004010
  C   -0.82571935403707      0.08732479318141     -0.53694039080571
  Cl  1.19033044081057     -1.36719817234506     -1.58046875078573
  H   -1.27537806783319     -0.02981163222645     -1.52453420682950
  H   0.94812118084837      0.93887076692754     -1.29737856415044
  C   1.46552565751325      0.17116499390639      0.64721921496139
  H   2.53147754274605      0.25681634230662      0.43314853793543
  H   1.30361605171946     -0.71255244559912      1.26214267368674
  H   1.15054291409015      1.05266446419955      1.21021586715938
  C   -1.28434835115928      1.31990522148961      0.09399324581202
  N   -1.62167916322808      2.34041300913105      0.56694308162351
  N   -1.31699158668781     -1.09216582513493      0.26932804081201
  O   -1.14292160689521     -1.04155883338708      1.48283906594379
  O   -1.82746114761336     -2.00712129758799     -0.36570985532280
