18

C	0.0	0.0	0.0
C	-0.50804	-0.007379	-1.452013
Cl	1.764038	0.0	0.0
H	-1.575241	-0.249813	-1.436978
C	-0.513229	1.199349	0.781652
H	-0.137482	2.129921	0.362803
H	-0.206303	1.094705	1.82421
H	-1.609632	1.211809	0.750784
N	-0.509471	-1.280566	0.650268
O	-1.77829	-1.335634	0.679813
O	0.255236	-1.964257	1.355235
N	0.169407	-1.176915	-2.159395
O	0.72344	-0.944038	-3.244345
O	-0.056902	-2.294645	-1.687383
N	-0.288057	1.246391	-2.06926
H	0.700929	1.387811	-2.237023
H	-0.765796	1.291875	-2.958581
H	-1.548553	0.0	0.0
