18

C	0.0	0.0	0.0
C	-0.424931	-0.049635	-1.505972
Cl	1.754403	0.0	0.0
H	-1.540944	-0.145365	-1.453051
C	-0.374051	1.287019	0.838792
H	0.051336	2.212309	0.454996
H	-1.466086	1.382555	0.818363
H	-0.080086	1.098695	1.864428
N	-0.419654	-1.163513	0.786017
O	0.289562	-1.90785	1.518425
O	-1.76311	-1.555667	0.585019
N	-0.103446	-1.264378	-2.20093
O	-0.70945	-1.327968	-3.347522
O	0.148356	-2.360718	-1.595763
N	-0.006545	1.137118	-2.241003
H	-0.625641	1.277849	-3.017707
H	0.071174	1.941547	-1.646684
H	-1.935343	0.0	0.0
