18

C	0.0	0.0	0.0
C	-0.741663	-0.20405	-1.323654
Cl	1.769286	0.0	0.0
H	-1.779228	-0.46226	-0.977709
C	-0.5343	1.232839	0.680564
H	-0.244747	2.119584	0.116997
H	-0.13567	1.299718	1.691045
H	-1.632389	1.121718	0.693231
N	-0.328019	-1.217119	0.891805
O	-0.391532	-1.04042	2.101551
O	-0.430378	-2.296414	0.320757
N	-0.215696	-1.310565	-2.190923
O	-0.997954	-2.19531	-2.522489
O	0.943543	-1.205652	-2.595531
N	-0.860903	0.947684	-2.162884
H	-0.045194	1.544696	-2.135024
H	-1.694869	1.447352	-1.869565
H	-3.192438	0.0	0.0
