18

C	0.0	0.0	0.0
C	-0.505837	-0.006396	-1.459393
Cl	1.759296	0.0	0.0
H	-1.573066	-0.260143	-1.438471
C	-0.512441	1.212195	0.760221
H	-0.182463	1.141092	1.798137
H	-0.141797	2.125348	0.300552
H	-1.609961	1.217339	0.756315
N	-0.517196	-1.260443	0.670467
O	-1.78719	-1.327408	0.655981
O	0.230003	-1.939177	1.39539
N	0.180853	-1.154635	-2.158864
O	-0.022489	-2.272417	-1.669194
O	0.714407	-0.932505	-3.261119
N	-0.258373	1.247797	-2.08909
H	-1.059312	1.544683	-2.627697
H	0.535699	1.158997	-2.711939
H	-1.552047	0.0	0.0
