18

C	0.0	0.0	0.0
C	-0.26492	0.04123	-1.573931
Cl	1.772937	0.0	0.0
H	0.489076	-0.611151	-2.001959
C	-0.301627	1.200497	0.899667
H	0.139036	2.101583	0.475235
H	-1.372244	1.336844	1.01499
H	0.155431	1.002537	1.869966
N	-0.657891	-1.214834	0.511151
O	-0.639078	-2.205661	-0.283491
O	-0.680494	-1.355946	1.758131
N	0.080841	1.416905	-2.074387
O	1.11247	1.563407	-2.728776
O	-0.729352	2.312425	-1.8335
N	-1.516561	-0.289073	-2.197622
H	-1.676569	-1.253221	-1.923129
H	-2.237387	0.240935	-1.719192
H	-2.153103	0.0	0.0
