18

C	0.0	0.0	0.0
C	-0.594026	0.006918	-1.402778
Cl	1.764176	0.0	0.0
H	-1.692945	-0.02164	-1.217509
C	-0.436982	1.278343	0.702187
H	0.085502	2.129044	0.267637
H	-1.516666	1.390659	0.583387
H	-0.201878	1.1869	1.763971
N	-0.607776	-1.165036	0.674529
O	-0.282475	-2.296827	0.236157
O	-1.777068	-0.844568	1.166872
N	-0.292692	-1.24325	-2.210603
O	-1.226014	-2.00206	-2.462064
O	0.841837	-1.341191	-2.684144
N	-0.225318	1.173822	-2.139332
H	0.741249	1.08795	-2.432019
H	-0.81204	1.259849	-2.960873
H	-2.9376	0.0	0.0
