17

C	-0.483406	-0.089259	-1.4383
C	0.0	0.0	0.0
F	-0.213965	1.12175	-2.09877
H	1.102732	0.0	0.0
H	-1.574896	-0.206243	-1.440308
C	0.195893	-1.197596	-2.20988
H	-0.093345	-2.169361	-1.803068
H	-0.098645	-1.161315	-3.26206
H	1.279153	-1.081149	-2.129932
N	-0.501787	-1.212864	0.688299
H	0.205617	-1.933522	0.575361
H	-0.515254	-1.01446	1.683431
C	-0.530095	1.241079	0.689857
H	-0.23006	2.136361	0.14643
H	-0.122518	1.309637	1.702947
H	-1.624479	1.207702	0.751514
Br	3.728552	0.0	0.0
