17

C	-0.4751	0.022266	-1.440938
C	0.0	0.0	0.0
F	-0.096186	-1.190993	-2.044996
H	1.102849	0.0	0.0
H	0.063923	0.809298	-1.978929
C	-1.973266	0.156636	-1.620861
H	-2.232245	-0.01087	-2.669124
H	-2.481634	-0.580746	-0.999184
H	-2.313164	1.155319	-1.338098
N	-0.547286	-1.199809	0.657382
H	-0.158241	-1.996972	0.162874
H	-0.137499	-1.236096	1.585919
C	-0.456159	1.242969	0.749958
H	0.039537	1.283757	1.723595
H	-1.537558	1.234158	0.911047
H	-0.174434	2.151529	0.209674
Br	3.746571	0.0	0.0
