17

C	-0.401239	0.013592	-1.458203
C	0.0	0.0	0.0
F	-1.818211	0.042849	-1.551381
H	1.097414	0.0	0.0
H	-0.095024	-0.941563	-1.893164
C	0.156398	1.173995	-2.249825
H	-0.273313	2.11758	-1.906082
H	1.241902	1.20566	-2.120347
H	-0.078254	1.058937	-3.310822
N	-0.461909	-1.26041	0.587545
H	-1.456089	-1.184333	0.786496
H	0.022202	-1.401727	1.468409
C	-0.478839	1.23903	0.756921
H	-0.202203	1.147201	1.810584
H	-1.566962	1.341436	0.687865
H	-0.013436	2.152485	0.379011
Br	3.706507	0.0	0.0
