17

C	-0.47433	-0.157809	-1.432582
C	0.0	0.0	0.0
F	-0.077652	-1.428739	-1.88682
H	1.095547	0.0	0.0
H	0.054161	0.566589	-2.061108
C	-1.973683	-0.06913	-1.627696
H	-2.470267	-0.748443	-0.93394
H	-2.333218	0.946667	-1.448147
H	-2.226362	-0.348104	-2.65386
N	-0.542218	-1.111828	0.801849
H	-0.132603	-1.027753	1.727741
H	-0.145123	-1.962003	0.412295
C	-0.461233	1.324034	0.590735
H	-0.193245	2.159491	-0.062952
H	0.041768	1.492237	1.547052
H	-1.541438	1.325827	0.76125
Br	3.741465	0.0	0.0
