15

C	0.0	0.0	0.0
C	-0.366837	-0.055371	-1.504954
Br	1.947509	0.0	0.0
H	0.433763	0.424645	-2.07426
H	-0.281873	0.989618	0.357997
C	-0.597926	-1.09959	0.84101
H	-0.337019	-0.952623	1.889682
H	-0.243739	-2.081433	0.517386
H	-1.689422	-1.040565	0.732571
N	-1.555805	0.816299	-1.912291
O	-1.596699	1.911966	-1.378059
O	-2.233542	0.416733	-2.84386
C	-0.511755	-1.415042	-2.011314
N	-0.505345	-2.524857	-2.39797
Cl	-3.881661	0.0	0.0
