15

C	0.0	0.0	0.0
C	-0.59626	-0.252766	-1.383513
Br	1.946147	0.0	0.0
H	-1.694318	-0.305074	-1.205599
H	-0.296455	1.018648	0.256049
C	-0.476257	-0.957193	1.081174
H	-0.078033	-1.958925	0.927697
H	-1.567322	-0.979021	1.060823
H	-0.138098	-0.586609	2.051106
N	-0.154496	-1.569831	-1.957535
O	0.581826	-1.562813	-2.941237
O	-0.564868	-2.571647	-1.380023
C	-0.284818	0.815537	-2.323847
N	-0.102917	1.699376	-3.075907
Cl	-3.594189	0.0	0.0
