15

C	0.0	0.0	0.0
C	-0.484019	-0.20069	-1.448561
Br	1.947679	0.0	0.0
H	0.382928	-0.217591	-2.118093
H	-0.310065	0.993068	0.317012
C	-0.445465	-1.066512	0.985831
H	-0.065501	-2.04813	0.695625
H	-0.058286	-0.823025	1.977202
H	-1.535635	-1.0737	1.006208
N	-1.247117	0.99405	-2.004867
O	-1.01339	2.085225	-1.506734
O	-1.900622	0.780151	-3.01395
C	-1.199306	-1.446889	-1.693136
N	-1.548156	-2.547722	-1.910767
Cl	-3.394451	0.0	0.0
