15

C	0.0	0.0	0.0
C	-0.290718	0.237003	-1.489968
Br	1.948674	0.0	0.0
H	0.359274	-0.430909	-2.064367
H	-0.341926	0.844574	0.595011
C	-0.527712	-1.327793	0.48949
H	-0.183255	-1.512111	1.510683
H	-0.175855	-2.144461	-0.147424
H	-1.618837	-1.27451	0.474891
N	0.187837	1.624416	-1.890843
O	-0.028851	2.547712	-1.116301
O	0.736815	1.716289	-2.984385
C	-1.616577	0.102092	-2.110735
N	-2.353634	0.04369	-3.029281
Cl	-3.596559	0.0	0.0
