15

C	0.0	0.0	0.0
C	-0.482843	-0.144506	-1.456708
Br	1.94762	0.0	0.0
H	0.385092	-0.134404	-2.125609
H	-0.311871	0.97912	0.354999
C	-0.445171	-1.106646	0.941173
H	-0.06909	-0.897029	1.944503
H	-1.535492	-1.123875	0.952329
H	-0.053792	-2.073008	0.617435
N	-1.24648	1.070212	-1.968415
O	-1.018717	2.141138	-1.424992
O	-1.891868	0.896866	-2.990132
C	-1.196478	-1.381608	-1.749939
N	-1.547317	-2.470676	-2.016589
Cl	-3.390905	0.0	0.0
