15

C	0.0	0.0	0.0
C	-0.584019	-0.054511	-1.414175
Br	1.946268	0.0	0.0
H	-1.682098	-0.134525	-1.265656
H	-0.301715	0.970707	0.396731
C	-0.496135	-1.106629	0.913956
H	-0.085044	-2.074058	0.628224
H	-1.585523	-1.129241	0.858381
H	-0.191124	-0.882202	1.938242
N	-0.12769	-1.281253	-2.153407
O	-0.603079	-2.345683	-1.771269
O	0.689752	-1.149095	-3.059487
C	-0.260784	1.132688	-2.194041
N	-0.052466	2.115091	-2.802491
Cl	-3.605966	0.0	0.0
