18

C	-0.476605	-0.089319	-1.459729
C	0.0	0.0	0.0
Br	0.532739	-1.420103	-2.509164
H	1.095765	0.0	0.0
C	-1.883075	-0.485263	-1.513456
N	-3.018062	-0.79362	-1.509371
C	-0.231957	1.247361	-2.164954
H	0.821935	1.509167	-2.038407
H	-0.862988	2.030658	-1.742076
H	-0.451072	1.151605	-3.22825
N	-0.423553	-1.218664	0.784301
O	-0.504999	-2.288757	0.187653
O	-0.626742	-1.080241	1.989638
C	-0.485132	1.247212	0.719623
H	-0.012552	2.12698	0.285855
H	-0.172055	1.18505	1.75902
H	-1.574382	1.348531	0.68638
Br	3.45755	0.0	0.0
