17
Coordinates from ORCA-job run
  C   -0.86790578147216     -0.00068555250605      0.34779872714298
  C   0.49524945316058     -0.60070586567205     -0.03545933715090
  Br  -1.30575061346567     -0.43919598489654      2.21677963210807
  H   0.35692893962627     -1.68579240500522     -0.03038942290834
  N   -0.77156942322144      1.45330073656694      0.28748346846906
  H   -1.57348392145817      1.87587031911069      0.74080100925633
  H   -0.79722653285336      1.70803823095805     -0.69558653660388
  N   -1.86971076213975     -0.64076720946041     -0.46750970593750
  H   -2.77084057533453     -0.19511403369807     -0.33940425927428
  H   -1.56984895751929     -0.53180777224101     -1.43204210511988
  C   1.64044738018977     -0.20631122494559      0.88461827336337
  H   1.52010939112313     -0.61401692286658      1.88799846241085
  H   1.69233985420302      0.88171544937487      0.96035318540943
  H   2.58046812034053     -0.58371151542319      0.47284046440694
  N   0.71761194349334     -0.17763450091391     -1.43172025526488
  H   1.30045370399645      0.65244461635087     -1.43604868688130
  H   1.22272778133129     -0.89762636473280     -1.93251291342605
