17
Coordinates from ORCA-job run
  C   -0.89778168517270      0.01210646719983      0.39583937798013
  C   0.47949430765262     -0.51691889710479     -0.06021331659894
  Br  -1.35568844148368     -0.88509997567271      2.10657469144576
  H   0.40340083959483     -1.61250268560247     -0.07788144805833
  N   -0.81269532425220      1.41985466714276      0.61359755378734
  H   -1.75001519209500      1.79525295062412      0.70297749870666
  H   -0.36776245008328      1.82361005896058     -0.20596538528256
  N   -1.99019075146501     -0.32396332471764     -0.49745135994457
  H   -1.78091314924098      0.08227740956206     -1.40411225806359
  H   -2.09775745722796     -1.32813408556180     -0.59146487591352
  C   1.62450854100692     -0.10669992047190      0.85185453942176
  H   2.55085526542823     -0.58642421943207      0.52185914553022
  H   1.75673650964704      0.97621591923479      0.82849537673547
  H   1.43332642715419     -0.39968526455972      1.88267189061920
  N   0.69830862503409      0.03807566879094     -1.40674418650681
  H   1.68035153383926      0.24055079941669     -1.54426783107967
  H   0.42682240166362     -0.62851556780868     -2.11776941277854
