17
Coordinates from ORCA-job run
  C   -0.91380207366942      0.09299797526078      0.20902855552036
  C   0.48913694126262     -0.53656992014477      0.13936345878320
  Br  -2.16473958020374     -1.57440134292040      0.53926923073138
  H   0.61323180944287     -1.12667603359946      1.05909240966632
  N   -1.21953859837588      0.93330048746270      1.32122145234998
  H   -0.71941703464834      1.80901857684945      1.22980424991596
  H   -1.01244472241506      0.48504965856551      2.20361386175590
  N   -1.20502200138889      0.76292940362680     -0.97136707691611
  H   -0.93890125865708      0.21353788500910     -1.77866111947559
  H   -2.15917528733115      1.09272627798323     -1.00687575661889
  C   1.56218204044940      0.54547777583847      0.09403661357209
  H   2.55344938792065      0.08277161962448      0.08941942341390
  H   1.45249252676471      1.15127533613149     -0.80595173484052
  H   1.51168592826885      1.19344147401617      0.97023711080079
  N   0.57608801465981     -1.33839754993148     -1.07800568550559
  H   1.53923132260018     -1.59784286705543     -1.25292826545252
  H   0.03654258532048     -2.18863875671664     -0.96229672770067
