17
Coordinates from ORCA-job run
  C   -0.90348115537084      0.02758562344270      0.21547952463893
  C   0.45396322347933     -0.64477987719821     -0.04082763522343
  Br  -1.52912607794793     -0.53788296390136      2.08057261927268
  H   0.29025987711231     -1.71545966309804      0.10698098567121
  N   -0.76552492925997      1.44964928154394      0.15460395861563
  H   -1.67475004193867      1.89624647582936      0.14468032779938
  H   -0.24748406913062      1.81006004169849      0.94715840546627
  N   -1.86075885050793     -0.51440907223641     -0.68440293174192
  H   -1.45698057306319     -0.48760779534138     -1.61457595427470
  H   -2.74775512546141     -0.02968527991733     -0.64326772772536
  C   1.57170142821774     -0.15971102618632      0.87657050867955
  H   2.48006536317253     -0.73251064453550      0.67339421859149
  H   1.32366085883409     -0.28147327177291      1.93197403968976
  H   1.80082633089074      0.89204298057873      0.68143187394157
  N   0.73721116895548     -0.43721628057881     -1.46601013087906
  H   1.04112756795449      0.52008451690738     -1.60463098624585
  H   1.48504500406387     -1.05393304523432     -1.75913109627616
