17
Coordinates from ORCA-job run
  C   -0.70525846651296      0.34895201990429     -0.09759423137298
  C   0.57614395309854     -0.49805617801447      0.05973607134464
  Br  -0.53473170866549      1.56747335206706     -1.63487085118898
  H   0.34669275646635     -1.15574681809366      0.91692010764418
  N   -1.79302512387668     -0.55473879616081     -0.45342310826351
  H   -2.62003537891996     -0.03147769230765     -0.71813107620101
  H   -2.01950376331206     -1.11453568004848      0.36445763165824
  N   -0.88045776616224      1.18598783049390      1.06716945004576
  H   -1.76072288646711      1.68649203859962      1.01957285786901
  H   -0.88351220054741      0.60065531883548      1.89756275905916
  C   1.80785535349815      0.31897575233115      0.41187430188476
  H   2.06822619993700      0.98530032615163     -0.41413911598662
  H   1.64953672862727      0.93078122794680      1.29831844615473
  H   2.64356315432024     -0.36229546081853      0.58105302554005
  N   0.86290541172686     -1.36264248303928     -1.06928646741083
  H   1.25124582938470     -0.79963660364342     -1.81810866465291
  H   -0.01092209259520     -1.74848815420362     -1.41011113612370
