17
Coordinates from ORCA-job run
  C   -0.90328696106391      0.10159056993725      0.24608176656958
  C   0.48754214251362     -0.55035391222168      0.14411190621059
  Br  -2.18537901757771     -1.52575298318659      0.54893117722275
  H   0.65714509555255     -1.10818639399435      1.07851478172875
  N   -0.98799584936400      0.99370274380565      1.33019650903100
  H   -1.92621542259649      1.36822353765679      1.40273507377227
  H   -0.73502524729435      0.54874829285959      2.20288603253495
  N   -1.37912664363992      0.74160243915328     -0.92852479395110
  H   -1.10633132743130      0.19048751447695     -1.73473306998621
  H   -0.97138800757030      1.66777045046157     -0.98277872264506
  C   1.56182198398506      0.52169427855248     -0.00010926156612
  H   2.55088537949485      0.05437974370619     -0.01146585741686
  H   1.43213849720342      1.05711589972320     -0.94295852005558
  H   1.52602934632356      1.23585010882431      0.82125339406588
  N   0.51556680229387     -1.39694484163022     -1.04276227771061
  H   1.47182157210923     -1.65265602185713     -1.25577870831292
  H   -0.00920234293818     -2.24727142626729     -0.87659942949130
