17
Coordinates from ORCA-job run
  C   -0.76414342960101      0.18929090101068      0.18768083625910
  C   0.57948643407116     -0.55862178848498      0.21446414277379
  Br  -2.22211758173540     -1.50810562731395      0.51553866324579
  H   0.61237084289609     -1.09358912493537      1.16918546102728
  N   -0.93256502481605      1.05951096602633      1.25483552202588
  H   -0.77274991335354      0.59542689381649      2.13853779843216
  H   -1.83814184066001      1.51027192627510      1.27043591648293
  N   -1.06759390155982      0.74855678217250     -1.04329968466220
  H   -1.95019579664355      1.24193203553704     -1.06004365547433
  H   -1.05221806484535      0.05191293599733     -1.77410187544637
  C   1.72093761060526      0.45545331056155      0.16230282035491
  H   1.67401753215007      1.03044802036758     -0.76556709386227
  H   1.67181342528874      1.15709541782315      0.99395590754191
  H   2.66777034174794     -0.08587273897644      0.19669148694407
  N   0.76849923813221     -1.53347908294793     -0.83684435836359
  H   0.92155252966514     -1.08945250064171     -1.73335761140053
  H   -0.01572240134188     -2.17177832628737     -0.88841427587852
