17
Coordinates from ORCA-job run
  C   -0.71622845284118      0.37982409185637      0.15742374891037
  C   0.56679263397875     -0.41820559516382      0.13333774740390
  Br  -2.19776507374435     -1.96441318287189      0.54629982577904
  H   0.56656600631533     -1.03898801583040      1.03586685323610
  N   -1.10224823261691      0.94722285669856      1.30750569102871
  H   -2.02693310797732      1.35331340118437      1.32165333192489
  H   -0.93680149935705      0.35952768422722      2.11204980439357
  N   -1.15752101855317      0.79393848064436     -1.01415510068040
  H   -0.79729825634251      0.23302718922970     -1.78155244326206
  H   -2.08360020008907      1.18112275479370     -1.10261064484671
  C   1.75193288104665      0.54838067172568      0.15491613911428
  H   2.68449797056373     -0.02020290603376      0.19155093251370
  H   1.71618182704717      1.19941946199549      1.02951216563358
  H   1.75498320580358      1.16410660293520     -0.74658482517155
  N   0.56802086028956     -1.19309431505266     -1.09644805045477
  H   1.49355369616391     -1.55930934040554     -1.27900828999062
  H   -0.08413323968711     -1.96566983993258     -0.96975688553205
