17
Coordinates from ORCA-job run
  C   -0.79866948409734      0.29687910644384     -0.13705645361303
  C   0.52600856118214     -0.48122323245021      0.04358029864293
  Br  -0.62348109210945      1.51582188481697     -1.68610631135316
  H   0.30663053258959     -1.15740816068024      0.88847037068699
  N   -1.82623511894646     -0.65644435004867     -0.46782333250264
  H   -2.71653374302698     -0.17292041031071     -0.51784047684146
  H   -1.88183595778603     -1.35106440019668      0.27206219078293
  N   -1.19749158219695      1.14423669766390      0.97164285123640
  H   -0.53762158253988      1.89903217071665      1.11618267761107
  H   -1.23574733091954      0.58042191897654      1.81653798530239
  C   1.70741404137457      0.38589241689259      0.44486024391073
  H   1.93509930983918      1.11543620074573     -0.33619244691686
  H   2.57942936097577     -0.25581429710219      0.57907860496133
  H   1.53031380884146      0.92095402200360      1.37889109087858
  N   0.89898271910925     -1.31539877552763     -1.08611669357537
  H   0.06203310712576     -1.74872684194624     -1.46079161403901
  H   1.27170445058491     -0.72067394999724     -1.81837898517183
