17
Coordinates from ORCA-job run
  C   -0.87988124398760      0.26808528813266      0.10178949691895
  C   0.46999563514489     -0.45214304832108     -0.05572040093858
  Br  -0.84015891963662      1.82691566304911     -1.27133998389669
  H   0.36136179116880     -1.31183036631413      0.61925669675143
  N   -2.01784064734301     -0.50980402410594     -0.27122713607349
  H   -2.17116807097391     -1.19671296239340      0.46097349603268
  H   -1.79935735410896     -0.99241552650807     -1.13597014969208
  N   -1.07705362658843      0.74422970583090      1.41138751939382
  H   -0.38037057445174      1.42145402941556      1.68712925755068
  H   -1.99841208226660      1.15820493941619      1.48733971820708
  C   1.68550867305520      0.35659931936661      0.38729892678870
  H   2.58881649191286     -0.24315882469115      0.24843036158511
  H   1.78358532641357      1.26635819466784     -0.20839019453344
  H   1.63886150046494      0.62614258635623      1.44582423172952
  N   0.55191340652846     -0.99375583288068     -1.40891983013577
  H   1.26507954222839     -1.71183109253842     -1.44350696986308
  H   0.81812015243977     -0.25833804848226     -2.05435503982485
