17
Coordinates from ORCA-job run
  C   -0.90458986558029     -0.08633779040147      0.14803393701902
  C   0.56202487824550     -0.58277692594314      0.20332166366815
  Br  -2.06939935005268     -1.68933208988382      0.31094203559672
  H   0.68291699608705     -1.07135056629692      1.17705859141166
  N   -1.32743066009895      0.77691335504198      1.23146629887225
  H   -0.83521954676253      1.66122518617050      1.17191111881286
  H   -1.13958981198042      0.35407962533329      2.13401944035865
  N   -1.16868972345546      0.49575810969495     -1.14038591162931
  H   -0.58739232740290      1.31883095864531     -1.26315184427291
  H   -2.13937245155154      0.78655361481683     -1.17853864460521
  C   1.54300673934053      0.58825386033918      0.12288376953964
  H   2.54734093288095      0.20378588505787      0.30093833065614
  H   1.54635866887765      1.02845410434009     -0.87864554310117
  H   1.34011428202528      1.37042254225388      0.85727557823556
  N   0.92567531740911     -1.54389042729444     -0.82492634301884
  H   0.44091900739881     -2.41649858326386     -0.65447876244737
  H   0.58432691461990     -1.19409085861023     -1.71472371509585
