17
Coordinates from ORCA-job run
  C   -0.80585236162448      0.01572552031461      0.27097697449707
  C   0.59767370983203     -0.61823651193795      0.19571413718172
  Br  -2.09337643067439     -1.53606170166039      0.65233155485796
  H   0.70360010500321     -1.19565586691487      1.11764520476919
  N   -0.92087076598375      0.86455822204273      1.43445004037590
  H   -0.59988339673555      1.79175041016736      1.17414461974617
  H   -1.88197555337550      0.92972983650814      1.74415347516136
  N   -1.14201344866841      0.67525280611029     -0.93456340147154
  H   -1.07635163927581      0.05534321458676     -1.73165334717596
  H   -2.07286902692760      1.07137190756788     -0.89712952128395
  C   1.66403049246189      0.47178191022042      0.17918456286929
  H   1.53870097975827      1.12722458064092     -0.68647620488773
  H   2.64416363554582     -0.00404965386380      0.12011040495543
  H   1.62624114586897      1.07273481751710      1.08770919509231
  N   0.82241601799752     -1.51163122077471     -0.92640066846531
  H   0.90409162616675     -1.00316125281241     -1.79781444780675
  H   0.09127491063102     -2.20767701771208     -1.00038257841514
