17
Coordinates from ORCA-job run
  C   -0.91589568781043     -0.04812490924856      0.31929901094551
  C   0.51220688050027     -0.59368185122483      0.13211394555559
  Br  -2.05969852410905     -1.66094560661153      0.70163412129521
  H   0.73768053266838     -1.19466997332433      1.02256857042098
  N   -0.99595403553321      0.75259695474922      1.51296656647351
  H   -1.96703892588997      0.97273245808259      1.70285825540243
  H   -0.49545438275523      1.62372246521561      1.36840391832121
  N   -1.46454679336277      0.58210086613455     -0.84246793639632
  H   -1.08494857629278      0.14116881151006     -1.67452873337840
  H   -1.25269048725333      1.57129260592844     -0.83902468528163
  C   1.51864210936972      0.54655093603510      0.03547119392138
  H   2.51711072404619      0.14291303470894     -0.15439999308903
  H   1.57713695855469      1.11074064250042      0.96738320731327
  H   1.26917324216338      1.21517959397576     -0.79166151390593
  N   0.55089120145481     -1.35351691306138     -1.11544781946258
  H   1.50997358095134     -1.58351282481117     -1.34539039058867
  H   0.04541218329799     -2.22454629055888     -0.99877771754652
