17
Coordinates from ORCA-job run
  C   -0.88053984082085      0.05488175987119      0.19100700313558
  C   0.53023948265986     -0.58189329420213      0.21627572482322
  Br  -2.16288950273408     -1.54961544859752      0.52463201227712
  H   0.59660824526850     -1.12765573826172      1.16372965437761
  N   -1.20508027314169      0.96778950744222      1.24573728748136
  H   -0.65953141370205      1.81424189826329      1.13262603542974
  H   -1.03230975096549      0.55727604665656      2.15418094949492
  N   -1.14320388127790      0.69471526714930     -1.02892538346066
  H   -2.07114613362110      1.09851212020906     -1.02840792260979
  H   -1.03260403102037      0.07325273763867     -1.81737116963888
  C   1.60367474893805      0.50281742212304      0.19654218904900
  H   1.51290728031892      1.12044154502998     -0.70005561390270
  H   2.58298060130285      0.02193348964714      0.19668037739634
  H   1.54328185611854      1.15220210502063      1.07072890890464
  N   0.81110708268128     -1.52691050240684     -0.84985053956529
  H   0.93367950289785     -1.05474996772531     -1.73717476122991
  H   0.07382602709768     -2.21623894785756     -0.92835475196230
