17
Coordinates from ORCA-job run
  C   -0.76935199966194      0.29601866105416      0.35526591601842
  C   0.61459668740820     -0.40191984292021      0.31386848681142
  Br  -0.66374237582231      1.72493423265892      1.80865194843962
  H   0.77580581540956     -0.83202128613159      1.31095790567817
  N   -1.19605057246006      0.99623101343425     -0.82521166110971
  H   -1.23027759885920      0.34148455606598     -1.59867034754185
  H   -0.57757524986217      1.76482975251048     -1.04550843613485
  N   -1.76745505610667     -0.66547723554720      0.64829314870293
  H   -1.60706826605828     -1.11220615203343      1.54247868654260
  H   -2.68047367055660     -0.22741677162081      0.64131796239027
  C   1.77524135870967      0.52375624070218     -0.00688081183820
  H   1.90497466776935      1.29923120533725      0.74519613142695
  H   2.68776752756046     -0.07166056061647     -0.06504806891589
  H   1.62967989514948      1.00404704314397     -0.98001356149501
  N   0.62225812406436     -1.49735126475376     -0.65024857016377
  H   0.73245266985227     -1.13694635700729     -1.59094851603108
  H   -0.25278195653610     -2.00553323427643     -0.60250021278005
