17
Coordinates from ORCA-job run
  C   -0.91086655814792      0.11303114975433      0.21181128586520
  C   0.47691778403510     -0.54817510617979      0.13508887903971
  Br  -2.19892130595110     -1.52793919538986      0.53760435190480
  H   0.58957731575527     -1.14609636966656      1.05124287554426
  N   -1.19436328023085      0.95414571659440      1.32939523425556
  H   -0.67375918893883      1.81826508986955      1.24146490682983
  H   -0.99392718211239      0.49604031832578      2.20831336171828
  N   -1.19062150754802      0.79481406366979     -0.96438326708107
  H   -0.94056883058205      0.24342246087862     -1.77540547728893
  H   -2.13690157661658      1.14698932491154     -0.99503629832564
  C   1.57457197693073      0.50921424293516      0.09378484961744
  H   1.54242392782299      1.15132994247787      0.97512886056020
  H   1.47581762794356      1.12436199745547     -0.80114045429806
  H   2.55475610727341      0.02360520856110      0.08164927356385
  N   0.54277604412925     -1.34474126237030     -1.08687993244331
  H   -0.01610709924283     -2.18289118305904     -0.97487838863163
  H   1.49919574548027     -1.62537639876806     -1.26576006083049
