17
Coordinates from ORCA-job run
  C   -0.81888557224328      0.22554560128959      0.08924617729175
  C   0.57995721447918     -0.43377947841093     -0.01379185399313
  Br  -0.86389305620415      1.72466658803728     -1.33014483153934
  H   0.50117699285414     -1.27016977493555      0.69493165097309
  N   -1.93607151850510     -0.60880879509875     -0.26745514556683
  H   -1.88194122152311     -0.90851742450834     -1.23083124119849
  H   -1.95151941602213     -1.41389443236750      0.35069109387883
  N   -1.06584513067314      0.70385007248975      1.38660163446109
  H   -0.40296394682813      1.40397405765364      1.68558319486743
  H   -2.01081367705791      1.06007263973427      1.45425980703740
  C   1.72191919635830      0.46515961077521      0.43972957078972
  H   2.65648882557169     -0.08687097060918      0.33428309341949
  H   1.78063553360497      1.36339863360037     -0.17898894546447
  H   1.62324001058658      0.76157630006393      1.48591115084872
  N   0.91094454887520     -1.00522572121011     -1.30603514583415
  H   0.23133722963793     -1.70197989501052     -1.58309428234245
  H   0.92523398708896     -0.27799701149317     -2.01189592762866
