17
Coordinates from ORCA-job run
  C   -0.78166701428575      0.14858714083978      0.16049973624523
  C   0.60777709020951     -0.50970521725486      0.07644117756505
  Br  -0.75953742985293      1.62647816883160     -1.52281625536197
  H   0.55288189763162     -1.26326233098739      0.87257542646442
  N   -1.81200589665412     -0.74592057052621     -0.11920625171398
  H   -2.72661843955511     -0.31391347785396     -0.09114810285034
  H   -1.67990853461238     -1.17429815956611     -1.02383846430467
  N   -0.99310665324880      0.85901716072400      1.33586752081298
  H   -0.33363631247486      1.61446987600985      1.44746683410762
  H   -1.93550860448547      1.21634000624715      1.42327103692715
  C   1.75416527891569      0.43846450861479      0.39634904280329
  H   1.67334090463960      0.85905009301530      1.40125643689124
  H   1.80549437964006      1.25046815709823     -0.33067856593841
  H   2.68227724727021     -0.13107662780010      0.34505538649073
  N   0.88392444431109     -1.21591922158624     -1.15896545473753
  H   0.73852577764130     -0.60777007588138     -1.95630536638061
  H   0.32260186491034     -2.05100942992445     -1.25582413702018
