18

C	-0.657229	-0.073507	-1.475412
C	0.098863	-0.075931	-0.15194
F	-2.033638	-0.073802	-1.226175
H	1.148489	-0.275958	-0.372891
N	-0.257199	0.987121	-2.292829
H	-0.087773	1.762776	-1.649977
H	-0.964056	1.19699	-2.985319
N	-0.466864	-1.34992	-2.30045
O	-1.280155	-1.540835	-3.20242
O	0.504523	-2.060154	-2.061441
C	-0.410562	-1.140292	0.812548
H	-0.340526	-2.150068	0.398086
H	-1.450954	-0.941796	1.085046
H	0.210028	-1.07937	1.708023
N	0.043248	1.280411	0.372302
H	-0.758272	1.358137	0.992788
H	0.919059	1.367414	0.982843
H	2.204818	1.146797	1.798559
