18

C	-0.673024	-0.06392	-1.463241
C	0.099217	-0.078398	-0.149168
F	-2.045999	-0.095966	-1.197699
H	1.151007	-0.25349	-0.387029
N	-0.30359	1.02068	-2.26352
H	-1.023205	1.230713	-2.942721
H	-0.141477	1.786327	-1.606938
N	-0.46844	-1.319502	-2.316406
O	-1.289335	-1.508406	-3.211881
O	0.519482	-2.015175	-2.103808
C	-0.377637	-1.172118	0.799002
H	0.252623	-1.117623	1.688118
H	-1.418227	-0.999578	1.087933
H	-0.293347	-2.171603	0.36283
N	0.023638	1.2656	0.403375
H	0.90556	1.357492	1.004548
H	-0.770956	1.314693	1.035597
H	2.20514	1.146798	1.799193
