18

C	-0.29172	-0.061892	-1.508351
C	0.0	0.0	0.0
Br	-0.128586	1.842087	-2.343625
H	1.098427	0.0	0.0
N	0.598922	-0.960778	-2.11084
H	0.537199	-0.975638	-3.119396
H	1.555809	-0.788124	-1.794467
C	-1.685821	-0.38962	-1.820973
N	-2.802049	-0.686493	-2.044288
C	-0.464196	-1.311309	0.640591
H	-0.098779	-2.173009	0.081624
H	-0.056197	-1.3671	1.653107
H	-1.556953	-1.363727	0.703253
C	-0.575869	1.194449	0.737479
H	-1.656481	1.281434	0.575343
H	-0.099194	2.124268	0.43248
H	-0.403474	1.062247	1.80904
Br	3.569494	0.0	0.0
