18

C	-0.522368	0.00263	-1.446524
C	0.0	0.0	0.0
Br	0.299193	-1.484321	-2.452931
H	1.095905	0.0	0.0
N	-1.964391	-0.140091	-1.620074
H	-2.419284	0.63179	-1.141899
H	-2.25449	-1.004384	-1.176191
C	-0.129176	1.232492	-2.145269
N	0.104316	2.252029	-2.681052
C	-0.460409	-1.229711	0.776503
H	-0.213544	-2.155178	0.253531
H	0.067079	-1.248481	1.732889
H	-1.536526	-1.211278	0.987718
C	-0.436458	1.27618	0.723531
H	-0.063009	2.171693	0.222883
H	-0.007349	1.266192	1.728263
H	-1.526381	1.351397	0.826818
Br	3.583841	0.0	0.0
