18

C	-0.493349	0.006001	-1.448412
C	0.0	0.0	0.0
Br	0.211101	-1.539216	-2.450282
H	1.096045	0.0	0.0
N	-1.945119	-0.085547	-1.518171
H	-2.240088	-0.027541	-2.487326
H	-2.333122	0.713144	-1.024722
C	0.002063	1.187572	-2.178587
N	0.255988	2.170395	-2.773158
C	-0.474517	-1.228774	0.767166
H	-1.565185	-1.279591	0.821613
H	-0.067507	-1.181012	1.780724
H	-0.103192	-2.146013	0.308934
C	-0.436852	1.282989	0.715241
H	-0.147258	2.180246	0.162923
H	-1.515747	1.311674	0.910891
H	0.074559	1.323417	1.67926
Br	3.589843	0.0	0.0
