12

C	-0.488848	0.093317	-1.440698
C	0.0	0.0	0.0
Cl	-0.148836	-1.420345	-2.303652
H	1.094701	0.0	0.0
H	0.052429	0.889169	-1.943444
H	-1.561779	0.273078	-1.487776
C	-0.540857	-1.142235	0.718179
N	-0.986363	-2.08432	1.258658
N	-0.370702	1.260146	0.737732
O	-0.519753	2.274645	0.061114
O	-0.441624	1.20554	1.95945
Cl	3.178481	0.0	0.0
