12

C	-0.486	0.083015	-1.442755
C	0.0	0.0	0.0
Cl	-0.154096	-1.444125	-2.294474
H	1.094656	0.0	0.0
H	-1.559827	0.269123	-1.489993
H	0.05931	0.874665	-1.949418
C	-0.534869	-1.141827	0.725625
N	-0.957296	-2.072505	1.304616
N	-0.381664	1.262513	0.723575
O	-0.509028	2.27415	0.035644
O	-0.483182	1.21556	1.943822
Cl	3.158613	0.0	0.0
