12

C	-0.526144	-0.069476	-1.424812
C	0.0	0.0	0.0
Cl	-0.037601	1.366977	-2.34991
H	1.090914	0.0	0.0
H	-1.613188	-0.122391	-1.436771
H	-0.084781	-0.942639	-1.905129
C	-0.501207	-1.15124	0.744323
N	-0.905698	-2.100836	1.305298
N	-0.542859	1.237111	0.674471
O	-1.75181	1.433338	0.549455
O	0.239408	1.941917	1.296943
Cl	3.246157	0.0	0.0
