12

C	-0.379352	0.008251	-1.460689
C	0.0	0.0	0.0
Cl	-2.149614	0.025551	-1.721101
H	1.095172	0.0	0.0
H	0.040732	0.893813	-1.929364
H	0.021985	-0.890251	-1.926319
C	-0.522097	-1.146824	0.724953
N	-0.916332	-2.107092	1.273527
N	-0.416595	1.274872	0.674173
O	-0.763885	1.21747	1.849613
O	-0.322523	2.29854	0.005273
Cl	3.151564	0.0	0.0
