12

C	-0.540895	-0.043288	-1.420017
C	0.0	0.0	0.0
Cl	0.020953	1.36355	-2.348214
H	1.09095	0.0	0.0
H	-1.629627	-0.030488	-1.418091
H	-0.15964	-0.941471	-1.905847
C	-0.523285	-1.140458	0.745229
N	-0.946548	-2.080086	1.309479
N	-0.512937	1.249034	0.683151
O	0.289526	1.930283	1.303403
O	-1.715791	1.477925	0.564159
Cl	3.221218	0.0	0.0
