12

C	-0.485056	0.049749	-1.445085
C	0.0	0.0	0.0
Cl	-0.228039	-1.520037	-2.238942
H	1.090628	0.0	0.0
H	-1.547895	0.285079	-1.500582
H	0.097505	0.794289	-1.980155
C	-0.552217	-1.108592	0.761565
N	-1.015761	-2.016355	1.344896
N	-0.36614	1.290104	0.684529
O	-0.478679	2.282751	-0.033828
O	-0.464091	1.279809	1.905993
Cl	3.158051	0.0	0.0
