15

C	0.0	0.0	0.0
C	-0.60008	0.036136	-1.387797
Br	1.933694	0.0	0.0
H	-0.458113	1.046178	-1.784198
H	-1.717261	-0.080756	-1.154863
C	-0.455953	1.187486	0.822251
H	-0.051959	1.125295	1.830853
H	-0.093043	2.102357	0.346937
H	-1.555979	1.151039	0.832558
N	-0.40593	-1.296808	0.701289
O	-0.613293	-1.245768	1.905462
O	-0.433831	-2.308753	0.013179
C	-0.073618	-0.913798	-2.3502
N	0.361774	-1.613574	-3.188598
H	-3.024061	0.0	0.0
