15

C	0.0	0.0	0.0
C	-0.690889	0.048309	-1.333449
Br	1.945274	0.0	0.0
H	-0.473105	-0.82863	-1.942824
H	-1.834967	0.006574	-0.955426
C	-0.486795	1.107946	0.898961
H	-0.056204	1.032197	1.895359
H	-0.221381	2.067973	0.451057
H	-1.583276	0.996418	0.928827
N	-0.344595	-1.359991	0.635002
O	-0.440186	-1.404883	1.855064
O	-0.433888	-2.322326	-0.118861
C	-0.412592	1.265277	-2.055958
N	-0.222961	2.261172	-2.655094
H	-3.011892	0.0	0.0
