15

C	0.0	0.0	0.0
C	-0.401991	0.017245	-1.486459
Br	1.958803	0.0	0.0
H	0.265764	-0.627894	-2.066462
H	-1.434498	-0.354037	-1.51218
C	-0.329406	1.209848	0.859988
H	0.051914	2.103455	0.369668
H	-1.40872	1.270056	0.967364
H	0.161095	1.097444	1.828447
N	-0.477016	-1.277889	0.606517
O	-0.502415	-1.330402	1.843134
O	-0.493723	-2.267223	-0.147808
C	-0.395656	1.364717	-2.046425
N	-0.401115	2.430185	-2.538592
H	-2.483491	0.0	0.0
