15

C	0.0	0.0	0.0
C	-0.641649	0.033278	-1.366389
Br	1.945121	0.0	0.0
H	-1.763734	0.004972	-1.074106
H	-0.388516	-0.850797	-1.951244
C	-0.503646	1.125683	0.864806
H	-1.602163	1.014957	0.86633
H	-0.09721	1.06673	1.872387
H	-0.221392	2.074739	0.405301
N	-0.359472	-1.348529	0.639554
O	-0.429767	-1.386085	1.86128
O	-0.480205	-2.311109	-0.109896
C	-0.308391	1.23898	-2.096015
N	-0.053152	2.210736	-2.707819
H	-3.066798	0.0	0.0
