18

C	-0.426807	-0.002273	-1.451148
C	0.0	0.0	0.0
F	0.252255	-0.892336	-2.166116
H	1.095819	0.0	0.0
N	-1.910192	-0.329416	-1.657879
O	-2.679971	-0.142383	-0.724623
O	-2.210633	-0.735861	-2.774944
N	-0.276128	1.351409	-2.140271
O	-1.152236	2.175196	-1.888029
O	0.696597	1.505377	-2.861154
N	-0.420858	-1.301864	0.51852
H	-1.198846	-1.196146	1.156621
H	0.362263	-1.717217	1.006452
C	-0.43185	1.202033	0.828683
H	-1.516227	1.293792	0.89982
H	-0.009758	1.064161	1.826992
H	-0.019981	2.13176	0.43355
Cl	3.334654	0.0	0.0
