18

C	-0.377105	0.037961	-1.478156
C	0.0	0.0	0.0
F	-0.121883	-1.129467	-2.082229
H	1.094878	0.0	0.0
N	-1.868436	0.302204	-1.646477
O	-2.600842	-0.676148	-1.52974
O	-2.224914	1.466105	-1.792977
N	0.289924	1.120022	-2.31776
O	0.758414	2.088529	-1.739921
O	0.263353	0.920322	-3.527742
N	-0.402341	-1.264015	0.605803
H	-1.325703	-1.54986	0.302701
H	0.260321	-1.980426	0.338075
C	-0.569572	1.157184	0.801497
H	-0.342632	2.124239	0.358507
H	-0.120907	1.105515	1.79335
H	-1.654891	1.055626	0.915002
Cl	3.336701	0.0	0.0
