18

C	-0.495583	0.008843	-1.429281
C	0.0	0.0	0.0
F	-1.839356	0.006462	-1.491774
H	1.090173	0.0	0.0
N	-0.019665	1.196995	-2.255633
O	1.054646	1.692305	-1.944836
O	-0.758314	1.538233	-3.178103
N	-0.006422	-1.215734	-2.19424
O	1.209775	-1.308169	-2.296257
O	-0.862755	-1.973872	-2.633762
N	-0.449137	-1.277627	0.543438
H	-1.365721	-1.1915	0.966472
H	0.216291	-1.583003	1.242009
C	-0.511813	1.231519	0.739274
H	-0.179371	1.171837	1.777333
H	-1.60562	1.282551	0.721182
H	-0.100798	2.149818	0.315897
Cl	3.340019	0.0	0.0
