18

C	-0.466223	-0.015452	-1.443599
C	0.0	0.0	0.0
F	-1.811271	-0.140417	-1.542564
H	1.091205	0.0	0.0
N	-0.070903	1.241592	-2.193002
O	-0.947136	2.078531	-2.379163
O	1.110784	1.310273	-2.503128
N	0.101611	-1.144977	-2.291152
O	0.890817	-1.92446	-1.775372
O	-0.330376	-1.18244	-3.440993
N	-0.471411	-1.172514	0.720613
H	0.092396	-1.971592	0.461339
H	-1.444404	-1.362055	0.510412
C	-0.495418	1.271251	0.678586
H	-0.039844	2.164879	0.248661
H	-0.197085	1.205576	1.724476
H	-1.584491	1.365447	0.624458
Cl	3.377151	0.0	0.0
