18

C	-0.545235	-0.043607	-1.408326
C	0.0	0.0	0.0
F	-1.885697	0.014255	-1.441469
H	1.093584	0.0	0.0
N	-0.020077	1.101061	-2.258682
O	1.126561	0.970553	-2.668165
O	-0.771615	2.056433	-2.423652
N	-0.148345	-1.288889	-2.185655
O	0.701097	-2.026578	-1.709517
O	-0.737344	-1.430964	-3.253733
N	-0.521923	-1.198164	0.667047
H	-0.908968	-0.945328	1.56628
H	0.255261	-1.828012	0.824527
C	-0.475341	1.274893	0.685411
H	-0.042013	1.300578	1.687002
H	-1.566102	1.30166	0.759064
H	-0.137535	2.169843	0.162172
Cl	3.423433	0.0	0.0
