18

C	-0.391457	0.003291	-1.460326
C	0.0	0.0	0.0
F	0.254802	0.946171	-2.154423
H	1.095733	0.0	0.0
N	-0.09762	-1.340571	-2.120753
O	-1.048706	-2.077507	-2.353494
O	1.081258	-1.550284	-2.346876
N	-1.881124	0.226015	-1.713904
O	-2.65817	-0.144848	-0.84126
O	-2.185116	0.74701	-2.78046
N	-0.423281	-1.247393	0.608844
H	-1.346861	-1.16827	1.011362
H	0.246616	-1.506616	1.319929
C	-0.448927	1.287881	0.685903
H	0.043822	1.343063	1.658699
H	-1.53196	1.312611	0.834488
H	-0.14062	2.166482	0.11342
Cl	3.370613	0.0	0.0
