18

C	-0.510151	-0.033136	-1.427644
C	0.0	0.0	0.0
F	-1.855315	-0.197553	-1.474822
H	1.091219	0.0	0.0
N	-0.183665	1.238004	-2.187368
O	-1.092273	2.048327	-2.336265
O	0.985386	1.347522	-2.533091
N	0.052944	-1.144801	-2.299324
O	0.836841	-1.939949	-1.799069
O	-0.379977	-1.156703	-3.448999
N	-0.449718	-1.165756	0.747711
H	0.138355	-1.95624	0.512847
H	-1.415792	-1.389148	0.535716
C	-0.481522	1.280006	0.67456
H	-0.157216	1.227325	1.713411
H	-1.571184	1.375785	0.645568
H	-0.03368	2.167016	0.222984
Cl	3.418592	0.0	0.0
