18

C	-0.579349	0.029862	-1.394504
C	0.0	0.0	0.0
F	-1.926391	0.084834	-1.367324
H	1.090123	0.0	0.0
N	-0.127406	1.183329	-2.277482
O	0.819514	1.861513	-1.899981
O	-0.769267	1.317897	-3.318685
N	-0.192842	-1.204573	-2.190598
O	-1.076259	-2.001931	-2.457644
O	0.990267	-1.264683	-2.487998
N	-0.418773	-1.287408	0.554959
H	0.336757	-1.652783	1.118267
H	-1.245129	-1.189217	1.128783
C	-0.479411	1.205497	0.805021
H	-1.571863	1.230879	0.876637
H	-0.061254	1.125015	1.810497
H	-0.122861	2.141558	0.373493
Cl	3.382105	0.0	0.0
