18

C	-0.550646	-0.033966	-1.406562
C	0.0	0.0	0.0
F	-1.892514	0.038517	-1.436079
H	1.093468	0.0	0.0
N	-0.019908	1.107321	-2.261792
O	1.080334	0.936435	-2.767194
O	-0.729942	2.103789	-2.337456
N	-0.172386	-1.283859	-2.186678
O	0.673584	-2.028359	-1.718151
O	-0.770793	-1.419347	-3.249953
N	-0.525526	-1.203322	0.658644
H	0.249279	-1.839917	0.798333
H	-0.893703	-0.954323	1.567208
C	-0.468902	1.26785	0.70184
H	-0.030869	1.275593	1.702316
H	-1.559442	1.29797	0.780891
H	-0.128293	2.168308	0.190506
Cl	3.373635	0.0	0.0
