14

C	0.0	0.0	0.0
C	-0.369999	-0.012022	-1.517608
Cl	1.76176	0.0	0.0
H	-0.110273	-1.031693	-1.83447
N	-0.42891	1.287961	0.676679
O	-0.500265	1.25672	1.895147
O	-0.543515	2.265167	-0.046448
C	-0.502629	-1.166163	0.709292
N	-0.585542	-2.204583	1.25794
C	0.481786	0.888092	-2.314775
N	1.131839	1.567185	-3.018685
C	-1.766869	0.230032	-1.926902
N	-2.584272	0.421362	-2.758668
F	-2.299177	0.0	0.0
