14

C	0.0	0.0	0.0
C	-0.422546	-0.190561	-1.492076
Cl	1.751861	0.0	0.0
H	-0.275639	-1.264645	-1.672839
N	-0.427599	1.363567	0.518588
O	-0.530577	2.245555	-0.320345
O	-0.520458	1.478811	1.730104
C	-0.490015	-1.062025	0.867148
N	-0.612406	-2.004876	1.559579
C	0.46946	0.515391	-2.426757
N	1.148242	1.029612	-3.235817
C	-1.815635	0.129419	-1.877411
N	-2.60833	0.32651	-2.734355
F	-2.331529	0.0	0.0
