15

C	-0.59327	-0.06587	-1.387664
C	0.0	0.0	0.0
F	-0.097053	-1.109038	-2.117297
H	1.091795	0.0	0.0
H	-1.68289	-0.146595	-1.346708
N	-0.341777	1.190449	-2.170628
O	0.81643	1.430633	-2.486031
O	-1.329426	1.867991	-2.448921
N	-0.423827	-1.186172	0.749775
H	-1.09905	-1.737042	0.236969
H	0.390526	-1.767256	0.908324
N	-0.488796	1.243054	0.597493
H	0.304687	1.731685	0.992971
H	-1.100784	0.984166	1.35892
Cl	3.415107	0.0	0.0
