15

C	-0.577289	-0.045535	-1.400241
C	0.0	0.0	0.0
F	-1.940319	-0.139758	-1.359118
H	1.101142	0.0	0.0
H	-0.29845	0.818062	-2.004988
N	-0.065414	-1.241286	-2.155922
O	1.018052	-1.08242	-2.707119
O	-0.751351	-2.256735	-2.163252
N	-0.449195	-1.1623	0.721167
H	-1.39585	-1.023874	1.052679
H	0.174115	-1.347972	1.494835
N	-0.495493	1.261479	0.603759
H	-0.003367	2.028438	0.148313
H	-0.137544	1.259334	1.554582
Cl	3.437804	0.0	0.0
