19
Coordinates from ORCA-job run
  C   -0.65195071663162      0.46645776513329     -0.12725364702568
  C   0.86190702457961      0.27349183058082     -0.28384481065397
  F   -0.86146667643549      1.85125643608562     -0.22431717005471
  H   1.15352162622202      0.78293613934740     -1.20452637852535
  C   -1.22920612863475      0.02617173036461      1.20254157106408
  H   -1.07288523460748     -1.03979968419189      1.37479567127266
  H   -2.30361757936704      0.22073476535711      1.19312695198936
  H   -0.78281133719327      0.58022950181041      2.02674790363153
  C   -1.37807985135279     -0.17010915427329     -1.29904143971933
  H   -1.37303237943693     -1.25900075075457     -1.23212909147280
  H   -2.41535165754755      0.16981882403286     -1.28971113524603
  H   -0.92806715675111      0.13329676765470     -2.24717549612113
  C   1.33688118752464     -1.16666278083279     -0.26670830700155
  H   1.04589571148809     -1.66750766813224      0.65542149305610
  H   0.92747052513240     -1.70947722768026     -1.11944263727169
  H   2.42568321270664     -1.20028747902044     -0.33960741830201
  N   1.57311461055705      1.04321151548948      0.79034385198198
  O   1.64497589788126      0.52181220489219      1.90334564792930
  O   2.02901892186631      2.14242726413700      0.48643444046925
