19
Coordinates from ORCA-job run
  C   -0.63626172834548      0.10170766734702      0.26179691459417
  C   0.76693440127940     -0.17550385210611     -0.30676858364133
  F   -0.52348088914421      0.21539718506833      1.65239790335154
  H   0.65834732037674     -0.48928520555855     -1.34678617159705
  C   -1.55229023652975     -1.07714361075495     -0.01726933541220
  H   -1.71687900662035     -1.19769219321730     -1.09024933756964
  H   -2.51544820254183     -0.89794194556014      0.46405947342732
  H   -1.14217792124897     -2.00363513369352      0.38621871264353
  C   -1.22795938666455      1.40260261797438     -0.24569272830723
  H   -1.25713679811271      1.42511161431099     -1.33673995312443
  H   -0.63961237240997      2.25098614517458      0.10646195574383
  H   -2.24324468824498      1.50954085928892      0.14008973782264
  C   1.58248883777264     -1.16713320708592      0.50079917984217
  H   1.69881078698547     -0.81307188078473      1.52238064016538
  H   1.09080573112005     -2.14038304160985      0.51345337764386
  H   2.57039827571658     -1.29265343869678      0.05313139676351
  N   1.51977411428510      1.11852577617001     -0.39688519525168
  O   1.56900954194132      1.66099912299323     -1.50090199345108
  O   1.99692222038551      1.56957252074040      0.64150400635669
