19
Coordinates from ORCA-job run
  C   -0.69462102143053     -0.12991422536964     -0.35591162004639
  C   0.84544812948278     -0.09155502478308     -0.40977170877789
  F   -1.02460499630691     -1.13257307385033     -1.28784482176711
  H   1.11630194550737      0.05126871321818     -1.45712901499870
  C   -1.30377275221916      1.16309004057632     -0.85937714369546
  H   -1.15768160841311      1.97514496461216     -0.14462041803552
  H   -2.37605989970985      1.01606152293797     -1.00095512515487
  H   -0.86143909672245      1.45564145084395     -1.81344152248624
  C   -1.26471798693535     -0.55761625903771      0.97884762775176
  H   -0.94277787414027     -1.56905154509692      1.22813119061392
  H   -2.35491169423524     -0.55418128113553      0.91957454988883
  H   -0.94940754075571      0.11865024961385      1.77384148472020
  C   1.53359004650294     -1.30886577118407      0.17201947100011
  H   1.12503371350657     -2.20440153564927     -0.29814365936341
  H   2.60580835453603     -1.26975664140860     -0.03127117548417
  H   1.38824393041384     -1.36645878386036      1.24955269502417
  N   1.32543819439127      1.15119727092087      0.27393805724418
  O   1.33518359417952      1.15644594587477      1.50474612183527
  O   1.65194656234828      2.09687398277744     -0.44218498826869
