15

C	-0.513267	0.029589	-1.430449
C	0.0	0.0	0.0
F	-0.248753	-1.144787	-2.060841
H	1.094225	0.0	0.0
C	-1.957491	0.302345	-1.524384
N	-3.124576	0.438502	-1.553175
N	0.214497	1.129723	-2.208777
O	-0.29611	2.244062	-2.182819
O	1.240562	0.796977	-2.77816
C	-0.503229	-1.202221	0.650232
N	-0.92113	-2.139326	1.226881
N	-0.364646	1.235714	0.673507
H	-1.157331	1.133092	1.291809
H	0.446172	1.538046	1.198736
F	2.488857	0.0	0.0
