15

C	-0.507912	-0.01306	-1.431647
C	0.0	0.0	0.0
F	-0.072007	-1.122489	-2.086085
H	1.094223	0.0	0.0
C	-1.977513	0.048242	-1.534299
N	-3.152915	0.042916	-1.536137
N	0.060804	1.200987	-2.164699
O	-0.674017	2.178372	-2.260559
O	1.203842	1.090746	-2.577086
C	-0.49764	-1.191827	0.673623
N	-0.914244	-2.130221	1.248977
N	-0.369365	1.251582	0.635943
H	-1.185601	1.174396	1.225706
H	0.424742	1.55116	1.186706
F	2.487075	0.0	0.0
