15

C	-0.493272	0.072539	-1.422001
C	0.0	0.0	0.0
F	-1.851089	0.237009	-1.506572
H	1.093161	0.0	0.0
C	0.149158	1.164447	-2.162108
N	0.579882	2.051299	-2.799197
N	-0.170968	-1.237874	-2.145993
O	-1.066807	-2.072285	-2.184501
O	0.966319	-1.348381	-2.583027
C	-0.53544	-1.163708	0.688596
N	-0.973165	-2.064643	1.306435
N	-0.336904	1.268963	0.640487
H	-1.159203	1.205457	1.225066
H	0.465332	1.537548	1.196992
F	2.481916	0.0	0.0
