15

C	-0.42488	-0.049769	-1.449178
C	0.0	0.0	0.0
F	0.262821	0.858786	-2.173283
H	1.101942	0.0	0.0
C	-0.295646	-1.376771	-2.067666
N	-0.19321	-2.433006	-2.571968
N	-1.911731	0.342981	-1.577207
O	-2.696109	-0.420464	-1.022563
O	-2.18793	1.37312	-2.171951
C	-0.480106	-1.135271	0.765332
N	-0.824787	-2.022409	1.457426
N	-0.37944	1.296882	0.550457
H	0.453808	1.684801	0.976148
H	-1.106543	1.217409	1.249049
F	2.483762	0.0	0.0
