15

C	-0.295468	0.249415	-1.487044
C	0.0	0.0	0.0
F	-0.088209	-0.871475	-2.217069
H	1.093963	0.0	0.0
C	-1.652739	0.756667	-1.743721
N	-2.74293	1.182164	-1.86073
N	0.67418	1.317687	-2.012801
O	1.481437	0.982238	-2.857814
O	0.516982	2.43446	-1.533301
C	-0.590588	-1.276594	0.369215
N	-1.069759	-2.303503	0.684032
N	-0.394858	1.049141	0.91044
H	-1.282325	1.479395	0.677324
H	0.334898	1.74842	0.908743
F	2.488025	0.0	0.0
