15

C	-0.514503	-0.011291	-1.430012
C	0.0	0.0	0.0
F	-0.21603	-1.18954	-2.038006
H	1.09417	0.0	0.0
C	-1.965866	0.217276	-1.529281
N	-3.136249	0.319655	-1.554879
N	0.181539	1.094825	-2.226695
O	1.228304	0.786042	-2.772243
O	-0.369093	2.190356	-2.234966
C	-0.499508	-1.185917	0.682135
N	-0.913977	-2.1113	1.279785
N	-0.366465	1.252285	0.641698
H	-1.157307	1.16358	1.265398
H	0.445594	1.5702	1.155679
F	2.489388	0.0	0.0
