15

C	-0.490792	0.008574	-1.43813
C	0.0	0.0	0.0
F	-0.035686	-1.08702	-2.104626
H	1.094228	0.0	0.0
C	-1.957242	0.063984	-1.560696
N	-3.132206	0.054619	-1.58037
N	0.079189	1.239185	-2.139433
O	-0.663267	2.207394	-2.25937
O	1.237363	1.146696	-2.508453
C	-0.494461	-1.202376	0.654078
N	-0.909265	-2.151399	1.21308
N	-0.382211	1.24241	0.648814
H	-1.197109	1.154584	1.238372
H	0.408818	1.542975	1.200208
F	2.487726	0.0	0.0
