15

C	-0.503098	0.059626	-1.419029
C	0.0	0.0	0.0
F	-1.862613	0.218499	-1.494139
H	1.093132	0.0	0.0
C	0.128577	1.148718	-2.172454
N	0.549861	2.032971	-2.819522
N	-0.18174	-1.255366	-2.135086
O	0.948761	-1.361595	-2.590628
O	-1.070793	-2.097402	-2.148862
C	-0.533643	-1.155544	0.703865
N	-0.970382	-2.049067	1.333282
N	-0.333135	1.275771	0.629851
H	-1.151655	1.218267	1.219971
H	0.472839	1.549364	1.178579
F	2.481856	0.0	0.0
