15

C	-0.516949	-2.5e-05	-1.41733
C	0.0	0.0	0.0
Cl	0.15727	1.381907	-2.244692
H	1.090801	0.0	0.0
H	-0.359156	0.88961	0.514561
N	-0.139616	-1.273485	-2.209315
O	-1.062637	-1.963533	-2.617514
O	1.054099	-1.444574	-2.365622
N	-2.046459	0.075094	-1.494652
O	-2.649504	-0.239578	-0.474121
O	-2.541456	0.419713	-2.557657
N	-0.437907	-1.169735	0.797198
O	-0.513585	-2.25217	0.221378
O	-0.640114	-0.976519	1.990602
Cl	3.217414	0.0	0.0
