15

C	-0.479205	0.009927	-1.425654
C	0.0	0.0	0.0
Cl	0.321511	1.17035	-2.414799
H	1.08616	0.0	0.0
H	-0.36498	-0.8738	0.530043
N	-0.295209	-1.407408	-2.034922
O	-0.378973	-1.478512	-3.252132
O	-0.15247	-2.335167	-1.251046
N	-2.020227	0.155458	-1.521805
O	-2.630472	-0.496037	-0.682611
O	-2.497763	0.825905	-2.417432
N	-0.49245	1.182771	0.749386
O	-1.128988	2.046497	0.145381
O	-0.231936	1.201533	1.945349
Cl	3.21694	0.0	0.0
