15

C	-0.493501	0.002928	-1.420865
C	0.0	0.0	0.0
Cl	0.127664	-1.305236	-2.358307
H	1.08616	0.0	0.0
H	-0.356912	0.880987	0.529089
N	-2.035188	0.087623	-1.510258
O	-2.513852	0.949288	-0.780405
O	-2.631629	-0.625191	-2.297
N	-0.103712	1.342354	-2.085649
O	-0.280816	1.404043	-3.295367
O	0.271638	2.239777	-1.345626
N	-0.513012	-1.175954	0.751917
O	0.037772	-1.422502	1.815774
O	-1.478765	-1.785905	0.290191
Cl	3.219882	0.0	0.0
