16
Coordinates from ORCA-job run
  C   0.90262926719624      0.28217347443377     -0.52144565218830
  C   -0.62227771872046      0.18113224672311     -0.48626643205729
  Br  1.40638791852269      2.10736849267863     -1.07568880907203
  H   -0.98024308146564      0.48254962028586     -1.48369145021138
  H   1.27568144013657     -0.34213428113467     -1.33691322672814
  C   1.59813431514752     -0.05148013250428      0.78381677661595
  H   1.41326047497331     -1.09743036343198      1.04308486727378
  H   1.21816268812273      0.57689782235257      1.58770871842040
  H   2.67607292752586      0.08876503971471      0.69303199100918
  N   -1.15540625945109      1.01772375503990      0.58415308305116
  H   -0.98705383137845      1.99405596328123      0.36884572736211
  H   -2.15884499812429      0.88925481921724      0.64307441129713
  C   -1.05521267797947     -1.26155645108221     -0.24505241650702
  H   -2.13655721318115     -1.35379101427254     -0.38152020129392
  H   -0.57388191743689     -1.94595405122450     -0.94818835789536
  H   -0.81885133388749     -1.56757494007685      0.77505097092372
