16
Coordinates from ORCA-job run
  C   0.88867184384322     -0.14025674394582     -0.11600654747650
  C   -0.62078041341103      0.09203237797833     -0.29930632235900
  Br  1.76510385022384     -0.26059441381203     -1.87333201489105
  H   -0.74078434974867      0.99842205287088     -0.90514025434537
  H   1.05037084532465     -1.12260318297532      0.34014755162861
  C   1.59372801922673      0.94207649819951      0.68419999409896
  H   1.41837228801753      1.92428650390567      0.23777628198481
  H   2.66977513059141      0.76778086239969      0.71116897290226
  H   1.23195157809267      0.95042209957155      1.71491124757170
  N   -1.31288376542116      0.32800691903163      0.96593438779893
  H   -1.19760397876698     -0.46517731547920      1.58740727936127
  H   -0.96138502058405      1.15272744289996      1.43411531783980
  C   -1.31026066857801     -1.07120044436580     -0.99874208622908
  H   -1.18317371275884     -1.99026185340894     -0.41576879527760
  H   -0.91107643917936     -1.24535818940020     -1.99700202108171
  H   -2.37802520687195     -0.86130261346989     -1.07036299152603
