16
Coordinates from ORCA-job run
  C   0.79338451553883      0.64686746039678      0.21591663030296
  C   -0.49364137651729      0.21250566964871     -0.47999365390266
  Br  0.45819753537010      1.06100405089433      2.11311823314702
  H   -0.18834445683980      0.05161887836169     -1.52407586972357
  H   1.08177797118703      1.60941515274365     -0.20972593158246
  C   1.92894617319025     -0.35500203944874      0.12666732879624
  H   2.10588205885260     -0.61109232099069     -0.92320617826892
  H   2.84778406323906      0.06671634727549      0.53639849370129
  H   1.70329960530283     -1.26954608203241      0.67607289416048
  N   -1.42440919716023      1.33859424904303     -0.49824245338961
  H   -2.22998894455550      1.10024041160697     -1.06558079370568
  H   -1.76046629434313      1.50803974234360      0.44402277138172
  C   -1.08367737372484     -1.09315216220436      0.05000157930184
  H   -1.37844853679139     -0.98625332770174      1.09618259432493
  H   -0.38548873736787     -1.93015281016401     -0.02982905322076
  H   -1.97480700538067     -1.35080321977232     -0.52872659132282
