16
Coordinates from ORCA-job run
  C   0.87059609706680      0.28204010451111     -0.52445562535085
  C   -0.66458405293375      0.17262471451400     -0.56422375413292
  Br  1.39669161368424      2.09202946171200     -1.09162532188925
  H   -0.97010941817481      0.45703436335347     -1.57718266425302
  H   1.29238198081554     -0.36491039638314     -1.29826781893859
  C   1.50754311406470     -0.01458574894860      0.81984213911112
  H   2.59097209102680      0.09837538693056      0.76789367501770
  H   1.28869488362797     -1.04227467343619      1.12214827547391
  H   1.13740022226140      0.66643755184966      1.58811700681439
  N   -1.39270399155537      1.03566616479882      0.35163467639825
  H   -1.12545468004446      2.00316415621569      0.21373582600331
  H   -1.18982423761796      0.78646883712325      1.31239278346831
  C   -1.09602538909406     -1.27182552755929     -0.32699479536702
  H   -0.91552643815388     -1.57583875919386      0.70772010286216
  H   -2.16679953432936     -1.35875661041904     -0.51585776288095
  H   -0.56525226064382     -1.96464902506842     -0.98487674233655
