16

C	-0.523122	0.022435	-1.406817
C	0.0	0.0	0.0
F	-0.115532	1.14775	-2.054354
H	1.094792	0.0	0.0
H	-0.347792	-0.931003	0.460714
N	0.058805	-1.167763	-2.166184
O	-0.339874	-2.266618	-1.779456
O	0.830251	-0.966836	-3.089346
N	-1.950133	-0.085212	-1.642198
H	-2.383965	0.707792	-1.183739
H	-2.268857	-0.926472	-1.176002
C	-0.465157	1.215382	0.792387
H	-1.552769	1.286321	0.932532
H	-0.113276	2.128491	0.30795
H	-0.000671	1.181195	1.780303
F	2.650966	0.0	0.0
