16

C	-0.126866	-0.262334	-1.485604
C	0.0	0.0	0.0
F	-1.284093	-0.965281	-1.866178
H	1.091762	0.0	0.0
H	-0.435681	0.95817	0.272712
N	-0.422108	1.074652	-2.281316
O	-1.080579	1.962809	-1.746009
O	-0.02048	1.116959	-3.444542
N	1.015112	-0.892819	-1.947282
H	1.132607	-0.81338	-2.946412
H	1.850102	-0.607871	-1.379648
C	-0.540811	-1.152714	0.831415
H	-0.069973	-2.087504	0.520328
H	-1.6254	-1.26526	0.742406
H	-0.293719	-0.990885	1.884412
F	2.756036	0.0	0.0
