16

C	-0.064254	-0.111246	-1.506002
C	0.0	0.0	0.0
F	-0.116435	-1.484259	-1.864644
H	1.096963	0.0	0.0
H	-0.445394	-0.879806	0.459727
N	-1.373964	0.347471	-2.180787
O	-2.402784	0.314019	-1.510104
O	-1.328773	0.649572	-3.371985
N	1.007741	0.566088	-2.05678
H	1.860208	0.405861	-1.462656
H	1.121635	0.379268	-3.040411
C	-0.493112	1.315307	0.575893
H	-0.113787	1.422832	1.594212
H	-0.089336	2.145107	-0.004145
H	-1.581527	1.392692	0.593279
F	2.758377	0.0	0.0
