16

C	-0.155419	-0.14271	-1.511431
C	0.0	0.0	0.0
F	-1.198519	-0.970035	-1.878341
H	1.095793	0.0	0.0
H	-0.32765	-0.963754	0.406634
N	-0.543977	1.23713	-2.090391
O	-1.730055	1.458545	-2.329055
O	0.364602	2.051185	-2.199223
N	1.04028	-0.570209	-2.150802
H	1.840998	-0.396005	-1.501958
H	0.960534	-1.559298	-2.341085
C	-0.681983	1.16612	0.688438
H	-0.499517	1.112086	1.764817
H	-1.764732	1.182424	0.52521
H	-0.265591	2.112844	0.338375
F	2.737821	0.0	0.0
