16

C	-0.147841	-0.276948	-1.497248
C	0.0	0.0	0.0
F	-1.15412	-1.168628	-1.805266
H	1.092844	0.0	0.0
H	-0.432519	0.958349	0.293403
N	-0.593369	1.044187	-2.17131
O	-1.758108	1.156831	-2.550202
O	0.258299	1.92206	-2.226924
N	1.067789	-0.697337	-2.097528
H	0.999067	-1.67666	-2.334001
H	1.86147	-0.510674	-1.44138
C	-0.504693	-1.158008	0.845205
H	-0.002828	-2.082162	0.547505
H	-0.252439	-0.978727	1.893727
H	-1.584667	-1.313152	0.766444
F	2.740801	0.0	0.0
