16

C	-0.148448	-0.20774	-1.502884
C	0.0	0.0	0.0
F	-1.269369	-0.952774	-1.867901
H	1.095694	0.0	0.0
H	-0.358213	-0.922846	0.465264
N	-0.487956	1.171318	-2.181994
O	0.453997	1.823065	-2.629883
O	-1.659592	1.542591	-2.183561
N	1.019236	-0.767725	-1.99851
H	1.847905	-0.499036	-1.416511
H	1.153525	-0.632221	-2.989038
C	-0.633469	1.233543	0.612876
H	-0.430957	1.242634	1.687299
H	-1.715587	1.280141	0.463077
H	-0.18912	2.141986	0.197762
F	2.75062	0.0	0.0
