16

C	-0.15384	-0.12614	-1.515219
C	0.0	0.0	0.0
F	-1.159538	-0.998785	-1.888688
H	1.090931	0.0	0.0
H	-0.333032	-0.967802	0.392116
N	-0.622222	1.241559	-2.083967
O	-1.803819	1.381662	-2.390717
O	0.229282	2.120324	-2.128013
N	1.058995	-0.479138	-2.15105
H	0.995105	-1.41643	-2.519306
H	1.857116	-0.370414	-1.483027
C	-0.682187	1.160186	0.698873
H	-0.218905	2.105943	0.41013
H	-0.56733	1.057282	1.780337
H	-1.752614	1.216626	0.476795
F	2.743957	0.0	0.0
