15

C	-0.529048	-0.068163	-1.441708
C	0.0	0.0	0.0
Br	-0.093391	1.634237	-2.333494
H	1.092966	0.0	0.0
H	-0.29704	-0.94268	0.481412
C	0.194289	-1.18402	-2.171708
H	-0.119417	-1.21122	-3.215649
H	-0.059637	-2.141668	-1.699646
H	1.273695	-1.040705	-2.09452
N	-1.96693	-0.231898	-1.567029
H	-2.215094	-1.120178	-1.139697
H	-2.436327	0.503319	-1.046611
C	-0.586388	1.089279	0.766117
N	-1.127619	1.951236	1.352311
Cl	3.372506	0.0	0.0
