15

C	-0.292071	-0.02743	-1.498094
C	0.0	0.0	0.0
Br	-2.251663	-0.317035	-1.81089
H	1.097232	0.0	0.0
H	-0.342614	-0.929608	0.458802
C	0.070408	1.292619	-2.160876
H	-0.090471	1.228075	-3.239929
H	1.132376	1.47307	-1.962509
H	-0.517352	2.12377	-1.767512
N	0.404956	-1.175626	-2.017049
H	1.364549	-1.141757	-1.668784
H	0.429746	-1.135815	-3.029732
C	-0.549544	1.149004	0.696489
N	-1.007234	2.075467	1.254253
Cl	3.330569	0.0	0.0
