15

C	-0.334841	-0.02726	-1.485651
C	0.0	0.0	0.0
Br	-2.316073	-0.026197	-1.749939
H	1.097646	0.0	0.0
H	-0.345361	0.930262	0.455397
C	0.20033	1.235531	-2.1497
H	1.282389	1.257002	-1.991322
H	-0.013744	1.218108	-3.220283
H	-0.242941	2.136968	-1.722816
N	0.169911	-1.258679	-2.031511
H	1.148675	-1.344786	-1.757351
H	0.110612	-1.241567	-3.043305
C	-0.518972	-1.137835	0.743811
N	-0.920918	-2.042052	1.374832
Cl	3.360187	0.0	0.0
