15

C	-0.28487	-0.008605	-1.508219
C	0.0	0.0	0.0
Br	-2.254279	-0.020098	-1.810879
H	1.096891	0.0	0.0
H	-0.369826	0.906966	0.48416
C	0.290502	1.248403	-2.131767
H	0.12939	1.228544	-3.210537
H	-0.172319	2.142099	-1.709437
H	1.364517	1.269069	-1.915037
N	0.261155	-1.164412	-2.180684
H	1.271986	-1.124429	-2.042588
H	-0.069533	-2.010036	-1.725561
C	-0.506883	-1.180422	0.681689
N	-0.909932	-2.138937	1.227857
Cl	3.339701	0.0	0.0
