15

C	-0.37636	0.236101	-1.470023
C	0.0	0.0	0.0
Br	-0.254048	-1.669592	-2.347888
H	1.092122	0.0	0.0
H	-0.374468	-0.953571	0.370523
C	-1.810417	0.64702	-1.729718
H	-1.980625	1.630146	-1.282668
H	-2.005986	0.700406	-2.803217
H	-2.499953	-0.076989	-1.290989
N	0.54906	1.122669	-2.013202
H	0.450337	1.261217	-3.010333
H	1.508627	0.901904	-1.750714
C	-0.497204	1.086733	0.838699
N	-0.935815	1.94482	1.510591
Cl	3.358893	0.0	0.0
