11
Coordinates from ORCA-job run
  C   -1.21502194836353     -0.24522440578192      0.13684503316076
  C   0.16891298737902      0.03047313072693     -0.43922237604100
  H   -1.38290069947320     -1.32258655116211      0.18201293013989
  H   0.29225752126040     -0.42021652853199     -1.42484981814017
  H   -1.29091554983845      0.18051189017951      1.13761123585641
  H   -1.97556334412283      0.20589004561530     -0.50149835367431
  N   1.18990851162802     -0.65440074589680      0.44325676232313
  O   1.61434391478724     -1.73159790221040      0.03878592819947
  O   1.45617487059389     -0.11070127884865      1.50785201524910
  C   0.47066019180659      1.45782502753119     -0.50063703335219
  N   0.67414354434285      2.61102731837894     -0.58015632372108
