13

C	0.0	0.0	0.0
C	-0.618571	0.011781	-1.384049
Br	1.952934	0.0	0.0
H	-0.405751	-0.923175	-1.915936
H	-0.277056	0.925015	0.508832
H	-1.724513	0.055719	-1.144745
C	-0.515857	-1.188693	0.783282
H	-0.214423	-2.127112	0.306311
H	-1.614439	-1.090161	0.7751
H	-0.141603	-1.178601	1.809656
C	-0.222125	1.143783	-2.207368
N	0.094873	2.059406	-2.875174
H	-3.180169	0.0	0.0
