13

C	0.0	0.0	0.0
C	-0.614232	-0.035806	-1.385916
Br	1.954218	0.0	0.0
H	-1.722274	-0.000422	-1.148057
H	-0.290106	0.947105	0.458036
H	-0.341734	0.846206	-1.972742
C	-0.497454	-1.152713	0.847223
H	-0.12257	-1.079463	1.870974
H	-1.595271	-1.070427	0.835768
H	-0.183664	-2.109883	0.422764
C	-0.284462	-1.235575	-2.138962
N	-0.029052	-2.201718	-2.757813
H	-3.169732	0.0	0.0
