13

C	0.0	0.0	0.0
C	-0.604489	-0.037925	-1.391618
Br	1.954122	0.0	0.0
H	-0.326648	0.842906	-1.977296
H	-0.294363	0.945896	0.457368
H	-1.711701	-0.004553	-1.166879
C	-0.494474	-1.157896	0.842776
H	-1.592434	-1.085575	0.826546
H	-0.167663	-2.11112	0.418867
H	-0.1251	-1.082609	1.868222
C	-0.262434	-1.238458	-2.13936
N	0.015379	-2.202991	-2.750565
H	-3.182907	0.0	0.0
