13

C	0.0	0.0	0.0
C	-0.623882	0.048184	-1.380407
Br	1.954354	0.0	0.0
H	-1.731011	0.07196	-1.128304
H	-0.287302	0.918123	0.51533
H	-0.35501	0.962862	-1.91668
C	-0.495706	-1.200017	0.780213
H	-0.115231	-1.18833	1.804344
H	-0.186151	-2.130822	0.298319
H	-1.593295	-1.115983	0.779226
C	-0.311996	-1.107148	-2.205914
N	-0.0745	-2.037636	-2.883758
H	-3.168158	0.0	0.0
