18

C	-0.425353	-0.02701	-1.471893
C	0.0	0.0	0.0
F	-0.201861	1.231969	-2.042444
H	1.100946	0.0	0.0
C	0.363516	-1.048804	-2.264026
H	1.424512	-0.821077	-2.135411
H	0.163019	-2.045248	-1.871839
H	0.089414	-0.99896	-3.320307
C	-1.883861	-0.265627	-1.565022
N	-3.044878	-0.436269	-1.61809
N	-0.425746	-1.273857	0.587521
H	-1.273497	-1.151231	1.128525
H	0.305833	-1.607321	1.202607
C	-0.521062	1.226224	0.732166
H	-0.139254	1.216666	1.756161
H	-1.617897	1.230255	0.766373
H	-0.181969	2.144458	0.251332
Cl	3.468697	0.0	0.0
