18

C	-0.518005	0.012366	-1.43581
C	0.0	0.0	0.0
F	-0.029591	-1.13261	-2.078414
H	1.101922	0.0	0.0
C	-2.032941	-0.032896	-1.550027
H	-2.394612	-0.851128	-0.92876
H	-2.47847	0.90461	-1.214218
H	-2.308362	-0.199387	-2.593268
C	-0.00606	1.184616	-2.17186
N	0.302149	2.147214	-2.770473
N	-0.50563	-1.23542	0.630326
H	0.011851	-2.001744	0.208894
H	-0.193658	-1.20791	1.595802
C	-0.485391	1.207669	0.785691
H	0.02498	1.228487	1.751898
H	-0.238683	2.14096	0.274963
H	-1.563526	1.16006	0.963611
Cl	3.477482	0.0	0.0
