18

C	-0.498544	0.007185	-1.441309
C	0.0	0.0	0.0
F	0.004895	-1.137344	-2.072697
H	1.101932	0.0	0.0
C	-2.010594	-0.045327	-1.571943
H	-2.461433	0.891781	-1.241942
H	-2.276094	-0.214235	-2.617251
H	-2.376075	-0.862638	-0.952051
C	0.017878	1.179341	-2.172296
N	0.384848	2.150904	-2.722182
N	-0.508957	-1.235115	0.626183
H	-0.219857	-1.203045	1.598978
H	0.020445	-2.000568	0.218621
C	-0.488849	1.208037	0.780851
H	0.006576	1.221572	1.755734
H	-1.570517	1.167896	0.942171
H	-0.226272	2.140928	0.277069
Cl	3.489082	0.0	0.0
