18

C	-0.506824	-0.044947	-1.440571
C	0.0	0.0	0.0
F	-0.004532	-1.208875	-2.03389
H	1.098097	0.0	0.0
C	-2.021286	-0.106141	-1.564262
H	-2.287121	-0.310875	-2.603248
H	-2.382989	-0.903955	-0.916968
H	-2.474994	0.840207	-1.265804
C	-0.003174	1.102446	-2.220227
N	0.315071	2.044472	-2.844413
N	-0.506681	-1.212231	0.673243
H	-0.208506	-1.144727	1.642308
H	0.021394	-1.990619	0.289024
C	-0.490761	1.236148	0.734994
H	-1.571569	1.199591	0.900792
H	-0.23284	2.149271	0.193674
H	0.007487	1.289651	1.706442
Cl	3.479665	0.0	0.0
