11

C	-0.549647	-0.015773	-1.421017
C	0.0	0.0	0.0
F	-0.157892	1.139673	-2.069328
H	1.092588	0.0	0.0
H	-1.645161	-0.021761	-1.41251
H	-0.328034	0.934264	0.465784
C	-0.107661	-1.185007	-2.200276
N	0.160131	-2.124483	-2.849907
C	-0.538338	-1.125784	0.752668
N	-1.006585	-2.035773	1.327777
Cl	3.31116	0.0	0.0
