11

C	-0.528653	-0.020936	-1.429372
C	0.0	0.0	0.0
F	-0.045327	1.059403	-2.13578
H	1.093038	0.0	0.0
H	-1.622612	0.053298	-1.446859
H	-0.326522	-0.908565	0.514867
C	-0.145228	-1.26272	-2.125196
N	0.101068	-2.252959	-2.705961
C	-0.533565	1.156646	0.707147
N	-1.003179	2.073172	1.270799
Cl	3.303216	0.0	0.0
