11

C	-0.452383	-0.080162	-1.444646
C	0.0	0.0	0.0
F	-1.800861	-0.427402	-1.526566
H	1.093895	0.0	0.0
H	0.120991	-0.865899	-1.942879
H	-0.310026	-0.928903	0.488537
C	-0.274289	1.182988	-2.177728
N	-0.17332	2.199539	-2.754953
C	-0.575972	1.131089	0.713198
N	-1.062872	2.031714	1.287181
Cl	3.287018	0.0	0.0
