11

C	-0.455055	-0.081833	-1.443608
C	0.0	0.0	0.0
F	-1.803923	-0.430759	-1.521427
H	1.09381	0.0	0.0
H	0.117311	-0.867997	-1.942766
H	-0.309709	-0.92818	0.490116
C	-0.281211	1.180336	-2.178266
N	-0.178821	2.195984	-2.756913
C	-0.574243	1.132051	0.713151
N	-1.059863	2.032122	1.289348
Cl	3.288268	0.0	0.0
