11

C	-0.465166	-0.057376	-1.446769
C	0.0	0.0	0.0
F	-0.147768	-1.27784	-2.007832
H	1.093252	0.0	0.0
H	0.057379	0.719173	-2.013445
H	-0.317445	0.952837	0.436009
C	-1.923465	0.139147	-1.580985
N	-3.081027	0.306966	-1.684894
C	-0.550409	-1.094988	0.788395
N	-1.016753	-1.965184	1.422855
Cl	3.314934	0.0	0.0
