11

C	-0.548742	-0.026167	-1.421439
C	0.0	0.0	0.0
F	-0.15584	1.124529	-2.077759
H	1.092618	0.0	0.0
H	-1.644243	-0.031285	-1.41344
H	-0.328412	0.937558	0.459061
C	-0.107304	-1.201032	-2.192465
N	0.160179	-2.145447	-2.835497
C	-0.538796	-1.120211	0.761097
N	-1.009618	-2.022003	1.347075
Cl	3.30944	0.0	0.0
