11

C	-0.54919	-0.033696	-1.421176
C	0.0	0.0	0.0
F	-0.156262	1.113333	-2.084305
H	1.092729	0.0	0.0
H	-1.644698	-0.038622	-1.412879
H	-0.327931	0.940184	0.454151
C	-0.108864	-1.212825	-2.186155
N	0.15842	-2.160223	-2.824658
C	-0.538405	-1.116254	0.767291
N	-1.005068	-2.019239	1.354978
Cl	3.309064	0.0	0.0
