11

C	-0.452138	-0.071305	-1.445086
C	0.0	0.0	0.0
F	-1.807029	-0.391867	-1.528234
H	1.093743	0.0	0.0
H	0.105972	-0.867974	-1.943123
H	-0.312799	-0.929258	0.485808
C	-0.247758	1.187503	-2.177798
N	-0.126898	2.196551	-2.76459
C	-0.573152	1.130808	0.716576
N	-1.060217	2.028475	1.295072
Cl	3.287748	0.0	0.0
