15

C	-0.287337	0.058186	-1.490909
C	0.0	0.0	0.0
Br	-0.244937	-1.814739	-2.125326
H	1.088993	0.0	0.0
H	-0.423345	-0.843115	0.532895
N	-1.724825	0.520062	-1.760104
O	-2.579608	0.079326	-1.001673
O	-1.920385	1.283494	-2.697755
N	0.62102	0.811502	-2.266053
H	0.414723	1.789034	-2.103966
H	1.546347	0.619748	-1.862526
N	-0.418211	1.218817	0.677672
O	-0.586748	1.159132	1.898375
O	-0.502725	2.263066	0.01506
H	2.6158	0.0	0.0
