15

C	-0.653896	0.02765	-1.347916
C	0.0	0.0	0.0
Br	0.161455	1.647823	-2.297799
H	1.088021	0.0	0.0
H	-0.27177	0.904048	0.546821
N	-0.249263	-1.115826	-2.274287
O	-1.058992	-1.398827	-3.15703
O	0.851134	-1.611111	-2.113895
N	-2.049552	0.075627	-1.314631
H	-2.369375	0.848605	-0.749372
H	-2.449081	0.099704	-2.243764
N	-0.454009	-1.127783	0.792472
O	-0.44384	-0.980864	2.022734
O	-0.712292	-2.194652	0.217748
H	2.545773	0.0	0.0
