15

C	-0.654011	0.02487	-1.348577
C	0.0	0.0	0.0
Br	0.132537	1.665554	-2.28776
H	1.08804	0.0	0.0
H	-0.273388	0.906018	0.542892
N	-0.234888	-1.099118	-2.293946
O	0.853532	-1.616102	-2.121643
O	-1.028328	-1.349648	-3.200075
N	-2.051899	0.050372	-1.311909
H	-2.454921	0.092949	-2.238651
H	-2.38525	0.801655	-0.723604
N	-0.453831	-1.124986	0.795863
O	-0.666952	-2.207738	0.228902
O	-0.48558	-0.95846	2.025744
H	2.541802	0.0	0.0
