15

C	-0.23876	-0.138775	-1.472673
C	0.0	0.0	0.0
Br	-2.167729	-0.564553	-1.963468
H	1.091098	0.0	0.0
H	-0.429268	0.90021	0.419892
N	-0.116313	1.316471	-2.087485
O	-0.497951	2.275365	-1.42946
O	0.356955	1.374175	-3.217187
N	0.641959	-1.013881	-2.063178
H	0.736928	-0.841259	-3.05451
H	1.545343	-0.956386	-1.565382
N	-0.443635	-1.131925	0.805558
O	-0.936309	-0.862542	1.908124
O	-0.219799	-2.272809	0.402001
H	2.603632	0.0	0.0
