15

C	-0.528592	-0.034606	-1.405839
C	0.0	0.0	0.0
Br	-0.335296	-1.907418	-2.071035
H	1.090171	0.0	0.0
H	-0.343853	-0.851519	0.577271
N	-2.10193	0.105489	-1.382948
O	-2.707319	-0.387058	-0.44066
O	-2.615442	0.692912	-2.332066
N	0.058546	0.851886	-2.29259
H	-0.544705	1.047568	-3.07964
H	0.336235	1.692978	-1.802441
N	-0.405041	1.186224	0.718235
O	-0.460364	2.267681	0.099073
O	-0.53455	1.092254	1.946629
H	2.530206	0.0	0.0
