15

C	-0.667498	0.023557	-1.362494
C	0.0	0.0	0.0
Br	-0.150416	1.731542	-2.192329
H	1.089207	0.0	0.0
H	-0.263171	0.902712	0.552158
N	-0.109516	-1.074555	-2.2868
O	-0.917328	-1.853166	-2.781771
O	1.09983	-1.083639	-2.45184
N	-2.094517	-0.070939	-1.410859
H	-2.341377	-1.031016	-1.193976
H	-2.469787	0.541653	-0.695809
N	-0.427284	-1.123908	0.770592
O	-0.373453	-1.030336	2.011019
O	-0.681481	-2.188255	0.1602
H	2.466722	0.0	0.0
