16
Coordinates from ORCA-job run
  C   -0.44375886383241     -0.14709636544367      0.43261512280356
  C   0.62156805541698     -0.29627923582007     -0.66733788811488
  Br  -0.41289104389719     -1.95122460448671      1.39298395411666
  H   0.34893054811750     -1.12020352841548     -1.32837794881440
  N   -0.18784223351765      0.94872460177017      1.26579330715024
  H   0.72790496445472      0.93240480443109      1.69393727758302
  H   -0.91380995618047      1.08488612327618      1.95596588811143
  C   -1.81883075282272     -0.03604400857279     -0.20381545082709
  H   -2.02690036100644     -0.88830773019409     -0.85089611533275
  H   -1.87355901205728      0.89281771685556     -0.77748682839984
  H   -2.58195347858434     -0.01069412652999      0.57645051476840
  N   1.98445743168778     -0.67108074228731     -0.12532850905712
  O   2.51000130590533     -1.66152043049890     -0.61469886926426
  O   2.45500039980438      0.05455454890186      0.74514095131031
  C   0.76054976976539      0.94436429641694     -1.42640340634969
  N   0.85013322674643      1.92369868059722     -2.06854199968362
