16
Coordinates from ORCA-job run
  C   -0.43659134113750     -0.05954285634367      0.52097774270180
  C   0.79286101315137      0.20364765677854     -0.40358265912933
  Br  -0.00822402881223     -1.60112420313720      1.65297413068109
  H   0.51029503015087      1.01226181034114     -1.08535310518888
  N   -0.68198643140361      1.05574133400832      1.39091980443396
  H   0.12659428100902      1.30712418416002      1.94709299326527
  H   -1.01760767565980      1.85904256705419      0.87164415283339
  C   -1.69178300106143     -0.35871553799140     -0.27811976048026
  H   -1.59556402076127     -1.26420440427134     -0.87264458907863
  H   -2.51842860104480     -0.46953178286499      0.42331074325667
  H   -1.90608675354462      0.47530244184453     -0.95517683223946
  N   1.12699031124390     -0.96110093781208     -1.30527927285498
  O   0.40936239866304     -1.07273028416020     -2.29595629866844
  O   2.04931391573733     -1.69743084755212     -0.97979824504096
  C   1.96755959366952      0.59456863120704      0.36350910334010
  N   2.87429530980020      0.97569222873922      1.00548209216867
