16
Coordinates from ORCA-job run
  C   -0.49968302472336     -0.21594043644727      0.45564836018857
  C   0.63057761930358     -0.36096030632572     -0.61210919897893
  Br  -0.57388991126516     -1.96552308883767      1.36499457821234
  H   0.37665137302734     -1.14102493995422     -1.33178755498816
  N   -0.31548164109156      0.79737965374100      1.43850543706045
  H   -0.51347669681689      1.71424310263162      1.05584954448792
  H   0.61398244512606      0.78380219711967      1.83782858002112
  C   -1.81815193356364      0.00156896222676     -0.26881796992118
  H   -2.61878416675260      0.03654145655641      0.47009068895907
  H   -2.02227250095361     -0.80249372156362     -0.97651977939880
  H   -1.79541380958292      0.95389665515962     -0.80856032868972
  N   1.94074355240598     -0.79248383207101     -0.00247405217196
  O   2.40625477645185     -1.85320214621182     -0.39839765971489
  O   2.42403001019580     -0.05060918517612      0.84783859430494
  C   0.83081993789286      0.92192069483955     -1.27608499123850
  N   0.93509397034628      1.97188493431282     -1.79300424813226
