16
Coordinates from ORCA-job run
  C   -0.52841940368473     -0.43401661823836      0.39369811464156
  C   0.81108721674735     -0.52667233488209     -0.40312272321269
  Br  -1.28771538787196     -2.25206960529713      0.18941642770858
  H   1.40865084772938     -1.34911910537851     -0.00620133490347
  N   -0.34547224117289     -0.18012122872809      1.78201615787851
  H   0.41060173729925     -0.70904226554183      2.19678542609569
  H   -0.23560112304336      0.80682235393040      1.97631630504684
  C   -1.50190871469406      0.56525987913727     -0.20014287871602
  H   -1.72125320689961      0.33694256562873     -1.24234786966995
  H   -2.42659674618483      0.53208941097679      0.37610971289474
  H   -1.08118013542727      1.57313365603226     -0.14814189126120
  N   1.61108217624664      0.72179139992965     -0.11503782166233
  O   2.42251787139270      0.63246207469197      0.80273906424523
  O   1.34836725282034      1.72974459832574     -0.76324684400589
  C   0.63126206763027     -0.66535605043719     -1.84022761574066
  N   0.48357778911278     -0.78284873014960     -2.99961222933894
