16
Coordinates from ORCA-job run
  C   -0.49190109312756     -0.33475809722080      0.37982860023917
  C   0.83760887940915     -0.52073344408875     -0.38180496356488
  Br  -1.36280664254995     -2.16630981442879      0.19497950547278
  H   1.38627590296452     -1.36878824279933      0.03207555348990
  N   -0.19645141925130      0.01299359114636      1.71055397603963
  H   0.38164256776326     -0.66452352830588      2.19210389340733
  H   -1.02994661159708      0.20341094664363      2.25061030394088
  C   -1.44129968730978      0.66307657871600     -0.25154840486223
  H   -0.99016381652885      1.65613616967077     -0.22233933310753
  H   -1.66633774722119      0.39703658665711     -1.28341588807334
  H   -2.37772860250668      0.67556667099461      0.30993246680001
  N   1.71663828223611      0.68734299499961     -0.11960755435791
  O   2.61003793152915      0.52594444000263      0.70308498456571
  O   1.44403586496727      1.71844628770839     -0.72180732373437
  C   0.65751069825651     -0.68051875464502     -1.81738287218438
  N   0.52388549296641     -0.80632238505054     -2.97726294407076
