16
Coordinates from ORCA-job run
  C   -0.46261741674614     -0.11399291179704      0.42168174040186
  C   0.62399041709504     -0.34229957215027     -0.64339673599689
  Br  -0.55460181515866     -1.89933566836203      1.41546963544866
  H   0.32596418133722     -1.16450428799228     -1.29553267957082
  N   -0.17261697936220      0.98257700115615      1.24154509029986
  H   0.72754252416646      0.92550422335034      1.69827799623909
  H   -0.91017808802956      1.17257064725096      1.90619520554755
  C   -1.81137253625760      0.05560594226070     -0.25657126730505
  H   -1.80080139074482      0.97428806148348     -0.84883049850075
  H   -2.04601813995004     -0.79729697418737     -0.89350188706997
  H   -2.59343975522056      0.13683410033603      0.50077122807472
  N   1.94950422199643     -0.77766302600680     -0.05500690088990
  O   2.43067053426569     -0.06272622779717      0.81840237468191
  O   2.43823036291369     -1.80000921235622     -0.51572616807065
  C   0.85052077669289      0.87306808864858     -1.42190131948438
  N   1.00522310300217      1.83837981616293     -2.07287581380526
