16
Coordinates from ORCA-job run
  C   -0.48029662040421     -0.28028669892628      0.43473412832347
  C   0.71524984532975     -0.60999489570824     -0.48382951589218
  Br  -1.58549003502450     -1.98875917091966      0.34468639132213
  H   1.20118976514945     -1.52687994069416     -0.14511169561469
  N   0.01285518082329      0.00047455827536      1.72193770845706
  H   -0.72030072360622      0.27792307804787      2.36092396191844
  H   0.55780723653586     -0.75188084188148      2.12462401729710
  C   -1.36859922238636      0.83837563767981     -0.07022966768201
  H   -0.79850953424997      1.76847618811725     -0.08975961979898
  H   -2.22213270562559      0.95287474888973      0.60106996240706
  H   -1.74674394035619      0.62332280851672     -1.06867018795146
  N   1.76141695374782      0.47643573005835     -0.32280219056712
  O   1.54807393424381      1.54534251752029     -0.88152382106940
  O   2.71987530917904      0.19053229971560      0.38477373516056
  C   0.34657781149597     -0.71648997901746     -1.88792344821822
  N   0.06102674514803     -0.80046603967370     -3.02389975809176
