16
Coordinates from ORCA-job run
  C   -0.42789885385405      0.08344971990006      0.42476953713161
  C   0.82843672467289      0.17851346096306     -0.47169514930661
  Br  -0.01948670298601     -1.23768887140113      1.88883307676633
  H   0.55551603872681      0.80029714060646     -1.32917815291159
  N   -0.66635163428592      1.39426893978695      0.91168427483194
  H   -1.55299096351981      1.44703380126202      1.39754091110828
  H   0.06737744815282      1.72302637767866      1.52909652960432
  C   -1.64867284083365     -0.43014865771522     -0.31642631258989
  H   -2.50378344558341     -0.42098459185446      0.36266101580273
  H   -1.50948382229826     -1.44552683877002     -0.67734098569759
  H   -1.85843735326221      0.22941678701300     -1.16230031891429
  N   1.23461325584682     -1.15394388228166     -1.05406385587664
  O   2.19730939832256     -1.73109941987065     -0.56620225647040
  O   0.53773245423017     -1.54298733374313     -1.98715625097445
  C   1.95325891608634      0.77713501755445      0.23503033867336
  N   2.81386138058490      1.32723835087160      0.81474759882289
