16
Coordinates from ORCA-job run
  C   -0.29920293714469      0.06405068684624      0.55819737240703
  C   0.77941022176332      0.29596508447108     -0.52707941235277
  Br  0.47505403251045     -0.93970863857565      2.04319387788591
  H   0.33387214232429      0.95081300800870     -1.28186861591696
  N   -0.60917156211746      1.39825978020404      1.04373983363542
  H   -0.95679034184341      1.36181617368159      1.99342660890421
  H   -1.32701416027927      1.81230595439970      0.45664803122280
  C   -1.49301462876437     -0.71098163893563      0.01894376233983
  H   -2.25990850005160     -0.75748753991148      0.79392785306035
  H   -1.90055776078571     -0.19267173466008     -0.85525728474230
  H   -1.23602348081937     -1.72828758107649     -0.27552301704580
  N   1.10759576601115     -0.97567806496655     -1.26847237760165
  O   0.40585312348222     -1.20660379658375     -2.25093084896753
  O   2.00157135845009     -1.68441586519038     -0.82277331383942
  C   1.99307152630041      0.90275952968853     -0.00129679434371
  N   2.98225520096393      1.40986464260013      0.37612432535458
