16
Coordinates from ORCA-job run
  C   -0.49298819206511     -0.21471617265675      0.46364430724193
  C   0.61932818103867     -0.36393099655422     -0.62058437332070
  Br  -0.55972429066485     -1.96922269389141      1.36841627254013
  H   0.35271235996237     -1.14405368304900     -1.33544976400718
  N   -0.29002140341133      0.79542822559022      1.44466481562496
  H   0.64892070197090      0.78807455854467      1.82089580731752
  H   -0.50997667450759      1.71240736200391      1.07528710221964
  C   -1.82179818379657      0.00871351144992     -0.24015635459922
  H   -2.04035586306714     -0.79336746040447     -0.94594298528885
  H   -2.61093865956392      0.04534077236759      0.51109113912939
  H   -1.80345919314253      0.96203851783026     -0.77855034580544
  N   1.93987328446098     -0.79909507522033     -0.03471456271629
  O   2.40966064155306     -1.84607674231329     -0.46122631748744
  O   2.43029832178718     -0.07108572983558      0.82347625321611
  C   0.81365454718387      0.91818521157726     -1.28820794984076
  N   0.91281442226199      1.97036039456120     -1.80164304422379
