16
Coordinates from ORCA-job run
  C   -0.43282879281191     -0.28400098421936      0.44678306601880
  C   0.65277971516837     -0.38327375906159     -0.64983346326671
  Br  -0.62528282518315     -2.07454661891857      1.25946562800153
  H   0.44642015210334     -1.24112493590805     -1.29194424568093
  N   0.01177238076635      0.60948005209745      1.47418546473323
  H   0.34040468611858      1.48967625307113      1.09164999838866
  H   -0.72556231155525      0.78099435929832      2.14617923062468
  C   -1.77501318606478      0.04779489460963     -0.20051269946615
  H   -2.55607323562217      0.01783297076287      0.56123476682368
  H   -2.03812345385650     -0.66489312266299     -0.98547501450122
  H   -1.73890068169238      1.05519224679555     -0.62389671965618
  N   2.02371313688600     -0.61954110766995     -0.05374708591428
  O   2.64302411884655      0.37101809097489      0.31566471369949
  O   2.38518550925156     -1.78757866350565      0.01412774370224
  C   0.69957159615969      0.84730655539080     -1.43519806117339
  N   0.68691319148569      1.83666376894551     -2.06868332233345
