16
Coordinates from ORCA-job run
  C   -0.43204891533624     -0.28336547954967      0.44762098453603
  C   0.64154690151713     -0.38588148361978     -0.66080633446949
  Br  -0.64269392619092     -2.07923284496015      1.24270736279634
  H   0.41689931727442     -1.23316854520674     -1.31067170367939
  N   0.03576715371757      0.59253766179056      1.48035432695487
  H   -0.69246289718255      0.76582291512530      2.16188314225917
  H   0.36948208978409      1.47312170373916      1.10301865807557
  C   -1.77545445555155      0.07524051214176     -0.18260201166006
  H   -1.72932809417520      1.08677345986281     -0.59514292446199
  H   -2.05624504683175     -0.62496845991195     -0.97275118829929
  H   -2.54955429121301      0.04757694702654      0.58639760651674
  N   2.01461129124375     -0.64804179535368     -0.08026103641121
  O   2.65205468222141      0.32955549174648      0.29260994405702
  O   2.35891722069791     -1.82190457487057     -0.02640227591074
  C   0.69796895021413      0.85333515961978     -1.43171991347741
  N   0.69154001981081      1.85159933242014     -2.05123463682616
