16
Coordinates from ORCA-job run
  C   -0.41745746486167      0.08000937942367      0.43569471356960
  C   0.78842659468994      0.21327449135671     -0.52331810272257
  Br  0.17461450045982     -1.06085486840362      1.98554803933174
  H   0.42270960405674      0.72682760504302     -1.41709343515386
  N   -0.76454104151551      1.40056523919759      0.81989969117572
  H   -1.63441826098615      1.41320781843347      1.33744502670485
  H   -0.04459949302190      1.85047668883856      1.37375112456700
  C   -1.60935384128908     -0.61055573740382     -0.20169030179907
  H   -2.43403829708995     -0.62319282806319      0.51399328525728
  H   -1.91583648888031     -0.05124790576700     -1.08932595962009
  H   -1.38444693322324     -1.63596212694263     -0.48260426448585
  N   1.30176875755930     -1.12130676401053     -1.00778174159995
  O   0.61096481979965     -1.65797494617671     -1.86943031900107
  O   2.33625501684626     -1.55675897858870     -0.51981164533968
  C   1.87433141909164      0.97677674764091      0.07716740539813
  N   2.69762110836447      1.65571618542225      0.56755648371783
