16
Coordinates from ORCA-job run
  C   -0.46980327287933     -0.11899949731046      0.41360624302561
  C   0.63328914161580     -0.33506456251076     -0.63676259977108
  Br  -0.57981095227611     -1.91541780695516      1.38425870639037
  H   0.34610305641829     -1.14964088113837     -1.30312178830864
  N   -0.19186628835533      0.96755022542151      1.25105131000643
  H   -0.93908291675095      1.14914856533441      1.90721390617028
  H   0.70184060245973      0.90524291842347      1.71974630207223
  C   -1.80737526571646      0.06074890734300     -0.28420999889507
  H   -1.78685478933407      0.98778166737381     -0.86294465623292
  H   -2.03144030748067     -0.78274304888687     -0.93731964177943
  H   -2.60193284700464      0.13082256264557      0.46106902732454
  N   1.94898510250392     -0.77689659478328     -0.03237136804904
  O   2.44156310612864     -1.79841499175564     -0.49111430048688
  O   2.41984003055559     -0.06902190816809      0.85249459359779
  C   0.87210458968820      0.88927608621398     -1.39763170240530
  N   1.04244101042737      1.85562835875287     -2.04296403265890
