16
Coordinates from ORCA-job run
  C   -0.49586806182132     -0.30688105729855      0.40494486975135
  C   0.65028304049736     -0.23397878378185     -0.65335347546133
  Br  -0.51317448734080     -2.18350321623350      1.01396248486636
  H   0.43618965775068     -0.89699287893418     -1.49322387096296
  N   -0.35992872306285      0.53667723277317      1.54379017999069
  H   -0.58423493057929      1.49725503586231      1.31279941386393
  H   0.56443211839848      0.48830037015655      1.95247223077534
  C   -1.81405795225573     -0.01933949961629     -0.29541110886944
  H   -2.62299433179755     -0.13597232121600      0.42583223983287
  H   -1.82171621169486      1.00954081732758     -0.66961237182782
  H   -1.98060709085011     -0.70162880982476     -1.12956621563997
  N   1.97041453128308     -0.70753148268196     -0.09848964113609
  O   2.41994865384770     -0.08514606861634      0.85983248158423
  O   2.47858391128409     -1.67839895988603     -0.64424051237955
  C   0.80526681658743      1.14652631893741     -1.09711031195279
  N   0.86846305975367      2.27107330303242     -1.43162639243482
