16
Coordinates from ORCA-job run
  C   -0.47787636490414     -0.46598982197996      0.37253145450025
  C   0.82303262471299     -0.49876495606114     -0.46517570670931
  Br  -1.44283281072783     -2.11173894579765     -0.12057882864962
  H   1.45894031019190     -1.29434724274592     -0.06309222535536
  N   -0.14306225726119     -0.61870722649762      1.76907849659931
  H   -0.98962094810902     -0.75109133874020      2.30976995247919
  H   0.33603707920061      0.21315821354413      2.09286050037283
  C   -1.35640356404159      0.72182889556198      0.00346002706943
  H   -2.30178888907365      0.65784206026835      0.54452349375067
  H   -1.57337966470866      0.75307926858283     -1.06639465953204
  H   -0.85566754935164      1.64828958787049      0.29926471786016
  N   1.63810486871767      0.78866266567319     -0.29595643393322
  O   2.20577866845499      1.23134826303636     -1.28425257883571
  O   1.69509764101269      1.25886986896982      0.83591447402495
  C   0.58869042638063     -0.68796005695062     -1.89161433343913
  N   0.39295042950623     -0.84347923473403     -3.03933835020239
