16
Coordinates from ORCA-job run
  C   -0.55111979489123     -0.43185151779722      0.36351828982591
  C   0.79824786738760     -0.53717616528913     -0.41456052132038
  Br  -1.37429746183774     -2.20712504876452      0.05857547171539
  H   1.35747931889259     -1.40000955375736     -0.04867992126516
  N   -0.38468477998551     -0.25270528993157      1.76582141261850
  H   0.34170489634971     -0.83191235420922      2.16638922181425
  H   -0.23815175177969      0.71842201545127      2.00953839342164
  C   -1.47533337677923      0.63172000027568     -0.19648415462735
  H   -1.01915902230997      1.61931845053199     -0.08633029143424
  H   -2.41166021178885      0.60473616811247      0.36096043031539
  H   -1.68222609135851      0.46393125630441     -1.25263991238786
  N   1.63904139103854      0.66472635925342     -0.05339575524225
  O   2.42987340222852      0.50113121801990      0.87209957275800
  O   1.42691147074913      1.71131237216575     -0.65738977565519
  C   0.63884408473241     -0.59971777498466     -1.85940652381062
  N   0.50453005935223     -0.65480013538122     -3.02501593672604
