16
Coordinates from ORCA-job run
  C   -0.46909044744576     -0.38608246581674      0.35833141101793
  C   0.85055326869148     -0.45022005226399     -0.44016701964078
  Br  -1.26802240706299     -2.23058126703561      0.03420077340892
  H   1.44149328177561     -1.30721936391180     -0.11165496841565
  N   -0.15977883409259     -0.13930723666455      1.70861510761228
  H   -0.98938735926813     -0.03235218795113      2.27727249055864
  H   0.45466078162604     -0.83107548858690      2.12007220090482
  C   -1.47142863424917      0.62045478004401     -0.16885731643390
  H   -1.70707770532099      0.43330053947819     -1.21558417737735
  H   -1.06045862740713      1.62561357668976     -0.06272604155279
  H   -2.39579112175736      0.54592994128146      0.40756658630308
  N   1.68523817388368      0.76626651521961     -0.08988178599679
  O   1.35749642324058      1.83323067384671     -0.59461908567542
  O   2.60108510634051      0.57299917691954      0.70067593722504
  C   0.64478528328554     -0.49416641717124     -1.88055796788022
  N   0.48672281776068     -0.52579072407732     -3.04368614405779
