16
Coordinates from ORCA-job run
  C   -0.38772335803506     -0.05566118744207      0.55883542027353
  C   0.75799332878540      0.18746872259150     -0.47239388100785
  Br  0.09682497768312     -1.62821205468765      1.62332104735545
  H   0.43986804409266      1.01806883061781     -1.11106940964336
  N   -0.51675315779652      1.05136240738844      1.46429662701308
  H   0.34754354133071      1.26811853329285      1.94649497075819
  H   -0.87149236846586      1.87351990831513      0.98866934373012
  C   -1.72060854248754     -0.30408755397966     -0.12338122733615
  H   -1.70929249513956     -1.20412954642791     -0.73377611863089
  H   -2.48150964993826     -0.39849084602444      0.65111566949804
  H   -1.96982039679184      0.54528192211469     -0.76871383115893
  N   0.96769263338594     -0.96926286685037     -1.42064345578381
  O   0.15663259787866     -1.03946913502282     -2.34051007780383
  O   1.89298001523004     -1.73922461232703     -1.19686830596983
  C   2.01128635802748      0.52712865682429      0.18728750684666
  N   2.98537847224062      0.86758882161724      0.74833572185956
