16
Coordinates from ORCA-job run
  C   -0.48340168173929     -0.01574685149140      0.48139336166012
  C   0.83314020959201      0.15490616838238     -0.33914119448733
  Br  -0.21637205106560     -1.50343311864600      1.72866640458661
  H   0.64376082936710      0.93291035244654     -1.08576494453878
  N   -0.76433854906975      1.15467551383930      1.26421500175117
  H   -1.02047934120897      1.93749102473739      0.67325432614788
  H   0.00032447014949      1.41105011584532      1.87740014696881
  C   -1.67191827808783     -0.31863990790490     -0.41266396857806
  H   -2.56235992586710     -0.35882422532659      0.21435363965233
  H   -1.79070421350286      0.47988087039570     -1.15287759409437
  H   -1.55864142182689     -1.26112416883678     -0.94325714058336
  N   1.20214085104097     -1.06865134159638     -1.14389349189996
  O   2.06269379778669     -1.81614655647993     -0.69722327867468
  O   0.57258437222091     -1.21123913506938     -2.18891603631189
  C   1.94805482380392      0.54951526178877      0.51089895482868
  N   2.80651610840719      0.93537599791595      1.21355581357284
