16
Coordinates from ORCA-job run
  C   -0.50724107117589     -0.28858374000063      0.39689527527346
  C   0.73298715653755     -0.60190978479475     -0.46668564224216
  Br  -1.62754825345193     -1.97599871060244      0.18264111044801
  H   1.18745538324356     -1.53791631119868     -0.13663478157931
  N   -0.08238909797687     -0.06276983102740      1.71879555571050
  H   -0.84607567140026      0.20188499410827      2.32670996944202
  H   0.42939375928339     -0.83768911579055      2.12219404249577
  C   -1.35183138119527      0.86096879394101     -0.11355994374928
  H   -1.67800175069812      0.68795796277474     -1.13819064643435
  H   -2.23911707322282      0.96417068657992      0.51443135601331
  H   -0.76908635240513      1.78232588480320     -0.06823688606959
  N   1.78257011879855      0.46194028106682     -0.20729674002469
  O   1.61445336672381      1.55399440178560     -0.73579452711516
  O   2.69640474243592      0.13545575936738      0.54054792541618
  C   0.44088405275301     -0.65118332815124     -1.89182384961105
  N   0.21714207175049     -0.68964794286126     -3.04399221797365
