16
Coordinates from ORCA-job run
  C   -0.44069109277234     -0.27693724981580      0.44818236236126
  C   0.64200091706857     -0.38669746601015     -0.64832308523615
  Br  -0.65477377782343     -2.08123255777583      1.24226454316070
  H   0.41681364529455     -1.23203467288173     -1.30024607562370
  N   0.00538228450898      0.60612060452863      1.47872465174392
  H   0.44859335877665      1.44034667569120      1.11266732051960
  H   -0.75114961093906      0.85365146869577      2.10305839440825
  C   -1.77898063449506      0.07044266938301     -0.19837205902390
  H   -2.05054834560544     -0.63856554987321     -0.98356751517175
  H   -2.56019009340750      0.04755809567512      0.56367471219541
  H   -1.73116215921290      1.07848922986239     -0.61914932405294
  N   2.00908416933548     -0.66104779378494     -0.05847466431998
  O   2.63381713176781      0.30827800448782      0.35675673465643
  O   2.36440932889201     -1.83255748035896     -0.04464413947224
  C   0.71680782847916      0.85288005911583     -1.41730488417487
  N   0.73058705013248      1.85330596306083     -2.03324697197004
