16
Coordinates from ORCA-job run
  C   -0.49515831852511     -0.31443097681035      0.39248921973178
  C   0.73865650310386     -0.56622200606454     -0.49977028175933
  Br  -1.58415525575445     -2.01456947098920      0.12358804229045
  H   1.21834124677138     -1.50379573455531     -0.21248880169562
  N   -0.05651969688830     -0.13449011979069      1.71686994065202
  H   -0.81742799235563      0.08636072420448      2.34535130907633
  H   0.47776904374769     -0.91406109895220      2.08020331909631
  C   -1.36957597744308      0.83754303052272     -0.05880424950395
  H   -0.80533061999614      1.76821157786914      0.01901328373956
  H   -2.25080175002004      0.89549841515179      0.58334042497379
  H   -1.70492020958014      0.70124956621531     -1.08598677364995
  N   1.76861652525623      0.51021626418950     -0.21536924634394
  O   2.69738822091090      0.17824690910339      0.51117303148897
  O   1.57301932430076      1.61501717172412     -0.70673701073151
  C   0.42599178792910     -0.56892131870181     -1.92130762415594
  N   0.18410716854297     -0.57485293311637     -3.07056458320897
