16
Coordinates from ORCA-job run
  C   -0.37073385224688      0.07320089794717      0.47719172270875
  C   0.76861594006967      0.18243490718149     -0.56273907287453
  Br  0.18024753746207     -1.31769710131069      1.82437077906113
  H   0.40778096671665      0.84497174450735     -1.35469110741532
  N   -0.51484045942549      1.36640468489299      1.04242274444169
  H   -1.33521129899975      1.41614362408866      1.63349527825369
  H   0.29585511110484      1.65195959370056      1.57988280299270
  C   -1.68559368672139     -0.38293040760186     -0.12847743234581
  H   -1.98190305211135      0.31868200349467     -0.91240037879161
  H   -1.61633765421027     -1.38301676223034     -0.54789054332946
  H   -2.44999068344708     -0.38940427565769      0.65133278582173
  N   1.06852422265002     -1.13165109741303     -1.24327920764446
  O   2.07017543003987     -1.74637549641159     -0.90177430680975
  O   0.25343764115186     -1.46802181585800     -2.09780452221367
  C   1.98525249964799      0.72857757373569      0.02403682827137
  N   2.92372133831926      1.23572192693461      0.51532362987357
