16
Coordinates from ORCA-job run
  C   -0.48521864422026     -0.42295215567069      0.36422363603833
  C   0.74922022560848     -0.57795771785517     -0.55631095764170
  Br  -1.51088105267118     -2.07305421990684      0.07878290834241
  H   1.24336990771046     -1.51871185787070     -0.31347097255658
  N   0.00609455087525     -0.45867440244572      1.72721692092198
  H   -0.75091220008397     -0.68542743267391      2.36122076979812
  H   0.36071880285133      0.45832883002547      1.98537365715073
  C   -1.38107715827063      0.75427438069738      0.01250882754864
  H   -0.83287604367378      1.68779093283803      0.15731028734309
  H   -2.24954104892997      0.74673483813378      0.67351510001010
  H   -1.72751183456080      0.71143462869506     -1.02098701906756
  N   1.75764164805024      0.50141801871098     -0.21850115719215
  O   1.47953954876519      1.64893890677089     -0.55801967209529
  O   2.75470531359932      0.14183992212617      0.39695092439777
  C   0.42661141300784     -0.48804988714203     -1.97365011139568
  N   0.16211657194250     -0.42493278443271     -3.11616314160219
