16
Coordinates from ORCA-job run
  C   -0.43146115672614     -0.02873562452719      0.52800219884357
  C   0.80165766181509      0.13700424055976     -0.41399899369404
  Br  -0.13105511142539     -1.62642459967341      1.62264086668995
  H   0.58543613511336      0.98289254111682     -1.07454726324119
  N   -0.55639115827246      1.08665343684950      1.42333967352251
  H   -0.82195747924489      1.92846117533680      0.92488325700220
  H   0.28139783237063      1.24925121995623      1.96926376241042
  C   -1.72246719766109     -0.19247226701797     -0.25306521216230
  H   -1.72225445884966     -1.09140303975307     -0.86505290427449
  H   -2.54407214250434     -0.23834927972449      0.46143018845255
  H   -1.86813119445492      0.67094983574299     -0.91120632697539
  N   1.00868873685765     -1.03466562810127     -1.34449717072802
  O   0.26683305068513     -1.05725343102144     -2.32327149936738
  O   1.86348353447826     -1.86083147765984     -1.05162987773685
  C   2.02086472688263      0.39910933524188      0.33826186898686
  N   2.97042822093613      0.67881356267469      0.97044743227160
