16
Coordinates from ORCA-job run
  C   -0.46428355729162     -0.10955788020030      0.42217389553461
  C   0.62464922093347     -0.34805194557263     -0.63821038552440
  Br  -0.56792626635551     -1.88816478931232      1.42498184032100
  H   0.32636092999021     -1.17421441737695     -1.28524843584023
  N   -0.17202489346291      0.99051107853773      1.23731941138062
  H   0.72631572293783      0.93063657146430      1.69719929896851
  H   -0.91098459545358      1.18535941408071      1.89903271249992
  C   -1.80989328718477      0.06320802338678     -0.26172311816382
  H   -2.59474419812025      0.14812508669135      0.49228083173261
  H   -2.04476635638315     -0.79035937899726     -0.89779103913504
  H   -1.79399441383138      0.98035673888437     -0.85611193093220
  N   1.94708347066452     -0.78242899627546     -0.04324775508851
  O   2.43228437848078     -1.81200347513429     -0.49185213258543
  O   2.42856494562121     -0.06334338874453      0.82671957456371
  C   0.85551187047008      0.86017201275972     -1.42707613004489
  N   1.01784702898506      1.81075534580879     -2.09744663768646
