16
Coordinates from ORCA-job run
  C   -0.49667939719005     -0.43163002127645      0.33732180885971
  C   0.74338256574434     -0.56306864243210     -0.57930966076326
  Br  -1.54746566057362     -2.04745273756142     -0.03828560730101
  H   1.21539878076070     -1.52591186230743     -0.38377854428968
  N   -0.01754124997788     -0.54217590201507      1.70089177089814
  H   -0.78040329204851     -0.79954478117238      2.31569494504364
  H   0.33742481650764      0.35882074674381      2.01004567585155
  C   -1.36926117698468      0.77695641438598      0.03747041172047
  H   -2.24367545509799      0.75176680085752      0.69011212557696
  H   -0.80633879683091      1.69225205444084      0.23299203385527
  H   -1.70698602945662      0.79165927877655     -0.99973716970499
  N   1.77192533384690      0.47367449776079     -0.17420725248065
  O   2.76184323754559      0.05699768972510      0.41590437994897
  O   1.51595691284230      1.64533095315763     -0.44049084436239
  C   0.43754467988160     -0.38769255198201     -1.99245729270365
  N   0.18587473103117     -0.24898193710137     -3.13116678014908
