16
Coordinates from ORCA-job run
  C   -0.55645992660158     -0.43672876657658      0.35031380647254
  C   0.72353979967019     -0.53370741445656     -0.53828467271081
  Br  -1.53338749783404     -2.09878501472630     -0.10353283710364
  H   1.23826608925895     -1.47242758478964     -0.32647023975391
  N   -0.27990260840290     -0.44849874043446      1.74630984270328
  H   0.42716052315108     -1.11992157938251      2.01594601011468
  H   -0.04508924848339      0.47201975832617      2.09438817665363
  C   -1.43220882561375      0.74963600690503     -0.00242818252887
  H   -2.32764254930942      0.71651333335651      0.61824486086473
  H   -1.72323073817602      0.73215521055568     -1.05182821866019
  H   -0.89457654930635      1.68175559243490      0.19137783154714
  N   1.67849315144668      0.55187061900664     -0.09946874288266
  O   1.50762401465895      1.67905331118633     -0.55254909531429
  O   2.51675010799932      0.21685814513173      0.73333894346866
  C   0.46001113398476     -0.39872148654035     -1.96275675833176
  N   0.24065312355753     -0.29007138999660     -3.11160072453851
