16
Coordinates from ORCA-job run
  C   -0.49455259049924     -0.21179648543748      0.46452049266379
  C   0.61831944769570     -0.36909112342272     -0.61935341450862
  Br  -0.56580590268659     -1.95590161032513      1.38343604169555
  H   0.35113526101041     -1.15481108955134     -1.32803324939056
  N   -0.28881138226281      0.80502296771829      1.44028358673015
  H   0.64548312468879      0.78318884011497      1.82850336910187
  H   -0.47779969103898      1.72204488893770      1.05254420769239
  C   -1.82237315390264      0.01168009396249     -0.24086315802225
  H   -1.80232195231966      0.96297499602291     -0.78240142203776
  H   -2.61200206250945      0.05238863019859      0.50936335102532
  H   -2.04138981404666     -0.79228979806591     -0.94421377741983
  N   1.93698033101134     -0.79925687376994     -0.02717701347365
  O   2.39119684054322     -1.86701197550269     -0.41711534051921
  O   2.43942552570641     -0.04762646416055      0.80385364328048
  C   0.81184043220071      0.90724290914507     -1.29814281408193
  N   0.90967558640945      1.95324209413573     -1.82420450273572
