14

C	0.0	0.0	0.0
C	-0.426592	-0.018764	-1.485795
Cl	1.794348	0.0	0.0
H	-1.476987	0.272282	-1.420609
H	-0.391849	-1.074191	-1.779771
N	-0.424727	1.275689	0.703675
O	-0.665301	2.2513	0.012977
O	-0.390645	1.24748	1.928694
C	-0.483632	-1.152415	0.748061
N	-0.601974	-2.170654	1.325653
N	0.390058	0.843327	-2.325812
H	1.020477	0.305863	-2.904161
H	-0.216571	1.387723	-2.922231
F	-2.44051	0.0	0.0
