14

C	0.0	0.0	0.0
C	-0.419818	-0.051848	-1.488756
Cl	1.764764	0.0	0.0
H	-0.131407	-1.056226	-1.817098
H	-1.508789	0.030024	-1.431137
N	-0.462619	1.269795	0.686521
O	-0.619742	2.258917	-0.015891
O	-0.518934	1.243268	1.907964
C	-0.504798	-1.152305	0.738357
N	-0.631541	-2.179111	1.298139
N	0.28391	0.925115	-2.321174
H	0.2421	0.596294	-3.279169
H	-0.230272	1.795765	-2.271166
F	-2.468581	0.0	0.0
