14

C	0.0	0.0	0.0
C	-0.444672	-0.071086	-1.508551
Cl	1.77099	0.0	0.0
H	-1.095057	0.782567	-1.656751
H	0.45353	0.037334	-2.122178
N	-0.409527	1.297785	0.673577
O	-0.571202	1.270356	1.884521
O	-0.423691	2.296484	-0.03283
C	-0.467477	-1.131732	0.789942
N	-0.592478	-2.139949	1.382358
N	-1.177028	-1.253177	-1.894152
H	-0.649635	-2.087389	-1.660336
H	-1.993891	-1.18962	-1.276574
F	-2.397831	0.0	0.0
