14

C	0.0	0.0	0.0
C	-0.43989	0.167967	-1.504701
Cl	1.784444	0.0	0.0
H	0.467823	0.314544	-2.096438
H	-1.042032	1.069146	-1.522662
N	-0.399449	1.168488	0.877555
O	-0.56612	0.937913	2.065669
O	-0.400918	2.271865	0.349008
C	-0.460631	-1.248385	0.592953
N	-0.591595	-2.346605	0.99259
N	-1.22893	-0.900077	-2.068469
H	-2.038888	-0.899665	-1.436147
H	-0.74406	-1.786856	-1.982502
F	-2.401913	0.0	0.0
