14

C	0.0	0.0	0.0
C	-0.239496	0.135171	-1.583335
Cl	1.788886	0.0	0.0
H	-0.025375	-0.883282	-1.929633
H	0.581425	0.766611	-1.924721
N	-0.419717	1.224406	0.771035
O	-0.457533	2.274285	0.140193
O	-0.576462	1.105026	1.977566
C	-0.500521	-1.211144	0.62435
N	-0.63617	-2.278491	1.099526
N	-1.451462	0.618244	-2.174828
H	-2.191331	0.25164	-1.553257
H	-1.475464	1.617754	-2.00985
F	-2.408091	0.0	0.0
