16

C	-0.502019	-0.008476	-1.426659
C	0.0	0.0	0.0
Br	0.040236	1.714099	-2.186851
H	1.088548	0.0	0.0
H	-0.359085	0.867594	0.550287
C	0.056029	-1.127346	-2.277243
H	-0.337113	-2.081444	-1.923489
H	-0.218338	-0.996604	-3.322865
H	1.145089	-1.109647	-2.167589
N	-2.032209	0.023193	-1.468069
O	-2.5822	-0.522616	-2.419743
O	-2.600606	0.626954	-0.563688
N	-0.472648	-1.196812	0.757224
O	-1.278739	-1.967904	0.226398
O	-0.037785	-1.312291	1.895444
Br	3.433099	0.0	0.0
