16

C	-0.463332	-0.035447	-1.440866
C	0.0	0.0	0.0
Br	-0.059719	1.734077	-2.175652
H	1.088572	0.0	0.0
H	-0.368467	0.873679	0.531244
C	0.211971	-1.082715	-2.291912
H	-0.102259	-2.071314	-1.959544
H	1.290207	-0.973927	-2.149409
H	-0.047103	-0.956475	-3.341415
N	-1.983412	-0.136954	-1.51279
O	-2.467475	-0.695115	-2.490424
O	-2.618523	0.381949	-0.600482
N	-0.469839	-1.173959	0.786149
O	-1.068028	-2.083097	0.206574
O	-0.232312	-1.143506	1.987317
Br	3.445204	0.0	0.0
