16

C	-0.583616	-0.003551	-1.406633
C	0.0	0.0	0.0
Br	0.207634	-1.40346	-2.489135
H	1.085523	0.0	0.0
H	-0.374511	0.875499	0.526732
C	-2.09718	-0.09988	-1.465804
H	-2.427351	-0.028825	-2.501478
H	-2.533481	0.715596	-0.880671
H	-2.433158	-1.045618	-1.043246
N	-0.224086	1.338119	-2.064918
O	-0.53309	1.469687	-3.24325
O	0.27374	2.202024	-1.352762
N	-0.520284	-1.168676	0.757184
O	0.0836	-2.233144	0.679098
O	-1.553316	-0.986721	1.414029
Br	3.490037	0.0	0.0
