16

C	-0.474408	-0.013404	-1.432789
C	0.0	0.0	0.0
Br	-0.020512	1.642144	-2.322371
H	1.088344	0.0	0.0
H	-0.34674	-0.907023	0.500065
C	0.192171	-1.173691	-2.156709
H	1.274775	-1.050674	-2.081822
H	-0.11371	-1.190297	-3.204481
H	-0.096942	-2.110893	-1.674588
N	-1.98686	-0.253496	-1.504361
O	-2.386451	-1.152155	-0.766887
O	-2.670452	0.360911	-2.308373
N	-0.548053	1.123044	0.804922
O	-1.62845	1.597958	0.453213
O	0.079727	1.454722	1.803846
Br	3.477083	0.0	0.0
