16

C	-0.445974	-0.015068	-1.443279
C	0.0	0.0	0.0
Br	0.039187	1.632937	-2.330436
H	1.088348	0.0	0.0
H	-0.352066	-0.905415	0.497371
C	0.239181	-1.175902	-2.150417
H	1.320909	-1.053044	-2.045497
H	-0.037119	-1.190667	-3.207387
H	-0.064034	-2.113535	-1.677389
N	-1.956484	-0.24851	-1.554851
O	-2.606826	0.337597	-2.408248
O	-2.388082	-1.117283	-0.798944
N	-0.553628	1.128444	0.790786
O	-1.59423	1.652476	0.389363
O	0.028551	1.414119	1.830865
Br	3.474257	0.0	0.0
