16

C	-0.501325	-0.015289	-1.425453
C	0.0	0.0	0.0
Br	0.038503	1.701464	-2.191482
H	1.088535	0.0	0.0
H	-0.354721	0.877476	0.537293
C	0.05964	-1.128332	-2.277402
H	1.147162	-1.107132	-2.170787
H	-0.328516	-2.082183	-1.921511
H	-0.219373	-0.996174	-3.321031
N	-2.028109	0.012327	-1.460188
O	-2.581057	-0.541596	-2.40439
O	-2.596053	0.620634	-0.557845
N	-0.483735	-1.167973	0.790606
O	-0.09253	-1.233025	1.947632
O	-1.257942	-1.969744	0.257639
Br	3.434263	0.0	0.0
