12

C	-0.532925	0.03986	-1.423552
C	0.0	0.0	0.0
Br	-0.028803	-1.548602	-2.411672
H	1.090967	0.0	0.0
H	-1.619249	0.099045	-1.437229
H	-0.083284	0.89115	-1.933832
N	-0.540432	-1.218428	0.707725
O	-1.757664	-1.388395	0.631909
O	0.252299	-1.935831	1.301387
C	-0.496314	1.172383	0.716626
N	-0.896302	2.136931	1.255139
Br	3.405255	0.0	0.0
