12

C	-0.486967	-0.255858	-1.420457
C	0.0	0.0	0.0
Br	-0.179939	1.296174	-2.54073
H	1.092334	0.0	0.0
H	-1.553772	-0.47397	-1.451301
H	0.084283	-1.0764	-1.845495
N	-0.367515	-1.182189	0.863972
O	-0.528931	-2.257566	0.288923
O	-0.420213	-1.005149	2.075274
C	-0.547506	1.2035	0.605522
N	-1.010593	2.179879	1.065846
Br	3.32054	0.0	0.0
