12

C	-0.37885	-0.103748	-1.456339
C	0.0	0.0	0.0
Br	-2.304473	-0.12567	-1.754489
H	1.093763	0.0	0.0
H	0.024008	0.758247	-1.985577
H	0.028774	-1.022633	-1.868942
N	-0.393568	-1.230706	0.768221
O	-0.379237	-2.290155	0.150178
O	-0.624628	-1.101217	1.96636
C	-0.516206	1.189394	0.656524
N	-0.925306	2.185024	1.126817
Br	3.305939	0.0	0.0
