11
Coordinates from ORCA-job run
  C   -0.37823301446163     -0.34757371315961     -0.13358695594655
  C   0.71911226257628      0.39113195570502      0.02853489439826
  H   -0.33149123113836     -1.17550423534158     -0.83644196821795
  H   0.83106710983621      1.24311906852039      0.68690602989477
  C   -1.65557222698628     -0.09640540828394      0.59867923309064
  H   -1.57837892180480      0.75788645198928      1.27282184534114
  H   -1.93825121905449     -0.97581242645787      1.18366577478734
  H   -2.46888614555651      0.09154370163927     -0.10750809599223
  N   1.94591141880230      0.10110657677803     -0.71323595461616
  O   1.95901382800218     -0.83973914732842     -1.50089411717101
  O   2.89570813978509      0.84924717593942     -0.47794068556824
