11
Coordinates from ORCA-job run
  C   -0.36044361595083     -0.32477009517149     -0.21473453288393
  C   0.70976319050505      0.38085043709506      0.15003463655681
  H   -0.24259178072782     -1.04183953355012     -1.02314746385410
  H   0.75310236108442      1.12859192949585      0.93160069074420
  C   -1.70122567897163     -0.17838809094680      0.42695251094037
  H   -2.44866298614491      0.11385963004590     -0.31566483112421
  H   -1.69377903425771      0.56772220977944      1.22288014540636
  H   -2.02771754032553     -1.13273516021136      0.84901620651942
  N   2.00049501307683      0.19913861409115     -0.51337863470671
  O   2.91563156752096      0.90860182939230     -0.09328854183230
  O   2.09542850419118     -0.62203177001992     -1.42027018576592
