11
Coordinates from ORCA-job run
  C   -0.39512096826105     -0.28710996410004     -0.20753173935056
  C   0.73993525659383      0.33215999826492      0.11559657496299
  H   -0.38774853353795     -0.93499998490817     -1.08033668818906
  H   0.89156184583478      1.00549773157518      0.94954602302345
  C   -1.66483035298002     -0.13446716850684      0.56418834281294
  H   -2.00416376140238     -1.10535322620339      0.93531834171491
  H   -1.54726471514750      0.53920287367585      1.41425479698583
  H   -2.45760651824823      0.25518225240925     -0.08016002930931
  N   1.95636513255756      0.14812752998161     -0.67546742492086
  O   1.92644401193150     -0.59336154627724     -1.65274649470916
  O   2.94242860265946      0.77312150408887     -0.28266170302117
