11
Coordinates from ORCA-job run
  C   -0.43499598734876     -0.03516516329291     -0.30229333599295
  C   0.78600808945162      0.04900233278442      0.22518181613615
  H   -0.51652008665109     -0.08806129575221     -1.38494293875610
  H   1.03015701977336      0.10832545243163      1.27813919154386
  C   -1.68464542780183     -0.06022543645409      0.51554980692910
  H   -2.33336806024309      0.77765264022259      0.24599183396981
  H   -1.47369584838914     -0.00467802938382      1.58451748780602
  H   -2.24938277565028     -0.97593204221765      0.32049804772836
  N   1.97839797889478      0.06997612700034     -0.62148591255523
  O   3.05143755303550      0.15256294764943     -0.02230008962187
  O   1.84660754492894      0.00654246701227     -1.83985590718715
