15

C	-0.330856	0.064572	-1.488656
C	0.0	0.0	0.0
F	-1.689034	0.349071	-1.682361
H	1.097659	0.0	0.0
H	-0.190662	-0.922331	-1.948643
N	0.444095	1.112021	-2.083888
H	0.47206	0.995428	-3.088435
H	1.398891	1.064143	-1.731118
C	-0.517016	-1.22832	0.590359
N	-0.971368	-2.199822	1.069283
C	-0.493202	1.233195	0.757612
H	-1.583666	1.281699	0.75849
H	-0.099242	2.127279	0.275132
H	-0.131807	1.202157	1.787089
Br	3.499662	0.0	0.0
