15

C	-0.385729	0.024006	-1.490552
C	0.0	0.0	0.0
F	-0.256842	1.339541	-1.92579
H	1.09617	0.0	0.0
H	-1.438541	-0.251464	-1.634198
N	0.436851	-0.808734	-2.310784
H	0.133114	-1.770682	-2.253446
H	1.40266	-0.753807	-1.993502
C	-0.452672	-1.282805	0.532878
N	-0.867971	-2.310207	0.923371
C	-0.544683	1.166435	0.817653
H	-1.637308	1.213187	0.771256
H	-0.132635	2.094455	0.424591
H	-0.240868	1.068129	1.861399
Br	3.517496	0.0	0.0
