15

C	-0.373396	-0.062085	-1.481702
C	0.0	0.0	0.0
F	-0.17564	1.236464	-2.021732
H	1.097745	0.0	0.0
H	-1.439912	-0.259474	-1.641292
N	0.416261	-1.042362	-2.115434
H	0.281995	-1.038088	-3.117042
H	1.399101	-0.906541	-1.889175
C	-0.482895	-1.212081	0.655804
N	-0.903213	-2.147214	1.2292
C	-0.518328	1.246709	0.711543
H	-0.085671	2.129308	0.243434
H	-1.609729	1.312192	0.661292
H	-0.215594	1.225899	1.759906
Br	3.527579	0.0	0.0
