15

C	-0.46143	0.055318	-1.44963
C	0.0	0.0	0.0
F	0.017821	-1.087812	-2.107572
H	1.09464	0.0	0.0
H	0.012528	0.908176	-1.942274
N	-1.878959	0.157685	-1.567203
H	-2.308074	-0.655106	-1.13728
H	-2.138359	0.170024	-2.545898
C	-0.52127	-1.213666	0.623877
N	-1.024701	-2.159141	1.106738
C	-0.445999	1.242127	0.777434
H	-0.020302	1.216169	1.781947
H	-0.05686	2.131436	0.275648
H	-1.532488	1.316709	0.836083
Br	3.53452	0.0	0.0
