15

C	-0.383202	-0.057033	-1.478346
C	0.0	0.0	0.0
F	-0.158459	1.233735	-2.021865
H	1.097773	0.0	0.0
H	-1.45518	-0.23236	-1.629751
N	0.378366	-1.058789	-2.117803
H	0.228574	-1.052591	-3.119032
H	1.368633	-0.935385	-1.909475
C	-0.488696	-1.210968	0.652835
N	-0.941785	-2.162936	1.170792
C	-0.512583	1.248738	0.713549
H	-0.204149	1.228418	1.760344
H	-1.604391	1.315375	0.669433
H	-0.081186	2.130673	0.242884
Br	3.54383	0.0	0.0
