15

C	-0.455683	-0.016008	-1.452992
C	0.0	0.0	0.0
F	-1.856504	-0.283506	-1.479442
H	1.095033	0.0	0.0
H	0.010077	-0.848846	-1.982811
N	-0.156028	1.192383	-2.120984
H	-0.666463	1.966771	-1.718289
H	-0.378332	1.122033	-3.104308
C	-0.467461	-1.219468	0.659035
N	-0.860639	-2.183113	1.203016
C	-0.478866	1.234887	0.767742
H	-1.56225	1.36042	0.689747
H	-0.212152	1.139823	1.821036
H	0.032503	2.119774	0.384855
Br	3.561115	0.0	0.0
