16

C	-0.628432	0.011373	-1.375021
C	0.0	0.0	0.0
Br	0.046198	-1.532606	-2.356318
H	1.087505	0.0	0.0
H	-1.701212	-0.153118	-1.277285
C	-0.291224	1.28504	-2.12668
H	0.787741	1.447085	-2.141181
H	-0.77689	2.135242	-1.639294
H	-0.665014	1.223621	-3.149271
N	-0.467164	-1.191667	0.791519
O	0.243784	-1.497676	1.76001
O	-1.569435	-1.651519	0.54371
N	-0.491841	1.235359	0.707305
O	-1.706181	1.30986	0.892754
O	0.33079	2.106201	0.966893
Br	3.296541	0.0	0.0
