16

C	-0.414362	-0.026415	-1.454922
C	0.0	0.0	0.0
Br	-2.364698	-0.10605	-1.690662
H	1.090913	0.0	0.0
H	-0.127203	0.943525	-1.86144
C	0.262319	-1.154195	-2.213742
H	0.081444	-1.038766	-3.283845
H	-0.111566	-2.127998	-1.897377
H	1.337359	-1.108618	-2.012054
N	-0.516475	-1.183054	0.743702
O	-1.568689	-1.064917	1.365313
O	0.135031	-2.217204	0.614375
N	-0.396053	1.244549	0.729111
O	-0.24208	1.229977	1.94386
O	-0.751124	2.211005	0.058562
Br	3.347736	0.0	0.0
