16

C	-0.441713	-0.009856	-1.447587
C	0.0	0.0	0.0
Br	-2.379947	-0.266582	-1.63909
H	1.090728	0.0	0.0
H	-0.26436	0.997316	-1.82216
C	0.314803	-1.034716	-2.272659
H	1.385464	-0.89558	-2.09617
H	0.047549	-2.050154	-1.986227
H	0.088532	-0.891045	-3.33084
N	-0.493177	-1.195597	0.743362
O	0.078098	-2.248251	0.475253
O	-1.44652	-1.065342	1.506459
N	-0.408128	1.227504	0.75305
O	-0.971036	2.13168	0.140458
O	-0.080783	1.254379	1.933744
Br	3.350414	0.0	0.0
