16

C	-0.378221	0.028535	-1.46188
C	0.0	0.0	0.0
Br	-2.292622	0.327598	-1.77836
H	1.090256	0.0	0.0
H	0.096922	0.932559	-1.844144
C	0.139203	-1.186649	-2.207778
H	-0.411131	-2.082964	-1.927746
H	1.198911	-1.307894	-1.960871
H	0.041289	-1.031093	-3.283367
N	-0.459117	-1.17869	0.784431
O	-1.350644	-1.891571	0.320641
O	0.103353	-1.344297	1.861431
N	-0.473139	1.237729	0.696356
O	-1.194904	1.128283	1.68181
O	-0.09929	2.28753	0.186969
Br	3.334876	0.0	0.0
