16

C	-0.551741	0.009494	-1.414617
C	0.0	0.0	0.0
Cl	0.120926	1.51674	-2.21905
H	1.088634	0.0	0.0
N	-0.103371	-1.194766	-2.01068
H	-0.441907	-1.298234	-2.962286
H	0.912666	-1.263732	-1.971171
C	-2.010105	0.095892	-1.559466
N	-3.162211	0.09803	-1.791174
N	-0.481242	-1.245897	0.686405
O	-1.655578	-1.249466	1.063291
O	0.349736	-2.124782	0.872611
N	-0.481207	1.125933	0.854811
O	0.183546	1.314857	1.869765
O	-1.392434	1.849317	0.429455
F	2.498768	0.0	0.0
