16

C	-0.531693	0.044228	-1.444131
C	0.0	0.0	0.0
Cl	-0.166681	-1.585639	-2.132321
H	1.090025	0.0	0.0
N	-1.931027	0.311653	-1.672115
H	-2.103269	1.279472	-1.423896
H	-2.463355	-0.281624	-1.044555
C	0.260534	1.011207	-2.216217
N	0.804438	1.804503	-2.889166
N	-0.543464	-1.185483	0.71894
O	-1.775515	-1.274356	0.798547
O	0.247736	-2.000435	1.175437
N	-0.444736	1.173574	0.767739
O	-0.67747	2.211478	0.139957
O	-0.482166	1.068929	1.992709
F	2.438774	0.0	0.0
