16

C	-0.521277	0.038254	-1.434412
C	0.0	0.0	0.0
Cl	-0.00157	-1.567783	-2.198394
H	1.087976	0.0	0.0
N	-1.914762	0.286361	-1.522024
H	-2.413601	-0.427638	-1.005812
H	-2.223812	0.318974	-2.484913
C	0.195425	1.046004	-2.227241
N	0.686443	1.792651	-2.989373
N	-0.519117	-1.15489	0.777487
O	-1.587388	-1.681826	0.447601
O	0.15528	-1.496186	1.741647
N	-0.471585	1.220481	0.705246
O	-0.105296	2.28381	0.215496
O	-1.166178	1.099523	1.714601
F	2.445366	0.0	0.0
