16

C	-0.551199	0.022019	-1.43621
C	0.0	0.0	0.0
Cl	0.192142	-1.361129	-2.306344
H	1.087439	0.0	0.0
N	-1.986292	-0.038503	-1.625665
H	-2.315971	-0.857457	-1.128522
H	-2.405184	0.784185	-1.204469
C	-0.064775	1.239125	-2.10433
N	0.242442	2.207579	-2.693676
N	-0.461094	-1.158675	0.798329
O	0.001219	-1.221379	1.933419
O	-1.233888	-1.989166	0.30804
N	-0.517199	1.20463	0.7039
O	-1.564503	1.099068	1.351422
O	0.114368	2.24578	0.548292
F	2.444828	0.0	0.0
