16

C	-0.443195	-0.021738	-1.453389
C	0.0	0.0	0.0
Cl	-2.25731	-0.55949	-1.570144
H	1.089669	0.0	0.0
N	-0.214209	1.213703	-2.089497
H	-0.353764	1.144362	-3.087546
H	-0.784766	1.93935	-1.678469
C	0.279993	-1.055972	-2.204517
N	0.79993	-1.798565	-2.95147
N	-0.446106	-1.220655	0.7089
O	-1.108927	-1.121987	1.738248
O	-0.095047	-2.274616	0.186169
N	-0.463756	1.175308	0.762735
O	0.067119	1.337448	1.856306
O	-1.321607	1.927974	0.282994
F	2.423415	0.0	0.0
