16

C	-0.550078	0.017303	-1.437224
C	0.0	0.0	0.0
Cl	0.178391	-1.388389	-2.290394
H	1.087634	0.0	0.0
N	-1.983343	-0.019506	-1.627768
H	-2.384629	0.849328	-1.290174
H	-2.344708	-0.788466	-1.074736
C	-0.043602	1.218318	-2.119218
N	0.25993	2.172495	-2.732969
N	-0.469073	-1.153827	0.801704
O	0.004063	-1.228303	1.931151
O	-1.265258	-1.966344	0.320991
N	-0.516749	1.209109	0.695947
O	0.101506	2.253329	0.509546
O	-1.55	1.10485	1.366085
F	2.444717	0.0	0.0
