16

C	-0.174717	-0.023044	-1.523998
C	0.0	0.0	0.0
Cl	0.240692	1.689746	-2.132203
H	1.088631	0.0	0.0
N	0.763438	-0.984208	-1.950827
H	0.867849	-0.992518	-2.95587
H	1.658988	-0.798286	-1.456628
C	-1.518933	-0.288521	-2.040879
N	-2.571588	-0.569455	-2.481476
N	-0.521538	-1.278088	0.577663
O	-1.722984	-1.309006	0.859303
O	0.272451	-2.199047	0.725312
N	-0.68938	1.079976	0.727956
O	-0.284412	1.277813	1.874528
O	-1.629018	1.662885	0.188496
F	2.538836	0.0	0.0
