15

C	0.0	0.0	0.0
C	-0.539662	0.12837	-1.416763
F	1.386145	0.0	0.0
H	-1.643504	0.108563	-1.245784
H	-0.118098	-0.658716	-2.047029
C	-0.466805	1.11981	0.910252
H	-0.016236	2.058729	0.576572
H	-1.558717	1.123211	0.833411
H	-0.132034	0.909563	1.93025
C	-0.423531	-1.316037	0.521455
N	-0.576997	-2.385975	0.98161
N	-0.095133	1.409875	-2.01468
O	-0.839734	2.386458	-1.912068
O	1.005427	1.426416	-2.574733
F	-2.764856	0.0	0.0
