15

C	0.0	0.0	0.0
C	-0.530835	0.041228	-1.426514
F	1.385933	0.0	0.0
H	-1.634296	0.00164	-1.281658
H	-0.073255	-0.755105	-2.0151
C	-0.453578	1.189048	0.826956
H	-0.11429	1.055165	1.856959
H	-1.545619	1.202091	0.752529
H	0.010114	2.092145	0.421602
C	-0.434024	-1.271915	0.608652
N	-0.589288	-2.307724	1.139778
N	-0.123819	1.316295	-2.070728
O	1.006214	1.375872	-2.565993
O	-0.927453	2.249852	-2.064812
F	-2.761912	0.0	0.0
