15

C	0.0	0.0	0.0
C	-0.612797	0.075911	-1.373204
F	1.389124	0.0	0.0
H	-0.401509	1.035246	-1.844292
H	-1.729154	-0.027748	-1.117102
C	-0.469414	1.214245	0.789096
H	-0.070024	1.162708	1.804297
H	-1.563516	1.166922	0.776125
H	-0.091166	2.11858	0.302651
C	-0.400141	-1.222176	0.732709
N	-0.576479	-2.155873	1.421946
N	-0.145168	-0.955902	-2.311999
O	0.179012	-2.059275	-1.872925
O	-0.143111	-0.659355	-3.509538
F	-2.834251	0.0	0.0
