14

C	0.0	0.0	0.0
C	-0.260299	0.032172	-1.551192
F	1.401995	0.0	0.0
H	0.617656	0.517218	-1.989878
H	-0.343585	0.949293	0.408704
N	-0.527298	-1.060374	0.747004
H	-0.468875	-1.936083	0.244206
H	-1.51996	-0.843217	0.871024
N	-1.382276	0.931318	-2.021602
O	-1.37395	2.055995	-1.540057
O	-2.093483	0.525505	-2.928319
C	-0.379516	-1.305085	-2.110682
N	-0.36669	-2.41273	-2.499537
Cl	-3.450345	0.0	0.0
