14

C	0.0	0.0	0.0
C	-0.280819	0.13072	-1.522707
F	1.401997	0.0	0.0
H	-0.075373	-0.850258	-1.956028
H	-0.310077	0.902813	0.533472
N	-0.487295	-1.241707	0.48672
H	-1.506895	-1.190097	0.367896
H	-0.320552	-1.272275	1.487446
N	0.798879	1.044927	-2.082313
O	0.809846	2.198019	-1.669503
O	1.569062	0.563715	-2.907432
C	-1.513356	0.683152	-2.089543
N	-2.214363	1.196611	-2.883927
Cl	-3.378057	0.0	0.0
