14

C	0.0	0.0	0.0
C	-0.175747	-0.134674	-1.543868
F	1.402031	0.0	0.0
H	0.43108	-1.001512	-1.817387
H	-0.370156	0.956691	0.358745
N	-0.489031	-1.059266	0.783864
H	-1.494143	-0.898232	0.895892
H	-0.35847	-1.949702	0.318864
N	0.547802	1.028981	-2.193427
O	0.246587	2.152927	-1.809562
O	1.374139	0.758972	-3.059776
C	-1.445512	-0.257099	-2.256634
N	-2.212486	-0.435847	-3.131378
Cl	-3.357409	0.0	0.0
