14

C	0.0	0.0	0.0
C	-0.430076	0.050335	-1.492051
F	1.398306	0.0	0.0
H	-1.520572	-0.100803	-1.492753
H	-0.352059	0.931058	0.447172
N	-0.468715	-1.087934	0.768466
H	-1.471612	-0.941085	0.895769
H	-0.349694	-1.952131	0.253414
N	0.218037	-1.07346	-2.242502
O	1.076955	-0.812832	-3.079943
O	-0.151345	-2.206133	-1.935529
C	-0.068109	1.318431	-2.109108
N	0.191565	2.371332	-2.558968
Cl	-3.413548	0.0	0.0
