14

C	0.0	0.0	0.0
C	-0.276909	0.114233	-1.524678
F	1.402062	0.0	0.0
H	-0.049099	-0.867899	-1.943297
H	-0.313928	0.906041	0.525528
N	-0.488734	-1.237796	0.492657
H	-1.509412	-1.184087	0.374351
H	-0.321987	-1.265167	1.494149
N	0.785513	1.043426	-2.08648
O	1.556289	0.576264	-2.918335
O	0.783067	2.195603	-1.671687
C	-1.518639	0.626714	-2.107459
N	-2.233998	1.10023	-2.914284
Cl	-3.370426	0.0	0.0
