13
Coordinates from ORCA-job run
  C   0.06355120062299     -1.03890894481916     -0.63078691216715
  C   -0.43528299229932      0.38020690530207     -0.34511818277114
  F   0.34063410318799     -1.14690151391670     -1.97214406433501
  H   -1.29433633016128      0.57018913800162     -0.99160851257214
  H   -0.71288909431967     -1.76328182466903     -0.37908382290261
  C   1.27774347345909     -1.31285590098296      0.15112294819575
  N   2.24101624189734     -1.49218096086984      0.79755920957034
  N   0.56628859107634      1.34783098988502     -0.52382840766968
  H   0.19721522022573      2.28772961219076     -0.50931482232055
  H   1.30813765304039      1.26732007340485      0.15987533536972
  N   -1.03867243912030      0.32083866413048      1.07810693797450
  O   -0.50456910156611      0.99828040894018      1.94871133598453
  O   -2.01083652604320     -0.41626664659728      1.21750895764344
