13
Coordinates from ORCA-job run
  C   0.19451683356406     -1.08641636465876     -0.05596480948306
  C   -0.20785111588533      0.37305137638202     -0.23378931439690
  F   -0.91253900477143     -1.88552426217164     -0.24516967101213
  H   -0.58456877085088      0.54665654693059     -1.24181452699027
  H   0.55577770696472     -1.24320051130573      0.96490074694219
  C   1.23590292269412     -1.44076250449460     -1.02491434337831
  N   2.05636273894352     -1.74371539542403     -1.80710454111020
  N   0.88986853948519      1.21432755160708      0.07244963321767
  H   0.73822576333142      2.16889371210417     -0.22201139553481
  H   1.10976763933936      1.18779665402392      1.06042235083850
  N   -1.40998814239184      0.58098922975004      0.68229676253102
  O   -1.18228363703228      0.46109819339755      1.88481806596613
  O   -2.48419147339060      0.86680577385937      0.16588104241018
