13
Coordinates from ORCA-job run
  C   0.32645783851831     -0.99600467906229      0.10448660436319
  C   -0.40631195635248      0.31582303564198     -0.19478083704444
  F   -0.60571428633085     -2.01200348081720      0.10591816580399
  H   -0.97840310459987      0.18675793283589     -1.11300792071642
  H   0.79007752844827     -0.96745320742192      1.09386010758015
  C   1.35321711931755     -1.23830165943905     -0.92155660043847
  N   2.21391064301251     -1.38819367353205     -1.70528464438475
  N   0.40557402672204      1.48923635221019     -0.26370168703069
  H   0.88336670471449      1.59522146490318     -1.14892869068611
  H   1.04387940781745      1.59142566207435      0.51944684594770
  N   -1.43212470054579      0.44703666088360      0.90277969732591
  O   -2.57649402262083      0.09832386895778      0.64491816790846
  O   -1.01743519810080      0.87913172276554      1.97385079137148
