14
Coordinates from ORCA-job run
  C   -0.59694777984177     -0.26537932411371     -0.02056496406718
  C   0.50806026593915      0.17317992989017     -0.96281557644632
  Br  -2.23190805603878     -0.67641874859524     -1.11852851473153
  H   0.13341781731107      0.97967078969395     -1.59047782492495
  H   0.74177956071277     -0.68310703895005     -1.61338841633909
  N   -1.02443508631433      0.91898661834261      0.84364544022103
  O   -1.09864704729149      2.00276895830061      0.28865762985306
  O   -1.29334592511594      0.67795146009566      2.01487404902923
  N   -0.18943137454651     -1.30880288148453      0.81886904055122
  H   -0.82652158989190     -1.44616098573412      1.59280481365926
  H   -0.06127579354807     -2.16663881461277      0.29893501053028
  N   1.59914714629648      0.66318106318537     -0.14190729288384
  H   2.23192787310928      1.23326533910420     -0.68531231630241
  H   2.10817998922003     -0.10249636512214      0.27620892185125
