14
Coordinates from ORCA-job run
  C   -0.59795103109146     -0.27701478089728      0.03553581859949
  C   0.52423344504426      0.06957388287231     -0.93410967723229
  Br  -2.23553030422194     -0.61255083653426     -1.12282817348030
  H   0.68028454096766     -0.82067410304286     -1.55005008641612
  H   0.15630700639815      0.86040958551091     -1.59364133418563
  N   -1.02155924017536      0.94254626364425      0.85200059316203
  O   -1.72625682455742      0.72464286638472      1.82729765216675
  O   -0.62482316577960      2.03967033660605      0.47251455183996
  N   -0.29949972374741     -1.28330513211849      0.93522501834462
  H   -1.07581383323200     -1.56102436490635      1.51761790541156
  H   0.19015873442147     -2.06275432012930      0.52420773103103
  N   1.74796832396482      0.38172452239542     -0.21730081203045
  H   1.73313696148295      1.34923601326740      0.07732365474225
  H   2.54634511052589      0.24852006694749     -0.82279284195291
