14
Coordinates from ORCA-job run
  C   -0.65493236205517     -0.35365450389334     -0.14946885257467
  C   0.54771533200802      0.10619819593060     -0.95850071969108
  Br  -2.18392233264850     -0.64947206546494     -1.32096384688691
  H   0.81514941103604     -0.73258157444860     -1.60343810071508
  H   0.26223272823828      0.95341418948550     -1.58412070977917
  N   -1.10400335253433      0.83596337575110      0.75744291944647
  O   -1.66845462622489      0.53868690224249      1.80277795595388
  O   -0.86526874938996      1.97388375296769      0.36527053238369
  N   -0.36585059777002     -1.50387684172102      0.59388285021976
  H   -1.09921936929370     -1.71589834022846      1.25778256232454
  H   0.51812824021005     -1.34782820348004      1.06925225126711
  N   1.63199764540460      0.38372422668058     -0.02159106253510
  H   1.64054897594762      1.36641698567031      0.21859436049074
  H   2.52687905707195      0.14802390050815     -0.42692013990418
