14
Coordinates from ORCA-job run
  C   -0.54842727185865     -0.21947723923509      0.04038498666214
  C   0.90686878473914     -0.21506256031162     -0.41606156440557
  Br  -1.72928895115097      0.32130098696084     -1.46823970823303
  H   0.99996090851714     -1.06329157039981     -1.10099615122335
  H   1.48949806100696     -0.45116837983931      0.48421659387337
  N   -0.79216273299625      0.83057155667674      1.12063565668788
  O   -1.86938537807093      0.77460562939094      1.69862979537931
  O   0.10825798617071      1.63124508600199      1.35073672103137
  N   -0.89458726191643     -1.44855682399812      0.63502221231163
  H   -1.84437952684233     -1.42725496308011      0.98642520002674
  H   -0.78688388942730     -2.21187518806757     -0.02004991221825
  N   1.30414497877436      0.99017105813648     -1.10606849827799
  H   2.05181462978290      0.79767931030123     -1.75604431294146
  H   1.60456966327164      1.69211309746343     -0.44659101867279
