14
Coordinates from ORCA-job run
  C   -0.65834290186718     -0.35032127282778     -0.14491424099581
  C   0.54663520356462      0.09175101922586     -0.96028820046599
  Br  -2.19140504490353     -0.64561878957467     -1.31057852512234
  H   0.80667009787022     -0.75605653883359     -1.59641488092586
  H   0.26731622369898      0.93457988404156     -1.59453509795366
  N   -1.09566407892744      0.85189595151122      0.75078844775248
  O   -1.65416735689876      0.57003565814189      1.80358648021969
  O   -0.85428398967811      1.98372158183388      0.34295898192079
  N   -0.37678260380514     -1.49559033153965      0.60915318444756
  H   0.50850320470201     -1.34129378223365      1.08268153875120
  H   -1.11096326278379     -1.69567585672405      1.27589362839519
  N   1.63435435386546      0.37095601434965     -0.02756189227544
  H   2.52658094984567      0.12524753583004     -0.43300325314668
  H   1.65054920531700      1.35636892679930      0.20123382939887
