14
Coordinates from ORCA-job run
  C   -0.60635716898772     -0.28303667391313     -0.01869994732504
  C   0.56776377769177      0.10003152802514     -0.90802124296401
  Br  -2.11570550937801     -0.76546141622761     -1.27401714897494
  H   0.25472581727557      0.95407236710767     -1.51619906635194
  H   0.72801467105113     -0.74494604394326     -1.58226503092768
  N   -1.17435788709010      0.92920031397789      0.73030344899120
  O   -2.03871408355112      0.69396834585765      1.56129066574508
  O   -0.70137910631772      2.03066772115901      0.46428741247890
  N   -0.29813093098714     -1.23005927264079      0.94086086790916
  H   0.42698842889862     -1.87400153630761      0.66792168574239
  H   -1.08908117873250     -1.65228636178451      1.40193670008854
  N   1.77394814691593      0.29713114954264     -0.11767613835388
  H   1.70211598788478      1.16981234942088      0.39130186894574
  H   2.56816903532651      0.37290752972602     -0.74102407500354
