14

C	-0.156186	-0.109624	-1.532959
C	0.0	0.0	0.0
F	-1.399477	-0.629743	-1.898442
H	1.097829	0.0	0.0
C	-0.12029	1.242659	-2.154389
N	-0.048223	2.28195	-2.697806
N	0.879471	-0.973766	-1.972779
H	1.737168	-0.750439	-1.432928
H	1.033859	-0.8896	-2.968565
C	-0.477043	-1.213833	0.641119
N	-0.850379	-2.182277	1.19152
C	-0.588826	1.186065	0.587369
N	-1.048641	2.149455	1.079846
F	2.534179	0.0	0.0
