14

C	-0.346389	-0.030578	-1.491018
C	0.0	0.0	0.0
F	0.192722	1.137131	-2.046705
H	1.095817	0.0	0.0
C	0.326118	-1.1629	-2.163814
N	0.790499	-2.055777	-2.767255
N	-1.743927	-0.118929	-1.736417
H	-2.220542	0.625844	-1.240028
H	-1.934356	-0.039776	-2.728295
C	-0.483178	-1.187727	0.677349
N	-0.83642	-2.163229	1.230749
C	-0.534642	1.208817	0.59473
N	-0.977675	2.194967	1.058811
F	2.430752	0.0	0.0
