14

C	-0.113686	0.048709	-1.545312
C	0.0	0.0	0.0
F	0.052909	-1.286792	-1.982696
H	1.098141	0.0	0.0
C	-1.445974	0.43994	-2.058366
N	-2.501119	0.746896	-2.473621
N	0.894213	0.913301	-1.989426
H	0.999332	0.890859	-2.994568
H	1.765572	0.687425	-1.471742
C	-0.595722	-1.181131	0.589153
N	-1.069896	-2.132711	1.089857
C	-0.481541	1.225348	0.611009
N	-0.859939	2.211599	1.126356
F	2.539137	0.0	0.0
