14

C	-0.159958	-0.133601	-1.53087
C	0.0	0.0	0.0
F	-1.400466	-0.669655	-1.882721
H	1.097831	0.0	0.0
C	-0.136438	1.209406	-2.173814
N	-0.05678	2.240618	-2.730686
N	0.881379	-0.99245	-1.960817
H	1.738949	-0.759659	-1.42448
H	1.033688	-0.926119	-2.958256
C	-0.474954	-1.204429	0.660623
N	-0.84793	-2.161183	1.231339
C	-0.589213	1.194288	0.570714
N	-1.0492	2.165645	1.047208
F	2.534664	0.0	0.0
