14

C	-0.113899	0.038812	-1.544241
C	0.0	0.0	0.0
F	0.075435	-1.298097	-1.972977
H	1.098127	0.0	0.0
C	-1.455087	0.398898	-2.054768
N	-2.528048	0.666267	-2.44899
N	0.88197	0.913969	-1.993158
H	1.756253	0.695993	-1.478023
H	0.98345	0.889763	-2.999018
C	-0.595223	-1.178435	0.595334
N	-1.074613	-2.125287	1.099248
C	-0.486126	1.227529	0.603173
N	-0.876129	2.213297	1.110676
F	2.536102	0.0	0.0
