14

C	-0.081381	-0.067021	-1.548238
C	0.0	0.0	0.0
F	-1.34803	-0.439555	-1.975722
H	1.09679	0.0	0.0
C	0.192402	1.282278	-2.097851
N	0.370939	2.35706	-2.536858
N	0.88399	-0.990078	-2.075445
H	0.594843	-1.923087	-1.791239
H	1.756498	-0.770579	-1.562016
C	-0.472149	-1.251042	0.561666
N	-0.824455	-2.285351	0.994984
C	-0.620607	1.155187	0.608902
N	-1.117075	2.098678	1.10413
F	2.513674	0.0	0.0
