14

C	-0.326263	0.072738	-1.494756
C	0.0	0.0	0.0
F	0.046364	1.318546	-1.955671
H	1.096523	0.0	0.0
C	0.50732	-0.915438	-2.235463
N	1.015671	-1.73784	-2.902889
N	-1.726424	-0.079661	-1.766971
H	-2.102267	-0.865123	-1.250664
H	-1.884061	-0.227754	-2.756802
C	-0.477514	-1.251217	0.552441
N	-0.882583	-2.273065	0.973091
C	-0.540615	1.143091	0.708045
N	-0.94587	2.06698	1.311862
F	2.431152	0.0	0.0
