14

C	-0.341793	-0.002682	-1.491877
C	0.0	0.0	0.0
F	0.032508	1.213881	-2.020916
H	1.10286	0.0	0.0
C	0.474652	-1.031177	-2.194405
N	0.979862	-1.872763	-2.839515
N	-1.747144	-0.158139	-1.73717
H	-2.121054	-0.905409	-1.165443
H	-1.918979	-0.368453	-2.713081
C	-0.465696	-1.223652	0.61889
N	-0.838194	-2.237031	1.087132
C	-0.538125	1.17575	0.654096
N	-0.942544	2.132142	1.205771
F	2.427847	0.0	0.0
