14

C	-0.11219	0.103513	-1.552027
C	0.0	0.0	0.0
F	0.062659	-1.189658	-2.020348
H	1.103812	0.0	0.0
C	-1.447392	0.551818	-2.005934
N	-2.51327	0.916313	-2.338234
N	0.919746	0.922641	-2.0896
H	1.760156	0.746304	-1.509578
H	0.664281	1.900354	-2.041193
C	-0.61579	-1.172251	0.580662
N	-1.102962	-2.128798	1.060515
C	-0.438987	1.236279	0.617794
N	-0.76021	2.259781	1.099635
F	2.520359	0.0	0.0
