13
Coordinates from ORCA-job run
  C   -0.42092213445520     -0.23000982328163      0.43776615141970
  C   1.09599681791647     -0.33862654448595      0.38648134449635
  Br  -1.10027758387726     -1.01665496139309      2.03862077889641
  H   1.48724612300938      0.10113705104665      1.30816537313828
  H   1.36987244783030     -1.39498205171384      0.36235845037082
  N   -1.09236180147698     -0.91264980908156     -0.75003370609593
  O   -2.30603250710591     -0.80387500612636     -0.80969147775273
  O   -0.35171675051370     -1.51249022755818     -1.51977081967191
  N   -0.78749307642701      1.25822918754216      0.35289120612887
  O   -0.67427018943379      1.89770339693176      1.38544191004157
  O   -1.05532914503827      1.67094459537429     -0.76691426677596
  C   1.67149232520532      0.35245852485619     -0.76493830104189
  N   2.16479547436664      0.92881566788956     -1.66037664315358
