16
Coordinates from ORCA-job run
  C   -0.58095028145208     -0.41724505559503      0.12832426128092
  C   0.93890091435158     -0.20504021859334      0.30992076946128
  Br  -0.78792238622559     -2.35637850096145     -0.40629631380919
  H   1.28432149832713     -0.94571717989333      1.03913842083616
  N   -1.23485364901238     -0.13173530905791      1.35058319789279
  H   -0.93916704076483     -0.74758401581517      2.09855788071767
  H   -2.24116297031009     -0.18859766873651      1.25953198861407
  C   -1.14651242767429      0.41940094180440     -1.00002674999644
  H   -2.21458313744606      0.22456984416823     -1.11590650791189
  H   -1.00771619085822      1.47875670042041     -0.76377388900029
  H   -0.65448665551261      0.17455430765126     -1.94017452185296
  C   1.16205796974764      1.13648699325479      0.88769012654571
  N   1.40812635978590      2.22082343369364      1.26772466346340
  N   1.66938303178705     -0.40273151785750     -0.93039416504602
  H   1.73515169080587      0.46483713518950     -1.44764541565476
  H   2.60941327445099     -0.72239988967197     -0.73925374554045
