16
Coordinates from ORCA-job run
  C   -0.55235594796952     -0.37202874905268      0.11693743203209
  C   0.95072539970237     -0.08068530169238      0.30557750948271
  Br  -0.61046075961453     -2.33072037943654     -0.50703805923662
  H   1.30696739349439     -0.74150936456537      1.11320443392721
  N   -1.21426656811283     -0.20303359919510      1.34543514661700
  H   -0.86092499989874     -0.80798728621991      2.07597286534471
  H   -2.21602940389649     -0.31654882052593      1.26370730367707
  C   -1.18652729455709      0.45100910503695     -0.98151036155075
  H   -1.16970292337698      1.50226674433491     -0.68111565835384
  H   -2.22249068154586      0.14224066359660     -1.13541871420488
  H   -0.63453658099133      0.33307441341264     -1.91085888394085
  C   1.09447688252691      1.30306426676224      0.78074073842614
  N   1.25047409081653      2.39988847192770      1.16878031992796
  N   1.68798352990501     -0.22066332621712     -0.94234730117140
  H   1.75186181318435     -1.20282790771669     -1.18178844933526
  H   2.62580605033380      0.14446106955067     -0.82927832164128
