16
Coordinates from ORCA-job run
  C   -0.46231827771153     -0.31712624558741     -0.17883639810303
  C   0.93790426005556      0.23602005538720      0.15713029504486
  Br  -0.34004671815667     -1.47724819006265     -1.74741589201800
  H   0.77033288801342      0.87014715241274      1.04849778298715
  N   -0.84982204191177     -1.15771526749040      0.94989172450515
  H   -1.59494950849804     -1.78643655940123      0.67451366855856
  H   -1.20690994382226     -0.56099054225447      1.69162112612003
  C   -1.44539163794116      0.80076598600636     -0.49344300784853
  H   -2.43472139081725      0.37938348057400     -0.67989593858176
  H   -1.51127715762405      1.47793573513795      0.36621790029827
  H   -1.14150861363666      1.37615142496649     -1.36879223906100
  C   1.42653286042148      1.12881616045914     -0.90088341093938
  N   1.82408349636937      1.87301805091554     -1.71703490794906
  N   1.87980743582506     -0.84322193536888      0.37943000874129
  H   1.42947618648751     -1.50959959897139      0.99749801861396
  H   2.71880816294699     -0.48889970672301      0.82150126963150
