16
Coordinates from ORCA-job run
  C   -0.52518819965728     -0.50375790677175      0.13886100208532
  C   0.97312078417437     -0.17029723651615     -0.00719921952385
  Br  -0.65368022622290     -2.43736726648081      0.50115990500490
  H   1.38184313825966     -0.80103253911768     -0.80716617641060
  N   -1.02385892368142      0.20405300694301      1.28409962405409
  H   -0.81341809185852      1.18897984583259      1.15200744457883
  H   -2.02518828714833      0.08240974177887      1.37671858509928
  C   -1.25958784662810     -0.23877753800219     -1.17002722930790
  H   -1.21475686490121      0.83174457594186     -1.38787530461873
  H   -2.30804552517395     -0.52685429887390     -1.07280233652685
  H   -0.82857137430345     -0.80213726406079     -2.00172449577821
  C   1.70813434760067     -0.48477180516240      1.22232888155545
  N   2.36798479536502     -0.67922021525981      2.17343007223318
  N   1.09807903393542      1.26615154814035     -0.29490191143664
  H   1.22145795154582      1.41127217966576     -1.28846742843780
  H   1.89867528869420      1.66160517194304      0.18055858742955
