16
Coordinates from ORCA-job run
  C   -0.54787459456581     -0.51046896643102      0.11296149211705
  C   0.97297067177586     -0.29489853553237      0.27835589055488
  Br  -0.80452315208039     -2.36657304662645     -0.45864007521710
  H   1.32067944769834     -1.08738650890826      0.94554519409692
  N   -1.14289653884898     -0.39730261813773      1.43289218854304
  H   -1.19283939875635      0.58313734294874      1.69630306952010
  H   -2.08710518557492     -0.76486557229918      1.41872943537559
  C   -1.13952009372859      0.39861845394157     -0.95354995291846
  H   -0.68137362485493      0.22054437873843     -1.92730684358048
  H   -0.98553548614917      1.44434559664980     -0.66311539464830
  H   -2.21287109968955      0.22077951235074     -1.03938220153348
  C   1.17197435270411      0.99571666173486      0.97170991953668
  N   1.31576256951252      2.05564994079593      1.45913334975993
  N   1.68494148683247     -0.37510492048896     -0.98468047176496
  H   2.64880014538730     -0.63877909466116     -0.82775825322620
  H   1.68041050033811      0.51858737592505     -1.46019734661517
