16
Coordinates from ORCA-job run
  C   -0.51443144527073     -0.47309193579780      0.10318996315824
  C   0.98946067807982     -0.16394952606188      0.27944708690238
  Br  -0.62114367596899     -2.33905978253944     -0.53126669433679
  H   1.36064604784079     -0.89063484724719      1.01586617851242
  N   -1.11457008616852     -0.46132395471143      1.42222580936422
  H   -1.17157773043768      0.49973764924959      1.74932585550451
  H   -2.05844743059873     -0.82824067721394      1.37493803045979
  C   -1.17708999327498      0.41559037231413     -0.93531651130127
  H   -2.22488784298786      0.13165221041440     -1.05149312784034
  H   -0.67200296045083      0.35088814846060     -1.89766701516390
  H   -1.13304560889047      1.45332499711462     -0.58843174387208
  C   1.09958127862230      1.17067435143075      0.88525439219002
  N   1.15940881490122      2.23506364903802      1.37750967484975
  N   1.69329938184544     -0.16130748255916     -0.99664075879167
  H   1.74340081986260     -1.11395984058334     -1.33931772254404
  H   2.64039975289663      0.17363666869209     -0.86562341709126
