16
Coordinates from ORCA-job run
  C   -0.55711291604127     -0.31622947415842     -0.20602794100731
  C   0.79803189497205      0.21530824561852      0.31600798326552
  Br  -0.12584005434037     -1.39846186727682     -1.83796045633135
  H   0.53832745038111      0.82572179219456      1.19074885164256
  N   -1.19196862178855     -1.16322161487210      0.74237013346497
  H   -1.83680138716889     -0.64979030046565      1.32827288631011
  H   -0.50238785101273     -1.65847001156785      1.29538840091751
  C   -1.47836377374710      0.80449009016713     -0.64270182992214
  H   -1.66821007495738      1.46975652398088      0.20808508315347
  H   -1.04407676425401      1.38830140256652     -1.45372947516975
  H   -2.42612598050517      0.38303102743021     -0.98072373680050
  C   1.45900808626834      1.10404442086068     -0.65655069193556
  N   2.02156209178531      1.81842532673232     -1.40094676134666
  N   1.62255191456628     -0.88522172126176      0.78795126060296
  H   2.41225169616771     -0.53151935769320      1.31441019330222
  H   1.97815428967468     -1.40716448225500     -0.00559390014604
