16
Coordinates from ORCA-job run
  C   -0.57404514789710     -0.23146662553519     -0.03621953843785
  C   0.85359207607145      0.26368104876101      0.24598930733356
  Br  -0.40118908909964     -1.51140778023819     -1.63986541508373
  H   0.74537164295095      0.95379484756092      1.09172059316942
  N   -1.03975733886879     -0.87296780981165      1.12068225392842
  H   -0.36480916720054     -1.54861640461585      1.45869974273939
  H   -1.95152275823809     -1.29175854233562      0.99674251634962
  C   -1.50609274496231      0.87018360976351     -0.49336683437826
  H   -1.57609947564851      1.61871495683843      0.30160690986920
  H   -1.15151932457400      1.33902121348153     -1.41070356064656
  H   -2.50299797298471      0.46559198164212     -0.67865845090685
  C   1.39884736244809      1.03227463981639     -0.88687403486534
  N   1.88667429340852      1.64733551525037     -1.76092656145568
  N   1.69285446803354     -0.83957380179306      0.68736958624349
  H   2.54028632616354     -0.48498751028292      1.11332360622175
  H   1.95040685039761     -1.40981933850182     -0.11052012008066
