16
Coordinates from ORCA-job run
  C   -0.55183104496591     -0.50859649450268      0.10260478790996
  C   0.96540186174656     -0.29668961694257      0.30227152845561
  Br  -0.80046369973396     -2.36661931971897     -0.46690575346430
  H   1.29580471410419     -1.08753150805240      0.98001944088024
  N   -1.17702146212743     -0.38820417654128      1.40779091761205
  H   -1.22929729560756      0.59338866313971      1.66638750875405
  H   -2.12196558842452     -0.75247753984154      1.37309223587691
  C   -1.11609101188370      0.39730366156800     -0.98128421342355
  H   -0.96570771030172      1.44391460069362     -0.69216312868421
  H   -0.63678412316033      0.21343466365575     -1.94369642686927
  H   -2.18776477299422      0.22204615931560     -1.09042617619033
  C   1.15175806262951      0.99665297752628      0.99439555837550
  N   1.28710927573108      2.05832230911572      1.48033572672414
  N   1.70601204627535     -0.38383241279668     -0.94381357882223
  H   1.71415774272566      0.50772166575902     -1.42332134605332
  H   2.66568300598699     -0.64783363237756     -0.76328708108124
