16
Coordinates from ORCA-job run
  C   -0.47451824183370     -0.48023878641320      0.11691468380330
  C   1.03906416593579     -0.21134476214967      0.35392767305238
  Br  -0.60963022133454     -2.33295038880390     -0.54132612835408
  H   1.35960007923729     -0.95424118160618      1.09113317462176
  N   -1.12587935294977     -0.45664612903103      1.40930570813586
  H   -2.08678396796630     -0.76829938342495      1.32454789309778
  H   -1.13386906897201      0.49561128130878      1.76463218673549
  C   -1.08009902623724      0.43205872529644     -0.93892571369227
  H   -2.13657888877021      0.19395797337722     -1.07469712955739
  H   -0.99990730504904      1.47132607785837     -0.60295748061218
  H   -0.58587867767943      0.33025466948433     -1.90647381686770
  C   1.14675176503589      1.11344927296827      0.98545318619380
  N   1.15842202686377      2.17934389519077      1.47829811314385
  N   1.93647644114540     -0.26411700403192     -0.78047579097279
  H   1.69806638938671      0.43466132467488     -1.47252200471873
  H   1.89476388318736     -1.18082558469822     -1.20783455400908
