16
Coordinates from ORCA-job run
  C   -0.49527137686624     -0.49715124173758      0.09098623065868
  C   1.03452707941173     -0.18961725560839      0.06518673135421
  Br  -0.63376441734717     -2.41409777328825      0.57474893775812
  H   1.52126796976337     -0.92756956668309     -0.58055007819480
  N   -1.25106285625041      0.24915889361046      1.04955521496114
  H   -1.44174559959352      1.19079161447812      0.73375259524184
  H   -0.83092816283692      0.25074016007418      1.97105250007766
  C   -1.10929235349134     -0.32523059947034     -1.28703501117225
  H   -1.09472261159655      0.72986803553990     -1.57726035099846
  H   -2.14625377264422     -0.65904183165976     -1.26481500760425
  H   -0.56577765618921     -0.90626043462446     -2.03403986037869
  C   1.57699477378581     -0.33832808663847      1.42302698099470
  N   1.95624930058885     -0.39128885485535      2.53285038131059
  N   1.39076448623395      1.13415311068007     -0.41643898031257
  H   1.16566254320395      1.23715065531682     -1.39665291215640
  H   0.92435265382796      1.85672317486616      0.11763262846048
