16
Coordinates from ORCA-job run
  C   -0.63503558834290     -0.42179696519572      0.03817773592408
  C   0.91148634731518     -0.30150848447444      0.00646253808995
  Br  -1.01688820145736     -2.29467668306570      0.53635211289884
  H   1.29433557185666     -1.00976863987011     -0.73409696193515
  N   -1.27711476320928      0.42574935270515      0.99971348621954
  H   -1.27039747642804      1.38921295874923      0.68823051572842
  H   -0.87548162337530      0.34223517317683      1.92610884013831
  C   -1.21853794425907     -0.16836671883307     -1.33914353534381
  H   -0.98314266673969      0.85194202429081     -1.64727436402754
  H   -2.29923080322453     -0.30412552256236     -1.29941820985200
  H   -0.79893401391942     -0.85935935597872     -2.07170267193221
  C   1.48593020299992     -0.64274378669237      1.32096481349434
  N   1.95263690972342     -0.79726840282655      2.38859769227432
  N   1.26695267516556      1.05272735157220     -0.41177504800441
  H   1.25574345546357      1.67504222751356      0.38748105706031
  H   2.20667791843131      1.06370547149129     -0.78867800073305
