16
Coordinates from ORCA-job run
  C   -0.57111913038912     -0.32459788211095      0.10709180394978
  C   0.96532817801651     -0.31159643072727      0.00067413713900
  Br  -1.03191629992390     -2.12472533320484      0.92544565319333
  H   1.27807022153395     -1.21042006108661     -0.53698829140718
  N   -0.99070905261065      0.76399772929968      0.90960026313479
  H   -0.68041234584263      0.67779493638232      1.87095645354630
  H   -1.99625777982301      0.87718775093323      0.89415458132491
  C   -1.23226566143203     -0.28847271929979     -1.25666933292368
  H   -2.31354543063584     -0.39793026793779     -1.14911011503118
  H   -0.86683150166193     -1.10396978029599     -1.88098550483509
  H   -1.00066914910955      0.66083437504599     -1.73897045550228
  C   1.56114808218016     -0.35139689983677      1.35374820969348
  N   2.05102944162505     -0.28355948034564      2.41992227539569
  N   1.36443439586342      0.85828161377997     -0.76759295018141
  H   2.36961497158286      0.86667683608005     -0.89368253253218
  H   1.09510106062675      1.69189561332442     -0.25759419496428
