16
Coordinates from ORCA-job run
  C   -0.63919147685614     -0.43304063793603      0.03166915748579
  C   0.90956895305678     -0.28628665352236      0.02550953469838
  Br  -1.00779022736029     -2.34496572238733      0.29161375000691
  H   1.32500856267251     -0.97660118116807     -0.72113238007706
  N   -1.29573359667154      0.29300608703131      1.08599967758032
  H   -1.01844230075469      1.26733272738762      1.00397167035000
  H   -1.00141237516370     -0.04807276145109      1.99516067547577
  C   -1.20707423346871     -0.00729883157497     -1.31010743682799
  H   -2.27857698612826     -0.20315640344429     -1.32271352772723
  H   -1.05025087675524      1.06650653139447     -1.44219461544335
  H   -0.73394984751541     -0.54885237997224     -2.13255248346760
  C   1.45026633069501     -0.65664080235548      1.33523564127326
  N   1.88004350641821     -0.89932515403032      2.40060393555544
  N   1.22516895299921      1.12210255535012     -0.24023188258941
  H   1.36455744877868      1.25803913976302     -1.23352491267878
  H   2.07680816605360      1.39825348691562      0.23169319638556
