16
Coordinates from ORCA-job run
  C   -0.59869330611294     -0.44953996147870      0.03271373590580
  C   0.90764033263541     -0.19071357545111      0.30716175845863
  Br  -0.68366237088793     -2.31988741742879     -0.63038997600521
  H   1.21675848250677     -0.92639178030682      1.06789187959980
  N   -1.41180445641934     -0.39267555305911      1.21161647049073
  H   -1.00617253905571     -0.90687580493644      1.98456288855452
  H   -1.57238160987458      0.56962059451678      1.48633571507416
  C   -1.15637154602994      0.47013432203057     -1.03295275833753
  H   -2.19842071422158      0.21172846735745     -1.22133232746544
  H   -0.57809654260608      0.39553829144760     -1.95094316683730
  H   -1.10553708246019      1.50503583578553     -0.67804344581894
  C   1.01591859745489      1.14149136941477      0.91883374036673
  N   1.08298035117325      2.21588512574450      1.38806956420121
  N   1.70531861959513     -0.21883507047944     -0.91018770308669
  H   2.65714071484903      0.06411442513405     -0.70906312196322
  H   1.72438306945384     -1.16862926829088     -1.26327325313727
