16
Coordinates from ORCA-job run
  C   -0.51658330862022     -0.47164186974150      0.10025705154730
  C   0.98271055121024     -0.15817365252790      0.30402121640641
  Br  -0.60912603495397     -2.34899448830669     -0.50218282829504
  H   1.33848727515119     -0.87056033009794      1.06182318201567
  N   -1.14641195429889     -0.43596404374888      1.40475035116741
  H   -1.20577793828697      0.53028720690718      1.71567827522294
  H   -2.09081188727094     -0.79915017340732      1.34163321760633
  C   -1.15600631157954      0.39749951882523     -0.96911446891164
  H   -1.11815648693167      1.44164618113721     -0.64127718570068
  H   -2.20146212063292      0.11223594296575     -1.10212753561575
  H   -0.63091314911266      0.31398086619269     -1.91920971284655
  C   1.07989727326291      1.18694930040083      0.88886278990223
  N   1.13324887667029      2.25942031192102      1.36408092583586
  N   1.71424530017124     -0.17765094320101     -0.95611436591343
  H   1.76811068840385     -1.13578239619492     -1.28272808934435
  H   2.65954922681810      0.15589856887627     -0.80935282307666
