16
Coordinates from ORCA-job run
  C   -0.59442444076517     -0.29173168848134     -0.11765137379155
  C   0.83863710406967      0.18495493420236      0.21420467747176
  Br  -0.40286585793770     -1.55404655093198     -1.66499939503734
  H   0.71113632419803      0.89441067424206      1.04232922883741
  N   -1.18076464721896     -0.99429405709988      0.96893493205136
  H   -0.47171198329697     -1.48224589851098      1.50331055530977
  H   -1.73438050802820     -0.38446803279684      1.55535211962852
  C   -1.48156950290058      0.84708380842414     -0.57732428595855
  H   -1.54508882665839      1.59988904650623      0.21730002266039
  H   -1.09262603836577      1.32046797978272     -1.47819807887038
  H   -2.48254446623353      0.46616756479128     -0.78428766469288
  C   1.45281697935136      0.92377656624310     -0.90348720739189
  N   1.98200731290029      1.51914250600743     -1.76745001496377
  N   1.63435966603673     -0.92361292222545      0.71649553789843
  H   2.49547230611492     -0.58032970904185      1.12440536600703
  H   1.87154657873427     -1.54516422111096     -0.04893441915834
