16
Coordinates from ORCA-job run
  C   -0.49569555405969     -0.20634697169681     -0.09022710389322
  C   0.93463702334484      0.29406531093827      0.22656888057859
  Br  -0.32028238989580     -1.46595039971197     -1.67723082093237
  H   0.79587285556743      1.01445138102170      1.04302528054749
  N   -1.00391982968681     -0.86639932798793      1.05520676436669
  H   -0.47681140674593     -1.70322320236475      1.26975746968867
  H   -1.97570399416003     -1.12242262595939      0.93278663186790
  C   -1.41673973457094      0.91687401361614     -0.52073399952222
  H   -1.49839969008082      1.63722088421435      0.29883984098042
  H   -1.03888644750236      1.41922435897384     -1.41028879451294
  H   -2.41215215063769      0.52764619613062     -0.74507210311004
  C   1.48691631281844      1.03910140004139     -0.91353466296495
  N   1.90797677181866      1.68287770977691     -1.80003803606321
  N   1.89504907093539     -0.68833416589493      0.68031546231180
  H   1.67191638459432     -1.01112979422835      1.61161607281938
  H   1.94622277826103     -1.46965476686907      0.03800911783800
