16
Coordinates from ORCA-job run
  C   -0.63841286858948     -0.48219110995917      0.03662471027827
  C   0.88493421531958     -0.32103626477116      0.30360146416644
  Br  -0.88794482834148     -2.33995074177038     -0.55803866539716
  H   1.17560326490953     -1.12242420414733      0.99046989400305
  N   -1.45174803981893     -0.30676503794081      1.21120976137256
  H   -1.44653915145664      0.66423451881927      1.50453671063401
  H   -1.13750835198763     -0.89077148298422      1.97754131334420
  C   -1.11363370787317      0.45309446745004     -1.05770301116192
  H   -0.58995885004608      0.25624232269517     -1.99255545690596
  H   -0.94177060042224      1.49310859758568     -0.75661435821602
  H   -2.18272298986053      0.30781924556197     -1.21139129756263
  C   1.07539071328629      0.96455745102001      1.01034846843144
  N   1.21777261656852      2.01722343059518      1.51401639248916
  N   1.68396081216414     -0.43383132223921     -0.90207274099907
  H   2.63107100446029     -0.70973468101834     -0.67785565929997
  H   1.72350676168781      0.45042481110330     -1.39311752517638
