16
Coordinates from ORCA-job run
  C   -0.49506088342915     -0.21314035247320     -0.07816249865507
  C   0.92953277878140      0.31741122125705      0.21498386141258
  Br  -0.29613270205196     -1.59993936485119     -1.55243374872710
  H   0.77725202003929      1.10077591530581      0.96854127978730
  N   -1.01673712298738     -0.77771180904848      1.11137354355633
  H   -1.98534218317241     -1.04918427232378      0.99737289516548
  H   -0.48852747426244     -1.59013897858414      1.40305561963867
  C   -1.41305758829701      0.86709082198126     -0.61253447031957
  H   -1.50621245070386      1.65356380001395      0.14248409314790
  H   -2.40492617545752      0.45750650317235     -0.81524353756390
  H   -1.02543943669933      1.29386005884795     -1.53670421256033
  C   1.49446069693624      0.96756757010243     -0.97591414801068
  N   1.93722334484381      1.50882273331603     -1.91861432660946
  N   1.88785336010402     -0.62011535994457      0.75840433913020
  H   1.65591810748053     -0.86642965359894      1.71065837767669
  H   1.95019570887577     -1.45093883317253      0.18273293293094
