16
Coordinates from ORCA-job run
  C   -0.47876391275431     -0.48160574885615      0.11481519771111
  C   1.02651418415364     -0.20237633939720      0.38884351716949
  Br  -0.59098254339195     -2.34687905175167     -0.51111328502325
  H   1.32950698915090     -0.93347244081999      1.14492784123554
  N   -1.16485128742521     -0.43497472068721      1.38902233057853
  H   -2.11869801997566     -0.76300033588359      1.28714829009690
  H   -1.19674490781721      0.52619097637077      1.71850590281436
  C   -1.05824182231086      0.40859443570129     -0.97388412100076
  H   -0.98930176532828      1.45457355630751     -0.65632756734906
  H   -0.53753136893627      0.28972748818117     -1.92550169646906
  H   -2.11018547627929      0.16503551427192     -1.13334142467131
  C   1.11487835965705      1.13283970844689      1.00024449097174
  N   1.16326868898137      2.21930918438522      1.44298311021524
  N   1.95382786411914     -0.26714359671822     -0.72076995944732
  H   1.73282344180856      0.42265466719347     -1.42743648878233
  H   1.92648157634840     -1.18947329674424     -1.13711613804987
