16
Coordinates from ORCA-job run
  C   0.63064251759185     -0.05114736531843     -0.47208334427547
  C   -0.80449010924392      0.24493104314747     -0.04800053588990
  F   0.62928110912534     -0.54482076064987     -1.74858771640111
  H   -1.19324883179848      0.97594304503619     -0.76073634078226
  N   1.29566036606966     -0.93887916213620      0.37065648415687
  H   1.21664897632911     -0.67185412335228      1.34341597640943
  H   2.27225511416180     -1.02102022777261      0.11672014176130
  N   1.39210562581983      1.30564786569467     -0.65680822517910
  O   2.59158870059378      1.29202258766441     -0.40162514839223
  O   0.75035599074353      2.25311974790898     -1.09613994906266
  C   -0.78020640865041      0.86515953563995      1.27659182221072
  N   -0.73029466164384      1.31553235865403      2.36012264836242
  C   -1.65932504867794     -1.02526559165808     -0.06305576933644
  H   -2.69266091068556     -0.77653607851389      0.18284041615116
  H   -1.63178631353749     -1.46840709387025     -1.05850731185403
  H   -1.28652611619725     -1.75442578047409      0.65519685212129
