16
Coordinates from ORCA-job run
  C   0.58343166210036      0.31616055362922     -0.46283337166288
  C   -0.74400518084693     -0.30999422089135     -0.03333080164083
  F   0.51975893338028      1.66334507449570     -0.40031516545762
  H   -0.62978227269466     -1.39619950764460     -0.11351969922624
  N   0.98315903442791     -0.06864562150893     -1.75390340295510
  H   1.13929359453883     -1.06560528001661     -1.81376058093499
  H   1.80678466288136      0.43994059747934     -2.05206291912691
  N   1.61237758739260     -0.10809448806623      0.62058893206489
  O   2.10429030766294      0.74432652660599      1.34488657570595
  O   1.83391322819256     -1.31710224464483      0.64520398689432
  C   -1.77868031148029      0.12020380183191     -0.97455007148627
  N   -2.64670494019223      0.46389134262338     -1.68585722651818
  C   -1.12179956366674      0.06344561850763      1.40389712188275
  H   -2.11998955578246     -0.31150112577917      1.63109225642897
  H   -0.42265875967722     -0.38057742953119      2.11403976941493
  H   -1.11938842623629      1.14640640290975      1.53042459661724
