16
Coordinates from ORCA-job run
  C   0.67714265432166      0.01384899190645     -0.41106288663938
  C   -0.80607138212815      0.21011983181323     -0.11245759784822
  F   0.82568689525082     -0.37080306497706     -1.71576021988589
  H   -1.16089757324538      0.97624943885503     -0.80596510045972
  N   1.30243553535728     -0.91035869889601      0.42258993442722
  H   2.30182393917503     -0.93058100183813      0.26151400298903
  H   1.12029347971697     -0.72404793416427      1.40040330483694
  N   1.37445740339610      1.41738470159132     -0.40784957327391
  O   2.51461570318009      1.45932074223433      0.04180289947570
  O   0.74919800653944      2.34882772001261     -0.90101191973476
  C   -0.94292643469309      0.72640520599061      1.24940604828922
  N   -1.02439244630009      1.09509985711172      2.36156129337330
  C   -1.58832077506055     -1.09167153402640     -0.30570053863007
  H   -2.65246629388860     -0.90835325464880     -0.15057781643380
  H   -1.25185438383327     -1.85577413503864      0.39383480157521
  H   -1.43872432778825     -1.45666686592601     -1.32172663206087
