16
Coordinates from ORCA-job run
  C   0.60707856212193      0.39514742306665     -0.35986089757792
  C   -0.73327116401702     -0.30637021494502     -0.13760025251225
  F   0.51181040196083      1.71142327721802     -0.07496364944313
  H   -0.59147671661657     -1.36234237857969     -0.39109658385115
  N   1.10202689756273      0.23895085174580     -1.66588293198862
  H   1.28231473791031     -0.73215893896074     -1.88144551980352
  H   1.93436875110103      0.79680027340813     -1.81362409584091
  N   1.56837785030859     -0.19847383854629      0.70605237005829
  O   1.81312636337727     -1.39180219907967      0.54056353116996
  O   1.99183734699399      0.52226829081213      1.59734390064178
  C   -1.70972509847585      0.26737512653404     -1.06445328196705
  N   -2.53381084278847      0.71969924255456     -1.76707746875644
  C   -1.21702520545211     -0.18462264693888      1.31123286846860
  H   -0.55871905162052     -0.73499359826858      1.98506549453086
  H   -1.24685143462611      0.86149910604311      1.61712725729037
  H   -2.22006139774003     -0.60239977606356      1.40061925958114
