17
Coordinates from ORCA-job run
  C   -0.65327260158406     -0.66232423026762     -0.05820801238704
  C   0.63754071402584     -0.03586674861981      0.45083064739232
  H   -0.55537384876257     -1.73020500201322     -0.25204566014991
  H   0.91513241494851     -0.67964884950847      1.29224121449515
  N   -1.18373533691329     -0.05963593787786     -1.31963184751117
  O   -0.93093437108513      1.12019717740452     -1.55010507874585
  O   -1.85659466141114     -0.80797519800606     -2.02389137011598
  N   -1.72035460436694     -0.51403293976510      0.99351393808080
  O   -1.50161554017276     -1.15082151629273      2.01524279302268
  O   -2.67400068957496      0.21273903478456      0.76009315884878
  N   0.35464882068599      1.27619719897429      1.00549381598118
  H   0.26095774751634      1.96290297449810      0.26898737742629
  H   1.09763481200645      1.55967383785255      1.62982033911002
  C   1.73805263172363     -0.11283789620694     -0.60836330936089
  H   2.68650175339051      0.19902656476597     -0.16583451478207
  H   1.52077633655103      0.55266354062269     -1.44530922306080
  H   1.86563642302255     -1.13005201034488     -0.99183426824353
