16
Coordinates from ORCA-job run
  C   -0.63651192678012      0.46772741562340      0.08905204566592
  C   0.76521014683143      0.11606347147924     -0.43413977471636
  Cl  -1.00433595821987      2.09582527960447     -0.59739369498526
  H   0.73939343256338      0.17698263664533     -1.52497410452105
  C   -1.70447604053277     -0.50616969368971     -0.39355865531381
  H   -1.55977269094465     -1.48239411500268      0.06955457220588
  H   -1.65237515984358     -0.59981359047906     -1.48034426970672
  H   -2.69134594907198     -0.13146980305679     -0.12182642883870
  C   -0.66097569773132      0.60232679302080      1.54545814905789
  N   -0.72343727288995      0.75769591989631      2.70853821251973
  N   1.02519599852873     -1.36252056558538     -0.16576168253858
  O   1.52697817527544     -1.99740815303390     -1.08992422146042
  O   0.76285833362217     -1.78877452712198      0.95351985158431
  N   1.82048797786082      0.85610204547519      0.15960725223024
  H   2.47420053902117      1.22108212604681     -0.51449963233759
  H   1.51690609231112      1.57674476017794      0.79669238115453
