16
Coordinates from ORCA-job run
  C   -0.78675168831582      0.40323767771976     -0.14770898868842
  C   0.75077694783023      0.41576829366710     -0.31241172766542
  Cl  -1.54536663277448      0.56898406002507     -1.76404416470358
  H   1.04918457385224      1.35650898278686     -0.77601234627697
  C   -1.34422538841295     -0.83643894155839      0.54179407688361
  H   -0.92895053296865     -0.91917902896500      1.54776446642717
  H   -2.42688717480501     -0.73831677243817      0.62437043619994
  H   -1.10882026704431     -1.73079630374610     -0.03248633602211
  C   -1.12104352103119      1.59841611389742      0.62947160726769
  N   -1.40586934417714      2.54836945782572      1.25902591090784
  N   1.16125454561658     -0.64881133475202     -1.32582008138355
  O   1.50098835415433     -0.26888200019678     -2.44109591282799
  O   1.14627067899083     -1.81302533268015     -0.92694825361979
  N   1.37665476218861      0.24065397815823      0.94975076313746
  H   2.33816358751024      0.55353086822553      0.93381829110644
  H   1.34362109938650     -0.72901971796908      1.23953225925768
