16
Coordinates from ORCA-job run
  C   -0.60828668487816      0.25163751314478      0.40660210778739
  C   0.63272799029601     -0.35218372423847     -0.28217929399049
  Cl  -0.24055548942437      1.93880476866127      0.90614975468903
  H   0.40905291796582     -1.39701445766722     -0.51146616477237
  C   -1.78447551932240      0.26958635267769     -0.56512929999949
  H   -2.01368504862212     -0.75268226384465     -0.87703537328821
  H   -2.65944239141299      0.69392930542178     -0.07215678304770
  H   -1.52320955545824      0.86112535484482     -1.43993586576614
  C   -0.98025829002279     -0.50175433454118      1.60420915761990
  N   -1.37059830884071     -1.10078399434111      2.53679240665833
  N   1.77575942614229     -0.44276029667599      0.74074525737498
  O   2.65789891512639      0.40711342700436      0.67149736629886
  O   1.71273901573705     -1.36926310334031      1.54340427208647
  N   0.97577113936191      0.36217671589777     -1.45189094746378
  H   1.66525461878336     -0.14160337686963     -1.99372382174863
  H   1.35130726456894      1.27267211386609     -1.21588277243816
