16
Coordinates from ORCA-job run
  C   -0.63915522870471      0.14216071009286      0.41159144415747
  C   0.66252265992102     -0.26544972919382     -0.30903686312690
  Cl  -0.37885481417785      1.70903148653125      1.25316669299891
  H   0.50190231901472     -1.25187400931062     -0.75105209734286
  C   -1.76522956113836      0.30855023995435     -0.60436463718920
  H   -1.48986136182569      1.07118191372394     -1.32964148303832
  H   -2.68292854404179      0.59360838922906     -0.08935014418733
  H   -1.92936463435219     -0.63931678162593     -1.12345442911212
  C   -1.03341430801760     -0.84751372147028      1.41423382193530
  N   -1.43984929837225     -1.62947777434602      2.19159741493452
  N   1.75611239876244     -0.51332601107976      0.74167297386441
  O   1.69677945432667     -1.58135259452473      1.34363556268430
  O   2.59903816734268      0.36540772475394      0.89123470425060
  N   1.02775407841799      0.67923534255939     -1.29394812568657
  H   1.34490706581806      1.53902390530689     -0.86280097106002
  H   1.76764160702689      0.32011090939949     -1.88248386408219
