16
Coordinates from ORCA-job run
  C   -0.70872460433969      0.49795283250058      0.09398426735280
  C   0.71135610133126      0.30732454526593     -0.48373905828936
  Cl  -1.28449794911828      2.08899177360916     -0.50178033694697
  H   0.67195859111838      0.47817867027197     -1.55982701215198
  C   -1.68987904597227     -0.57784194031196     -0.35766622947440
  H   -1.42409816349877     -1.54437623275417      0.07392809116875
  H   -2.69351265386623     -0.31228094100902     -0.02586030005631
  H   -1.68183429479190     -0.65527400852104     -1.44579233087976
  C   -0.64863548974257      0.55828529249690      1.55457039734818
  N   -0.59734013976403      0.58764100587630      2.72806441369262
  N   1.03951254474575     -1.18394006043516     -0.35382856850211
  O   1.42232190139273     -1.56652144012662      0.74968067414074
  O   0.87973287595640     -1.88198375311735     -1.35206118336357
  N   1.65540154432396      1.14900841261280      0.13971587038801
  H   2.53232173090767      1.17261388337505     -0.36214835774819
  H   1.81591705131760      0.88222196026665      1.10375966332155
