16
Coordinates from ORCA-job run
  C   -0.64680923228303      0.45362730198245      0.08821988039485
  C   0.76843213468063      0.19071808626055     -0.50261124999078
  Cl  -1.10623801104443      2.09126081906046     -0.50197975595224
  H   0.70265112034596      0.32028690679132     -1.58316443828705
  C   -1.68894814182766     -0.55244910761396     -0.38000419292769
  H   -1.47787058818629     -1.53722657439481      0.04116496982875
  H   -1.67673629745881     -0.61991379964196     -1.46909653781829
  H   -2.67973966023944     -0.23747604954110     -0.05176470344626
  C   -0.58496589910271      0.51175494579876      1.54694417944361
  N   -0.55432960031966      0.54677846435541      2.72130388858309
  N   1.06014193268974     -1.27027399380737     -0.28721835002352
  O   0.89189640182457     -2.02528400013283     -1.24080565637643
  O   1.40922667059136     -1.58981894876645      0.84593329732252
  N   1.86008848041617      0.93518134979905      0.02305327604247
  H   1.82753706153843      1.89699575359092     -0.28420539686346
  H   1.89566362837513      0.88783884625960      1.03423079007039
