16
Coordinates from ORCA-job run
  C   -0.74498169887901      0.38596102436758     -0.17377203976324
  C   0.79252881419550      0.35971375670036     -0.43057637553560
  Cl  -1.58490296123774      0.62337320496704     -1.73960852507673
  H   1.04756121170911      1.23382088521834     -1.03057010118769
  C   -1.31794656163572     -0.84580251122524      0.51673052968451
  H   -1.20282994198143     -1.72513987137036     -0.11400604779022
  H   -0.81328640915372     -1.01906733703257      1.46919154385922
  H   -2.37820189024742     -0.68314456111237      0.71278814422281
  C   -0.97396578923015      1.57366242576300      0.65166275754004
  N   -1.10834440551965      2.51253556324162      1.34586909921220
  N   1.12421879263218     -0.82851392991856     -1.29123834181962
  O   1.15103520704102     -1.91582040673530     -0.71770070064980
  O   1.34830734503806     -0.62658956554497     -2.47921509132739
  N   1.62972391991176      0.29220433829794      0.72207021861292
  H   1.62277886453996      1.15746254335374      1.24400445383914
  H   1.40930550281721     -0.49465555897026      1.31637047617946
