16
Coordinates from ORCA-job run
  C   -0.60763981751784      0.24851117415340      0.40903571997204
  C   0.63006116847132     -0.35456010997330     -0.28613951879183
  Cl  -0.21595032868132      1.91307885487012      0.96447198093507
  H   0.39305771766547     -1.38902979685927     -0.54688676514894
  C   -1.77368581327314      0.31722632000304     -0.57256986511350
  H   -2.64647291263146      0.73972898262608     -0.07422197664195
  H   -1.49450444518942      0.93165440155448     -1.42574579778859
  H   -2.01606439577038     -0.69082220863852     -0.91898985270044
  C   -1.00510662274482     -0.53498946938889      1.57873389483587
  N   -1.41825471174193     -1.16036353156892      2.48380060507209
  N   1.76261965896314     -0.49085840010562      0.74350677724931
  O   2.66137328659045      0.34314437647389      0.70183831673557
  O   1.67502967056190     -1.43457036557440      1.52354289124558
  N   0.99403605762483      0.38725493604759     -1.43208674596936
  H   1.38010319522299      1.28536893125564     -1.16745076001821
  H   1.68139829245022     -0.11077409487533     -1.98183890387272
