16
Coordinates from ORCA-job run
  C   -0.70962689425879      0.49707633806185      0.09030914946903
  C   0.70857927017973      0.30441620281638     -0.49127446416340
  Cl  -1.29349322963456      2.07931211597547     -0.51929966561488
  H   0.66340701968888      0.45825662488763     -1.56978398158290
  C   -1.68891629791034     -0.58705808352414     -0.34563438770297
  H   -2.69227148846420     -0.32116973817905     -0.01325618124905
  H   -1.41865661128084     -1.54789703753086      0.09567060728343
  H   -1.68444836171772     -0.67671527022284     -1.43282815487451
  C   -0.64361029439094      0.57117577536633      1.55000146051624
  N   -0.59214034979012      0.60639821808877      2.72341900857293
  N   1.04356456149380     -1.18383540664661     -0.33922202867866
  O   1.43181789763289     -1.54659835338400      0.76903117968942
  O   0.88075617974839     -1.89895878747373     -1.32476659748703
  N   1.65173362942369      1.15944868485825      0.11515322245604
  H   1.81660351848914      0.90876451074370      1.08281809122385
  H   2.52670145079105      1.17838420616291     -0.39033725785751
