16
Coordinates from ORCA-job run
  C   -0.72648243576019      0.41861076689342     -0.17509695522502
  C   0.80982025618614      0.32840403581944     -0.42325364517603
  Cl  -1.54583851667111      0.70198334259958     -1.74446548918711
  H   1.10577294640376      1.19481925051762     -1.01553394872913
  C   -1.35612406023539     -0.79215207018578      0.50334051265573
  H   -1.27501315062910     -1.67143773877604     -0.13267246383073
  H   -0.86555366196910     -0.99325946077474      1.45768168516313
  H   -2.40964253286854     -0.58512800704033      0.69389463846524
  C   -0.91070153894050      1.60931020029413      0.65701609694802
  N   -1.01113154282682      2.55028817714270      1.35426203913356
  N   1.09575772456703     -0.86672319006727     -1.29073074971513
  O   1.07103944913551     -1.95843688933155     -0.72561364922575
  O   1.33718441377844     -0.66579418459493     -2.47548516160381
  N   1.63608557620081      0.21700036372891      0.73374197390716
  H   1.37884103083459     -0.56367861399435      1.32131951818235
  H   1.66398604279447      1.07819401776923      1.26159559823753
