16
Coordinates from ORCA-job run
  C   -0.80104757527344      0.36684367901733     -0.16482475365115
  C   0.73642179312723      0.43609359205138     -0.31576706257153
  Cl  -1.54932195515686      0.45945134608246     -1.79172890685818
  H   1.00220651185950      1.37628889815941     -0.79979192859603
  C   -1.31622783846286     -0.87509140729244      0.55275590530517
  H   -2.40263701999106     -0.81734587999551      0.62350774308687
  H   -1.04083614138931     -1.77448643403712      0.00473395117140
  H   -0.90775442398928     -0.91503418509678      1.56411315444208
  C   -1.18897969802810      1.56855819555620      0.57645561927864
  N   -1.51179086734673      2.52909258437652      1.17070529438331
  N   1.19912315649089     -0.63579311077805     -1.29857032159126
  O   1.53695959445631     -0.26992981750078     -2.41906445538172
  O   1.22508110894242     -1.78971315256136     -0.87133231360787
  N   1.35579154058792      0.31674050082499      0.95592109585467
  H   2.30393260448224      0.66815336847061      0.94201463026154
  H   1.35807920969107     -0.64582817727688      1.26987234847404
