16
Coordinates from ORCA-job run
  C   -0.70795661873123      0.49980018548172      0.08177843680929
  C   0.72082474523651      0.30650617558995     -0.47272688081124
  Cl  -1.27098230461542      2.09237176497815     -0.52063759838369
  H   0.69922857121359      0.47423598001512     -1.54987990918073
  C   -1.68313586142752     -0.57387958022756     -0.38812494021117
  H   -1.65635387692888     -0.64956214383212     -1.47608634659915
  H   -1.42656298329881     -1.54145233267423      0.04659072812715
  H   -2.69205968487819     -0.30746257615622     -0.07352276040693
  C   -0.67337106228077      0.55606110675229      1.54329355663967
  N   -0.65700988018323      0.57642237617195      2.71805589995459
  N   1.04451257560819     -1.18504448574656     -0.33223305242242
  O   0.90379886256798     -1.88656540599884     -1.33082588630044
  O   1.40203688841067     -1.56413166080301      0.78092355693534
  N   1.65576333626207      1.14863798766264      0.16412076947819
  H   1.79937316036521      0.88426467472163      1.13153469597343
  H   2.54089413267983      1.16979793406501     -0.32326026960197
