16
Coordinates from ORCA-job run
  C   -0.64577594435044      0.46029327047403      0.07573771157984
  C   0.77566937917171      0.17810375895480     -0.49201187221061
  Cl  -1.07952114269240      2.09768974035367     -0.53434896638323
  H   0.72680984305756      0.30183813036104     -1.57413955796469
  C   -1.69065372076684     -0.53898859752337     -0.40065469173390
  H   -2.68328833426478     -0.21149883756023     -0.09071074471640
  H   -1.66226814033371     -0.61583387090068     -1.48880315111473
  H   -1.49618414060339     -1.52229289856858      0.03185456903847
  C   -0.60280528086953      0.53111126637090      1.53443726915698
  N   -0.55736289720586      0.58717980729275      2.70750947702173
  N   1.04809124738705     -1.28475182115703     -0.26381825461854
  O   1.37485102560123     -1.60167601324617      0.87673880358927
  O   0.88754238328619     -2.04337887482970     -1.21589067235871
  N   1.86775520541361      0.91385485017634      0.04473649698145
  H   1.85010474691472      1.87388865699752     -0.26932688402973
  H   1.88703577025486      0.87346143280472      1.05669046776276
