16
Coordinates from ORCA-job run
  C   -0.64729846951846      0.45654362187775      0.08459957196237
  C   0.77560266354862      0.19114477752327     -0.48739593608759
  Cl  -1.08595309147728      2.10490761032213     -0.49159879059853
  H   0.72729490864425      0.33677202986320     -1.56683042215840
  C   -1.68850191152326     -0.53593542695837     -0.41367208712834
  H   -1.49112328205174     -1.52753896373257     -0.00196417876729
  H   -2.68245968433992     -0.21833166066190     -0.09772644441746
  H   -1.65901455166664     -0.58953822752430     -1.50318569730588
  C   -0.60613426494902      0.49677435474431      1.54450105531399
  N   -0.56387643321523      0.52577524363463      2.71867241965481
  N   1.05310422011300     -1.27504801791271     -0.28913941595081
  O   1.38026253703019     -1.61427789878785      0.84482285277363
  O   0.89534781020912     -2.01442703338876     -1.25668622377005
  N   1.86458639282926      0.91947698477684      0.06554127873922
  H   1.84376223992890      1.88582428907147     -0.22838322823456
  H   1.88340091643832      0.85787831715286      1.07644524597494
