16
Coordinates from ORCA-job run
  C   -0.73740749248823      0.49431043420258     -0.20969275124451
  C   0.79306713777302      0.27225174040718     -0.27769978747847
  Cl  -1.34502889887958      1.16042119775109     -1.75962574526746
  H   1.24122243090788      1.10619055309732     -0.83795675854427
  C   -1.52058808635895     -0.75044112751509      0.18856042189081
  H   -1.48924510840817     -1.48249053879825     -0.61599915343362
  H   -2.55966390422065     -0.48292992825958      0.38180658424415
  H   -1.07727004257884     -1.16622267204632      1.09500356946217
  C   -0.93349188855647      1.54812444585880      0.79109460606677
  N   -1.06244858100962      2.38608750213488      1.60480969154864
  N   1.15825740318912     -0.95023627928249     -1.10339070672571
  O   2.22519546200045     -1.48963260379850     -0.82424617506644
  O   0.41743431413269     -1.26993917742192     -2.02359571319694
  N   1.29969725895114      0.05405994047024      1.05152000545706
  H   1.36990279059808      0.93452897018989      1.54631726585911
  H   2.22036720494810     -0.36408245698982      0.99409464642872
