16
Coordinates from ORCA-job run
  C   -0.62995019298348      0.48664403016917      0.00552932907578
  C   0.80697776895830      0.11317059907469     -0.46108402678573
  Cl  -0.96869803433668      2.08600279132736     -0.74851712160548
  H   0.81908900071472      0.15391118629923     -1.55054105910736
  C   -1.68657610934494     -0.50995881690994     -0.45019357808103
  H   -1.55231774313349     -1.46324488607730      0.06455407182931
  H   -1.60545405728172     -0.67108391458714     -1.52641458648472
  H   -2.68044042382282     -0.12565764506030     -0.21959448657529
  C   -0.66027085822329      0.66766898045600      1.45506130333012
  N   -0.68468788042629      0.80927462638403      2.62152788776981
  N   1.01131555516881     -1.33575281411358     -0.10771096113351
  O   1.26795262327302     -1.57335524880524      1.06942353895973
  O   0.86985601271353     -2.16052603230648     -1.00626810882524
  N   1.89690418325643      0.85117343256564      0.07693802991925
  H   1.86211045281424      0.89055069211656      1.08850285882826
  H   1.93318970265357      1.78318301946729     -0.31121309111389
