16
Coordinates from ORCA-job run
  C   -0.71139287058950      0.49782208158571      0.07984708804126
  C   0.71372153448416      0.30090931477214     -0.48368807365020
  Cl  -1.28587802111738      2.07806818940133     -0.54364217523652
  H   0.68115325180681      0.44978232470738     -1.56336372229499
  C   -1.68669354925793     -0.58690035084055     -0.36351318845784
  H   -2.69372747621063     -0.31822875525737     -0.04473223855077
  H   -1.42329848139158     -1.54622363880964      0.08516820838969
  H   -1.66899114227923     -0.68133967290986     -1.45014643578054
  C   -0.66186843272481      0.57873693484415      1.53978983881973
  N   -0.60944896301120      0.62385954069888      2.71282848828376
  N   1.04555273024064     -1.18704533928141     -0.32085470897438
  O   1.42164079158391     -1.54489195000514      0.79314573252230
  O   0.89271319099722     -1.90657552644921     -1.30478120889838
  N   1.65051581574702      1.15804643800570      0.12947109756245
  H   1.80366898452292      0.91236011579137      1.10031189450433
  H   2.53133263719961      1.17362029374652     -0.36584059627986
