16
Coordinates from ORCA-job run
  C   -0.64538468101304      0.16430078587522      0.39678746001181
  C   0.65010136367690     -0.29633920386048     -0.30270044914654
  Cl  -0.28890949000603      1.61278014483362      1.40037459966193
  H   0.42392370809424     -1.21692778275187     -0.84635540785478
  C   -1.69618337439496      0.53316018264240     -0.64603427152805
  H   -2.60954681431255      0.85627531186156     -0.14600285461820
  H   -1.31386804879175      1.33010511153439     -1.28017643597742
  H   -1.91947169597571     -0.34186114506090     -1.26194438841708
  C   -1.17959833199652     -0.87455761348020      1.27723841452371
  N   -1.68518957823528     -1.70529730076488      1.93687078357505
  N   1.66092004033377     -0.74492829503832      0.76409881712735
  O   1.47908085012325     -1.85750368094383      1.24967708080501
  O   2.56611049490839      0.03561959596686      1.04084440245278
  N   1.15069242285251      0.69767290878277     -1.17302506108938
  H   1.88354074679075      0.32609789983169     -1.76259634753777
  H   1.52278238794602      1.47840308057193     -0.64605634198846
