16
Coordinates from ORCA-job run
  C   -0.80782861599242      0.41663195193435     -0.16150246860858
  C   0.73310850482649      0.38889839725398     -0.38447384086387
  Cl  -1.67215822932856      0.78897808070247     -1.68469348955564
  H   1.01060577752185      1.21087117914351     -1.05073188930668
  C   -1.32194569544547     -0.89205511124473      0.42049647168992
  H   -0.74504576250837     -1.13853420001180      1.31304806470605
  H   -1.22454683437158     -1.69121253417381     -0.31589197370882
  H   -2.37496535031208     -0.79098815429598      0.68307192247369
  C   -1.05140875990237      1.53045873958391      0.75681832259502
  N   -1.23852692498642      2.43583560923622      1.48170234978441
  N   1.07444504018546     -0.87030256733815     -1.14631925957270
  O   1.55614779724586     -1.80838758605585     -0.51454575436506
  O   0.80496599855404     -0.87159958786294     -2.34202414403616
  N   1.38277640681078      0.38667477049415      0.89419064195751
  H   2.04884233499849     -0.36996614198740      0.96818610062272
  H   1.82453431270433      1.27469715462204      1.08266894618817
