16
Coordinates from ORCA-job run
  C   -0.81861707136206      0.32979077157625     -0.15449612296870
  C   0.70656409735658      0.42741579707337     -0.39174332886956
  Cl  -1.65091885532819      0.25777953399206     -1.74093153651565
  H   0.91813680738007      1.32891188786417     -0.96747659201587
  C   -1.25602445272800     -0.85779943195039      0.69480857424922
  H   -0.79968131296952     -0.79339971401344      1.68416884965286
  H   -0.97523485668162     -1.79392123415806      0.21517551523312
  H   -2.33933079059632     -0.82732189066971      0.81380002031169
  C   -1.20801732282258      1.58004406029656      0.50068255382766
  N   -1.54532862580976      2.56816733947286      1.03902997904740
  N   1.15288253339612     -0.71295113291503     -1.30231330083204
  O   1.23913032800882     -1.82368919769364     -0.77920132407113
  O   1.41935142774946     -0.43762657174740     -2.46704849693998
  N   1.39189018673249      0.43625361530257      0.85105830822947
  H   1.44039818685940     -0.49440152794741      1.24662204678507
  H   2.32579972081513      0.81274769551721      0.75886485487647
