14

C	0.0	0.0	0.0
C	-0.548897	0.070573	-1.410554
Cl	1.811097	0.0	0.0
H	-0.455608	1.113813	-1.720596
H	-1.641479	-0.130712	-1.258676
N	-0.597977	0.987792	0.767104
H	-1.64403	0.799447	0.606025
H	-0.391807	0.821609	1.747187
N	-0.283975	-1.435281	0.584625
O	-0.296601	-1.514722	1.808129
O	-0.437741	-2.365264	-0.195081
C	0.05954	-0.78464	-2.41353
N	0.483563	-1.427549	-3.300403
H	-2.922185	0.0	0.0
