14

C	0.0	0.0	0.0
C	-0.554781	-0.008774	-1.411152
Cl	1.77422	0.0	0.0
H	-1.662221	-0.082382	-1.233372
H	-0.196699	-0.876738	-1.962901
N	-0.595098	0.999804	0.746651
H	-1.639226	0.813384	0.610733
H	-0.358238	0.894405	1.727105
N	-0.294151	-1.443544	0.602682
O	-0.421758	-1.491225	1.819747
O	-0.313499	-2.405994	-0.155236
C	-0.23015	1.214876	-2.121011
N	0.000213	2.182902	-2.745403
H	-2.93302	0.0	0.0
