15

C	0.0	0.0	0.0
C	-0.533216	-0.27995	-1.398099
F	1.35152	0.0	0.0
H	0.222328	-0.879981	-1.915207
H	-0.393007	0.901068	0.463269
N	-0.392763	-1.161581	0.882287
O	0.191001	-2.218329	0.663498
O	-1.229617	-0.945146	1.748839
N	-0.469062	1.069306	-2.190003
O	-0.973303	1.038493	-3.307783
O	0.094064	2.038652	-1.683848
N	-1.769964	-0.917828	-1.402531
H	-2.06455	-1.178394	-2.331568
H	-2.553311	-0.467311	-0.898226
Cl	-4.407435	0.0	0.0
