15

C	0.0	0.0	0.0
C	-0.542982	-0.265632	-1.421181
F	1.352404	0.0	0.0
H	-1.289274	-1.052791	-1.375593
H	-0.39037	0.925947	0.415686
N	-0.362466	-1.080614	0.992944
O	-0.547114	-2.217348	0.576203
O	-0.320247	-0.73357	2.170233
N	0.617515	-0.808856	-2.229218
O	1.303836	0.003423	-2.842597
O	0.818768	-2.019115	-2.187812
N	-1.084967	0.863563	-2.103884
H	-2.006086	1.00759	-1.69138
H	-0.505237	1.682871	-1.974254
Cl	-3.298424	0.0	0.0
