15

C	0.0	0.0	0.0
C	-0.581341	-0.281373	-1.383068
F	1.342592	0.0	0.0
H	-1.401895	-0.996255	-1.282183
H	-0.384297	0.939791	0.387146
N	-0.36251	-1.056474	1.027518
O	-0.752832	-2.154611	0.658804
O	-0.12594	-0.722682	2.186909
N	0.447741	-0.977743	-2.238084
O	0.988253	-1.966525	-1.753476
O	0.634093	-0.561129	-3.380151
N	-0.948547	0.981575	-1.976205
H	-1.85506	1.185007	-1.550641
H	-1.10325	0.834946	-2.966495
Cl	-3.345273	0.0	0.0
