15

C	0.0	0.0	0.0
C	-0.408879	-0.010302	-1.492576
F	1.357289	0.0	0.0
H	0.421825	-0.52365	-1.987484
H	-0.414736	0.788591	0.618955
N	-0.365292	-1.314446	0.637072
O	-0.732192	-1.284814	1.807399
O	-0.162607	-2.32568	-0.034749
N	-0.261153	1.448494	-1.980177
O	-0.585729	1.683271	-3.133749
O	0.215417	2.269739	-1.195665
N	-1.626855	-0.536426	-1.945429
H	-2.433655	-0.290407	-1.354119
H	-1.56627	-1.540577	-2.024941
Cl	-3.978672	0.0	0.0
