15

C	0.0	0.0	0.0
C	-0.171212	-0.251414	-1.535954
F	1.357399	0.0	0.0
H	0.262052	0.675376	-1.936118
H	-0.42018	0.933144	0.356923
N	-0.384828	-1.072204	0.976907
O	-0.670844	-2.190186	0.579713
O	-0.244684	-0.724307	2.14854
N	-1.493241	-0.268868	-2.284825
O	-1.992648	-1.346977	-2.559155
O	-1.840989	0.825016	-2.721778
N	0.531783	-1.446847	-1.93502
H	0.625478	-1.46691	-2.941149
H	1.448568	-1.460065	-1.517492
Cl	-3.111805	0.0	0.0
