15

C	0.0	0.0	0.0
C	-0.52388	0.064529	-1.415821
F	1.40248	0.0	0.0
H	-1.61761	0.031495	-1.269029
H	-0.315456	0.907888	0.524703
H	-0.190869	-0.836805	-1.94935
C	-0.531787	-1.19956	0.742203
H	-0.167216	-1.214371	1.774854
H	-0.21738	-2.12387	0.244213
H	-1.62646	-1.068575	0.695431
C	-0.071817	1.317243	-2.15722
H	-0.469023	2.209576	-1.662804
H	1.019457	1.400372	-2.184837
H	-0.439537	1.324916	-3.188945
F	-2.996376	0.0	0.0
