15

C	0.0	0.0	0.0
C	-0.531586	-0.15968	-1.408427
F	1.40298	0.0	0.0
H	-0.117366	0.650322	-2.023886
H	-0.308499	0.986978	0.358277
H	-1.617984	-0.021125	-1.267812
C	-0.528413	-1.036851	0.960043
H	-1.624526	-0.938312	0.869328
H	-0.181997	-2.039664	0.691924
H	-0.192622	-0.817744	1.979339
C	-0.210345	-1.51059	-2.040537
H	0.854313	-1.754184	-1.959615
H	-0.476533	-1.514259	-3.102808
H	-0.784108	-2.305989	-1.560595
F	-2.998473	0.0	0.0
