14

C	0.0	0.0	0.0
C	-0.329301	-0.048121	-1.488276
F	1.338093	0.0	0.0
H	-0.117883	-1.076327	-1.789379
H	0.422368	0.586516	-1.968809
N	-0.354661	1.32152	0.647259
O	-0.15073	1.432739	1.850753
O	-0.631699	2.235038	-0.119437
N	-0.416603	-1.233281	0.778607
O	-0.272637	-2.277592	0.146281
O	-0.712197	-1.14949	1.956276
C	-1.640888	0.334495	-2.009472
N	-2.439095	0.631944	-2.825495
F	-2.248846	0.0	0.0
