14
Coordinates from ORCA-job run
  C   -0.50968164419494     -0.16433857721181      0.21566032498530
  C   0.93258123656852      0.23563633246207     -0.19151649582394
  Br  -0.50036474701828     -0.74080324354999      2.07774746395109
  H   0.88059215743480      0.55204794950286     -1.24500974162438
  N   -0.86781415843169     -1.31543899946227     -0.58100809792528
  H   -1.71773911311322     -1.74465588376886     -0.23537395046514
  H   -1.01465733868038     -1.03359943959226     -1.54595795207915
  N   -1.31387707353489      1.03466141496767      0.14935482643278
  H   -2.21216680695957      0.89385692027853      0.59555488133698
  H   -1.46906014839876      1.29136589593422     -0.82118996830105
  C   1.86019945346410     -0.89531248050962     -0.11563945931596
  N   2.63633861271304     -1.77448445359922     -0.07045795038954
  C   1.42861140496455      1.37341787860154      0.58605571102233
  N   1.86503816518672      2.28564668594715      1.18178040819597
