15

C	0.0	0.0	0.0
C	-0.233456	0.120358	-1.537131
F	1.380094	0.0	0.0
H	0.397752	0.97521	-1.811674
H	-0.308012	0.935217	0.488108
N	-0.569702	-1.184321	0.540611
H	-0.376538	-1.205772	1.543823
H	-1.595054	-1.012773	0.443403
C	-1.60722	0.352344	-2.164006
H	-2.290516	-0.463443	-1.950069
H	-1.458229	0.474214	-3.246458
H	-2.085384	1.23771	-1.747536
C	0.400795	-1.048448	-2.169962
N	0.869278	-1.958701	-2.746307
H	-3.237691	0.0	0.0
