15

C	0.0	0.0	0.0
C	-0.509711	0.02367	-1.437891
F	1.396245	0.0	0.0
H	-1.608771	0.133813	-1.298681
H	-0.275331	0.951962	0.475546
N	-0.524421	-1.151517	0.656669
H	-0.321228	-1.072615	1.650288
H	-1.550224	-1.000053	0.557919
C	-0.189971	-1.25776	-2.203914
H	-0.587204	-1.204069	-3.220897
H	0.889178	-1.417629	-2.251082
H	-0.642773	-2.100992	-1.686885
C	0.014605	1.192284	-2.134073
N	0.433946	2.122678	-2.715987
H	-3.018294	0.0	0.0
