15

C	0.0	0.0	0.0
C	-0.37823	-0.11948	-1.492782
F	1.401032	0.0	0.0
H	0.071333	-1.067112	-1.836584
H	-0.330056	0.953917	0.395583
N	-0.447876	-1.095447	0.793507
H	-1.378515	-0.75543	1.105894
H	-0.683243	-1.853993	0.156415
C	0.231733	0.992779	-2.388013
H	-0.007486	0.813816	-3.45208
H	1.319334	1.049267	-2.281323
H	-0.187438	1.963687	-2.098532
C	-1.80218	-0.185656	-1.893832
N	-2.705854	-0.464107	-2.623298
H	-2.669572	0.0	0.0
