15

C	0.0	0.0	0.0
C	-0.510762	0.02668	-1.435518
F	1.396893	0.0	0.0
H	-1.610452	0.141557	-1.293079
H	-0.278261	0.94944	0.478613
N	-0.524289	-1.153419	0.659528
H	-0.336113	-1.051418	1.653854
H	-1.555559	-1.009115	0.556536
C	-0.196189	-1.256659	-2.202835
H	-0.662365	-2.096899	-1.692048
H	0.881785	-1.428007	-2.241598
H	-0.582757	-1.195962	-3.223288
C	0.01592	1.194103	-2.134769
N	0.430526	2.128424	-2.715052
H	-3.029329	0.0	0.0
