15

C	0.0	0.0	0.0
C	-0.41071	0.019117	-1.476805
F	1.407604	0.0	0.0
H	0.26706	0.727192	-1.968742
H	-0.313075	0.932549	0.474662
N	-0.551199	-1.085327	0.691551
H	-0.225127	-1.979955	0.356304
H	-0.488253	-1.010724	1.693732
C	-1.865594	0.452323	-1.683853
H	-1.947037	1.522365	-1.472605
H	-2.599098	-0.037114	-1.022692
H	-2.16557	0.292179	-2.722795
C	-0.115746	-1.293538	-2.060001
N	0.139286	-2.345404	-2.516275
H	-4.471702	0.0	0.0
