16

C	-0.429167	-0.009523	-1.43769
C	0.0	0.0	0.0
Cl	-2.32373	0.297907	-1.533856
H	1.093724	0.0	0.0
H	-0.041892	0.863401	-1.953713
N	-0.078393	-1.193792	-2.102419
H	-0.315978	-1.15343	-3.082919
H	-0.502469	-2.008017	-1.681699
C	-0.447239	-1.178526	0.827151
H	0.011555	-2.083113	0.419148
H	-0.070054	-1.061331	1.841636
H	-1.534709	-1.285077	0.859681
N	-0.34803	1.28081	0.613737
O	-0.634462	1.307354	1.818532
O	-0.213533	2.296505	-0.080383
H	2.584399	0.0	0.0
