16

C	-0.495425	-0.149218	-1.418899
C	0.0	0.0	0.0
Cl	0.210473	1.164769	-2.501356
H	1.089521	0.0	0.0
H	-0.011247	-1.046795	-1.805561
N	-1.910662	-0.269024	-1.545551
H	-2.325944	0.600104	-1.236616
H	-2.162844	-0.423512	-2.514113
C	-0.3452	-1.223002	0.837904
H	0.088312	-2.101594	0.353022
H	-1.423027	-1.365364	0.945864
H	0.129646	-1.11707	1.813127
N	-0.492687	1.195688	0.678388
O	-0.103164	1.378551	1.835462
O	-1.244097	1.986454	0.083323
H	2.627754	0.0	0.0
