16

C	-0.265813	0.017191	-1.484864
C	0.0	0.0	0.0
Cl	-2.033629	-0.308571	-1.883393
H	1.092259	0.0	0.0
H	-0.118713	1.028168	-1.864045
N	0.559963	-0.993435	-2.080683
H	0.653649	-0.814737	-3.072703
H	1.486403	-0.903652	-1.642681
C	-0.481635	-1.225816	0.734164
H	0.026591	-1.298493	1.695925
H	-0.225222	-2.097777	0.131818
H	-1.559263	-1.206338	0.900041
N	-0.431306	1.247082	0.64008
O	-0.287504	2.30396	0.012621
O	-0.829722	1.19637	1.811267
H	2.64691	0.0	0.0
