16

C	-0.272125	-0.065788	-1.481452
C	0.0	0.0	0.0
Cl	-2.042567	-0.420853	-1.850232
H	1.095693	0.0	0.0
H	-0.133417	0.922725	-1.918139
N	0.553691	-1.105063	-2.025283
H	0.645388	-0.980335	-3.025823
H	1.480698	-0.991175	-1.594203
C	-0.475767	-1.185147	0.801999
H	-1.553231	-1.158623	0.972829
H	0.038976	-1.207338	1.763088
H	-0.221845	-2.087419	0.243494
N	-0.4298	1.277779	0.574789
O	-0.790828	1.292244	1.75786
O	-0.32201	2.297879	-0.116175
H	2.641241	0.0	0.0
