16

C	-0.430989	-0.018045	-1.470634
C	0.0	0.0	0.0
Cl	-0.952999	-1.74545	-1.971271
H	1.090484	0.0	0.0
H	-1.364743	0.521852	-1.607211
N	0.575042	0.474175	-2.315644
H	0.322537	1.331887	-2.778957
H	1.489121	0.492785	-1.86642
C	-0.429705	-1.108864	0.931705
H	-0.019838	-2.048912	0.565492
H	-1.516865	-1.20044	1.010088
H	-0.006238	-0.913543	1.91568
N	-0.374117	1.315709	0.556103
O	-0.647645	2.245116	-0.219227
O	-0.32138	1.45945	1.780833
H	2.665941	0.0	0.0
