16

C	-0.235532	-0.117564	-1.496618
C	0.0	0.0	0.0
Cl	-1.992714	-0.351596	-1.885556
H	1.091602	0.0	0.0
H	0.039258	0.827868	-1.95749
N	0.536746	-1.173696	-2.109317
H	0.237866	-2.062906	-1.721798
H	1.494897	-1.016951	-1.775219
C	-0.524665	-1.128078	0.849932
H	-1.611867	-1.106617	0.932004
H	-0.093804	-1.072951	1.849573
H	-0.218955	-2.078841	0.407528
N	-0.444758	1.308999	0.49481
O	-0.961805	1.377383	1.618635
O	-0.218767	2.29739	-0.212367
H	2.665669	0.0	0.0
