13

C	-0.480947	-0.004525	-1.437899
C	0.0	0.0	0.0
Cl	0.140337	-1.43703	-2.272651
H	1.093186	0.0	0.0
H	-0.335253	-0.923612	0.475845
N	-2.025403	-0.127615	-1.483067
O	-2.522967	-0.883995	-0.66155
O	-2.616811	0.50131	-2.351275
C	-0.111397	1.20005	-2.171104
N	0.186846	2.172481	-2.759051
C	-0.545122	1.147662	0.711622
N	-1.011284	2.067709	1.273264
Cl	3.226352	0.0	0.0
