13

C	-0.477602	0.002934	-1.44857
C	0.0	0.0	0.0
Cl	0.125325	-1.385233	-2.331596
H	1.092794	0.0	0.0
H	-0.342509	0.92226	0.477288
N	-2.034318	-0.01419	-1.428243
O	-2.622868	-1.022213	-1.778433
O	-2.530572	1.017395	-0.991
C	-0.103393	1.238434	-2.131491
N	0.167466	2.232237	-2.696947
C	-0.531648	-1.149347	0.718186
N	-0.978199	-2.064344	1.303298
Cl	3.221121	0.0	0.0
