13

C	-0.480483	0.11336	-1.443214
C	0.0	0.0	0.0
Cl	0.120543	-1.202958	-2.431007
H	1.092496	0.0	0.0
H	-0.341968	0.882974	0.546957
N	-2.037712	0.094651	-1.419231
O	-2.531845	1.086531	-0.89602
O	-2.627762	-0.879837	-1.852502
C	-0.108572	1.397646	-2.030973
N	0.154968	2.431442	-2.523497
C	-0.531561	-1.200852	0.629024
N	-0.982654	-2.155472	1.142989
Cl	3.219612	0.0	0.0
