13

C	-0.530085	-0.000752	-1.42483
C	0.0	0.0	0.0
Cl	0.227053	1.310586	-2.339445
H	1.091259	0.0	0.0
H	-0.305183	0.950445	0.450442
N	-0.188953	-1.318989	-2.152744
O	-0.734479	-1.472367	-3.239725
O	0.589827	-2.075364	-1.596414
C	-1.984283	0.14138	-1.491498
N	-3.150298	0.288908	-1.484857
C	-0.570716	-1.090929	0.778385
N	-1.071161	-1.944807	1.40978
Cl	3.249905	0.0	0.0
