13

C	-0.548659	-0.017639	-1.415891
C	0.0	0.0	0.0
Cl	0.18393	1.291971	-2.35734
H	1.091359	0.0	0.0
H	-0.312719	0.943001	0.460135
N	-0.196757	-1.338965	-2.136122
O	0.700263	-2.006618	-1.656563
O	-0.839434	-1.567958	-3.153358
C	-2.004971	0.108793	-1.462033
N	-3.173078	0.240522	-1.452517
C	-0.549933	-1.109277	0.771051
N	-1.04311	-1.982016	1.381542
Cl	3.255414	0.0	0.0
