13

C	-0.479338	0.005132	-1.438484
C	0.0	0.0	0.0
Cl	0.112878	-1.441856	-2.271258
H	1.093192	0.0	0.0
H	-0.340736	-0.921746	0.474932
N	-2.025464	-0.084455	-1.490734
O	-2.549702	-0.788244	-0.638852
O	-2.592062	0.515224	-2.395468
C	-0.082181	1.200805	-2.172087
N	0.243393	2.166065	-2.758642
C	-0.53425	1.151882	0.714334
N	-0.974079	2.081604	1.28139
Cl	3.228251	0.0	0.0
