13

C	-0.433069	-0.093823	-1.450752
C	0.0	0.0	0.0
Cl	-2.199325	0.117391	-1.639863
H	1.093337	0.0	0.0
H	-0.342971	0.95865	0.39469
N	0.225836	1.081537	-2.200973
O	0.852867	0.818725	-3.215595
O	0.046149	2.180786	-1.700576
C	-0.050244	-1.343224	-2.090844
N	0.231188	-2.376323	-2.574108
C	-0.537748	-1.098444	0.783047
N	-0.9774	-1.980432	1.423534
Cl	3.203041	0.0	0.0
