19

C	0.0	0.0	0.0
C	-0.445246	0.130668	-1.511877
Br	1.982736	0.0	0.0
H	0.444172	0.299988	-2.126238
C	-0.364935	1.227407	0.835073
H	0.05328	1.08637	1.834048
H	0.015417	2.14438	0.38953
H	-1.454394	1.256809	0.888189
N	-0.517647	-1.135689	0.716009
H	-1.53782	-0.941502	0.682136
H	-0.354019	-1.98032	0.179097
N	-1.310872	1.30562	-1.663146
H	-2.161584	1.045631	-1.136347
H	-1.557337	1.367016	-2.647001
C	-1.136574	-1.145034	-2.012493
H	-2.05767	-1.268951	-1.441554
H	-0.501499	-2.034472	-1.946732
H	-1.388211	-1.000146	-3.068996
F	-2.981355	0.0	0.0
