19

C	0.0	0.0	0.0
C	-0.341484	-0.239019	-1.530371
Br	1.974363	0.0	0.0
H	0.540269	0.044947	-2.110862
C	-0.408243	1.398115	0.446603
H	-0.015789	1.573342	1.450854
H	-0.042051	2.158446	-0.242086
H	-1.500029	1.403048	0.459635
N	-0.561555	-0.925452	0.937275
H	-1.581505	-0.740485	0.825172
H	-0.384299	-1.87481	0.630429
N	-1.431465	0.631184	-1.965536
H	-1.680689	0.351204	-2.909776
H	-2.234869	0.434169	-1.332884
C	-0.616437	-1.721169	-1.796388
H	-0.722344	-1.878125	-2.875542
H	0.191665	-2.375193	-1.446866
H	-1.558232	-1.998312	-1.31769
F	-3.020808	0.0	0.0
