19

C	0.0	0.0	0.0
C	-0.466013	-0.272758	-1.442636
Br	1.980321	0.0	0.0
H	-1.556415	-0.28117	-1.275215
C	-0.446865	1.366408	0.490683
H	-1.539874	1.341357	0.391556
H	-0.165599	1.466634	1.540435
H	0.000545	2.18231	-0.078134
N	-0.516141	-0.988104	0.904408
H	-1.537492	-0.778647	0.827076
H	-0.385189	-1.882511	0.437472
N	-0.045199	-1.621212	-1.841936
H	-0.63796	-1.932261	-2.601493
H	0.910185	-1.584497	-2.186171
C	-0.10545	0.792345	-2.4721
H	-0.512312	1.771126	-2.204171
H	0.980645	0.882647	-2.58859
H	-0.531278	0.512249	-3.443343
F	-2.927421	0.0	0.0
