13

C	-0.523414	-0.106504	-1.433239
C	0.0	0.0	0.0
F	0.032771	-1.209483	-2.038643
H	1.094471	0.0	0.0
H	-1.607778	-0.260985	-1.403037
C	-0.239283	1.088074	-2.247413
N	-0.082408	2.037331	-2.919612
N	-0.450862	-1.187177	0.737273
H	-1.053106	-0.931002	1.50807
H	0.373557	-1.637664	1.11491
C	-0.495644	1.238618	0.601872
N	-0.955972	2.190555	1.114961
Cl	3.261581	0.0	0.0
