13

C	-0.429147	-0.01396	-1.463361
C	0.0	0.0	0.0
F	-1.785275	0.242593	-1.602009
H	1.102256	0.0	0.0
H	0.119016	0.758507	-2.009911
C	-0.152112	-1.325961	-2.067697
N	0.048701	-2.369511	-2.562758
N	-0.553238	-1.169491	0.70652
H	-0.623704	-0.945394	1.693562
H	0.150326	-1.901131	0.636701
C	-0.480917	1.23886	0.607124
N	-0.856828	2.236467	1.098818
Cl	3.267798	0.0	0.0
