13

C	-0.531886	0.002505	-1.428057
C	0.0	0.0	0.0
F	-0.072847	-1.133325	-2.072987
H	1.101257	0.0	0.0
H	-1.624635	-0.062288	-1.400896
C	-0.136595	1.190446	-2.198036
N	0.109626	2.139919	-2.84243
N	-0.534461	-1.214886	0.646303
H	-0.237581	-1.186931	1.616957
H	-0.01742	-1.986365	0.233156
C	-0.512299	1.185054	0.686461
N	-0.94821	2.123972	1.241073
Cl	3.293748	0.0	0.0
