13

C	-0.457999	0.028216	-1.447034
C	0.0	0.0	0.0
F	-1.845914	0.167639	-1.511075
H	1.102269	0.0	0.0
H	-0.014859	0.881968	-1.967306
C	-0.106508	-1.215001	-2.147314
N	0.1108	-2.182199	-2.773318
N	-0.459064	-1.211996	0.659965
H	-1.362426	-1.083102	1.093695
H	0.217934	-1.476216	1.363396
C	-0.456642	1.235665	0.656962
N	-0.856322	2.188209	1.216625
Cl	3.251235	0.0	0.0
