13

C	-0.396837	0.04832	-1.474701
C	0.0	0.0	0.0
F	-1.784314	0.149136	-1.599217
H	1.096097	0.0	0.0
H	0.048564	0.918197	-1.96356
C	0.008011	-1.184279	-2.166622
N	0.26305	-2.187266	-2.718793
N	-0.471881	-1.169475	0.717906
H	-1.377984	-1.468638	0.379185
H	0.201265	-1.916658	0.604386
C	-0.492288	1.229689	0.63482
N	-0.891193	2.222982	1.116969
Cl	3.248118	0.0	0.0
