13

C	-0.37455	0.009156	-1.49221
C	0.0	0.0	0.0
F	-0.117204	1.236289	-2.062683
H	1.095418	0.0	0.0
H	0.244773	-0.738823	-1.995707
C	-1.799686	-0.316474	-1.695881
N	-2.93083	-0.604992	-1.821972
N	-0.406117	-1.209461	0.690773
H	0.276246	-1.937692	0.528943
H	-1.335831	-1.520708	0.438629
C	-0.559057	1.184833	0.654201
N	-1.055363	2.123256	1.155437
Cl	3.259927	0.0	0.0
