13

C	-0.451738	-0.055053	-1.457467
C	0.0	0.0	0.0
F	-0.198467	1.137056	-2.103507
H	1.094236	0.0	0.0
H	0.115433	-0.850556	-1.945152
C	-1.895405	-0.344418	-1.558547
N	-3.043699	-0.576483	-1.633558
N	-0.414341	-1.249019	0.630777
H	-1.306257	-1.153033	1.099888
H	0.290648	-1.519029	1.305239
C	-0.51675	1.203731	0.661618
N	-0.969559	2.118213	1.244262
Cl	3.265688	0.0	0.0
