14

C	0.0	0.0	0.0
C	-0.452526	0.234817	-1.463501
F	1.391313	0.0	0.0
H	0.478013	0.170672	-2.048183
H	-0.356149	0.770656	0.681978
H	-0.34466	-0.970287	0.358407
C	-1.064461	1.623124	-1.611244
H	-1.289359	1.825211	-2.662651
H	-1.987282	1.590079	-1.027228
H	-0.386599	2.400175	-1.235839
N	-1.409362	-0.736033	-1.987593
H	-1.011677	-1.662839	-1.85797
H	-2.197954	-0.631843	-1.304181
F	-2.895872	0.0	0.0
