14

C	0.0	0.0	0.0
C	-0.457982	-0.165769	-1.458239
F	1.383064	0.0	0.0
H	0.468848	-0.359645	-2.019681
H	-0.350575	0.931839	0.443493
H	-0.351967	-0.840782	0.595354
C	-1.113175	1.120441	-1.97452
H	-0.455949	1.990288	-1.850617
H	-2.031052	1.224184	-1.390057
H	-1.353679	1.035196	-3.039991
N	-1.324938	-1.341782	-1.56156
H	-1.645057	-1.396648	-2.527981
H	-2.139109	-1.033907	-0.97768
F	-2.913283	0.0	0.0
