14

C	0.0	0.0	0.0
C	-0.511848	0.293461	-1.386953
F	1.397281	0.0	0.0
H	-1.593219	0.423609	-1.182211
H	-0.361545	-0.963638	0.352688
H	-0.341381	0.778278	0.678886
C	-0.293358	-0.897037	-2.318253
H	-0.894716	-1.743396	-1.972746
H	-0.610935	-0.6562	-3.339748
H	0.763289	-1.195476	-2.351693
N	0.11397	1.538951	-1.859189
H	1.096707	1.357798	-2.042421
H	-0.311209	1.79273	-2.744326
F	-2.784312	0.0	0.0
