14

C	0.0	0.0	0.0
C	-0.494046	0.145508	-1.423113
F	1.395166	0.0	0.0
H	-1.589056	0.102207	-1.280488
H	-0.355348	-0.928918	0.444767
H	-0.353233	0.832208	0.606739
C	0.016161	-0.981763	-2.307355
H	-0.332913	-1.948837	-1.932134
H	-0.356726	-0.846964	-3.324912
H	1.112265	-1.003496	-2.345088
N	-0.107805	1.439525	-2.015143
H	0.858117	1.626035	-1.754038
H	-0.672866	2.149804	-1.561003
F	-2.761142	0.0	0.0
