14

C	-0.506914	0.098225	-1.434159
C	0.0	0.0	0.0
Br	-0.367593	-1.660081	-2.31499
H	1.093848	0.0	0.0
H	-1.579618	0.307825	-1.433819
H	-0.35086	-0.927371	0.465702
C	0.258943	1.131063	-2.23384
H	-0.110164	1.209124	-3.258431
H	1.321141	0.876786	-2.241357
H	0.137503	2.094765	-1.732756
N	-0.449339	1.206371	0.714283
H	0.308987	1.535961	1.299335
H	-1.235941	0.990405	1.314231
Br	3.731294	0.0	0.0
