14

C	-0.51375	0.053363	-1.422561
C	0.0	0.0	0.0
Br	-0.115916	-1.632407	-2.368517
H	1.101003	0.0	0.0
H	-1.605788	0.094302	-1.427634
H	-0.32352	0.943958	0.460143
C	0.113496	1.198604	-2.195587
H	-0.177118	2.14301	-1.723258
H	-0.219912	1.21262	-3.235327
H	1.201705	1.118682	-2.159912
N	-0.607892	-1.095276	0.766805
H	-0.262815	-1.013141	1.717578
H	-0.208756	-1.958737	0.412519
Br	3.75335	0.0	0.0
