14

C	-0.547307	-0.019868	-1.420695
C	0.0	0.0	0.0
Br	-0.085236	1.66472	-2.316687
H	1.092268	0.0	0.0
H	-0.02728	-0.79201	-1.989703
H	-0.349833	0.906952	0.509402
C	-2.049326	-0.213279	-1.486969
H	-2.293606	-1.162775	-1.007102
H	-2.405748	-0.229337	-2.518922
H	-2.561932	0.597203	-0.960705
N	-0.43105	-1.237524	0.675828
H	0.37197	-1.627864	1.153303
H	-1.136776	-1.036946	1.372255
Br	3.697547	0.0	0.0
