14

C	-0.460311	0.095922	-1.456003
C	0.0	0.0	0.0
Br	-0.194331	-1.621661	-2.389069
H	1.094255	0.0	0.0
H	-1.543848	0.246656	-1.516343
H	-0.316267	0.945167	0.464389
C	0.297483	1.182583	-2.19491
H	1.369627	0.981979	-2.138905
H	0.108706	2.143966	-1.703531
H	-0.012524	1.257482	-3.239102
N	-0.502673	-1.10573	0.798675
H	0.028282	-1.935345	0.565026
H	-1.472612	-1.293099	0.568986
Br	3.735787	0.0	0.0
