14

C	-0.32523	-0.005858	-1.489736
C	0.0	0.0	0.0
Br	-2.292689	0.027468	-1.788659
H	1.097191	0.0	0.0
H	0.016268	0.933136	-1.929961
H	-0.361231	0.927197	0.453483
C	0.277076	-1.184886	-2.223439
H	1.356206	-1.168006	-2.038041
H	0.090806	-1.129634	-3.297658
H	-0.130674	-2.125939	-1.850594
N	-0.460481	-1.142806	0.774486
H	-1.401397	-1.403192	0.502299
H	0.154782	-1.929312	0.615665
Br	3.666624	0.0	0.0
