17
Coordinates from ORCA-job run
  C   -0.60944008469954     -0.24656883116951     -0.16579391572334
  C   0.88084719615690     -0.21550725132219     -0.57452151639758
  Br  -1.36991790928393     -1.87778086674181     -0.95706130418328
  H   0.92105132727141     -0.31138199438858     -1.66422482132688
  C   -0.76997977546658     -0.32740030988022      1.34283497497103
  H   -1.82822645095164     -0.34548909541687      1.60891686146541
  H   -0.30507179261780     -1.23090145306874      1.73856935330674
  H   -0.31420127665229      0.55289648376289      1.80989692389496
  C   -1.35792981757064      0.94075900796193     -0.75405182108258
  H   -2.42680124964048      0.84502864199573     -0.55667513271749
  H   -1.21610423299802      1.00072297741778     -1.83590863983937
  H   -1.00424255441206      1.87136990585092     -0.30109993927713
  N   1.63673081115253     -1.31347225098018      0.00714540193692
  H   2.47079693054100     -1.48987699935632     -0.53814732627685
  H   1.92786305847649     -1.08660160094507      0.95006121791629
  C   1.44411794316517      1.10604724528911     -0.22147000678078
  N   1.92050787752948      2.12815639099113      0.11052969011394
