17
Coordinates from ORCA-job run
  C   -0.43084802724112     -0.23901599494091      0.11970848784929
  C   1.03368110949757      0.20321777159523     -0.14271335731788
  Br  -0.50734777443591     -2.20221664534926     -0.02386165937514
  H   1.02327249671956      1.29887692483486     -0.05178781984565
  C   -0.87480027969404      0.15167586532950      1.52062138022361
  H   -0.80428544261681      1.23966199414263      1.63264162480791
  H   -0.25505194707778     -0.31787939936749      2.28533479095618
  H   -1.91233640903355     -0.14355137719847      1.68751305430554
  C   -1.35703122823140      0.34298927760880     -0.93681867600953
  H   -1.30913831311502      1.43733322414720     -0.90115975742659
  H   -1.09076201045410      0.00856807943825     -1.93998036696579
  H   -2.38737332043376      0.03885924894147     -0.74610714724598
  N   1.62561424072187     -0.11158701804864     -1.42786149818012
  H   1.15189887306001      0.38604261929040     -2.16978198247236
  H   1.56455596827420     -1.10706870638330     -1.60693121393784
  C   1.91775001727293     -0.29594131840049      0.92202239254272
  N   2.61320204678736     -0.69096454563979      1.78116174809164
