17
Coordinates from ORCA-job run
  C   -0.50257112652296     -0.30881503210273     -0.24626873165938
  C   1.04865467414694     -0.34156793278651     -0.33754237306799
  Br  -1.16502946743937     -1.36980964612508     -1.76831910120177
  H   1.34695548673393     -1.39438367114692     -0.39690786023716
  C   -0.97357896252951     -0.99468511362560      1.02778519457178
  H   -0.54373909717968     -1.99513409614303      1.12200314287522
  H   -0.69262041313355     -0.40010068185034      1.90174290752058
  H   -2.06035726545901     -1.09050182978565      1.02550142180227
  C   -1.06548445408301      1.09742547742108     -0.36924232021554
  H   -0.70571041721686      1.71631416525566      0.45942027376400
  H   -0.77452011656339      1.56496688058472     -1.31110473143196
  H   -2.15545569682538      1.07382548233776     -0.31821673655285
  N   1.76710922384803      0.25198994793000      0.77870114875289
  H   1.53474284774218      1.22933829213531      0.89827070857498
  H   1.58361918050223     -0.24883877793352      1.63732395054050
  C   1.50241611805478      0.31633278113029     -1.57212496603244
  N   1.85656948592462      0.89164375470456     -2.53202192800311
