17
Coordinates from ORCA-job run
  C   -0.50484688510457      0.46438161572913     -0.03518038723883
  C   0.91967927422676      0.13556031452009     -0.53334208088654
  Br  -0.72021585186590      2.41342006690596     -0.21830142930359
  H   0.98433211090555      0.46594358396360     -1.57502662915209
  C   -1.53969830637342     -0.20637465728861     -0.92369609474454
  H   -2.54592237896940      0.07182905142054     -0.60503040908125
  H   -1.41455564388872      0.09489101057670     -1.96624274641976
  H   -1.42257973405441     -1.28898890577562     -0.85581854811406
  C   -0.68969509494723      0.09901794823565      1.42809717388419
  H   0.04477672005194      0.59728628768752      2.06419744463995
  H   -0.59598625459046     -0.98504000914574      1.54642348742565
  H   -1.68652939448915      0.38798607034175      1.76533946182662
  N   1.13202860935489     -1.31016640871087     -0.50209007381002
  H   1.41121011002316     -1.60151137134128      0.42741726335149
  H   1.88498632551078     -1.55818791905164     -1.13260692061557
  C   1.94471870496920      0.86830916984377      0.23595145810634
  N   2.80029768924098      1.35364415208905      0.87890903013199
