17
Coordinates from ORCA-job run
  C   -0.56410549936929     -0.22691952012418     -0.13567750157142
  C   0.93418145514639     -0.10602085540157     -0.49544830089821
  Br  -1.18423590413533     -1.91164566958929     -0.96956631575085
  H   0.99935679206643     -0.07225429214805     -1.59456340554496
  C   -0.78440991486323     -0.32504981848548      1.36266517760433
  H   -0.45455727609715      0.60656451374123      1.83377656752149
  H   -1.84497246109611     -0.46599505072320      1.57904373311162
  H   -0.21362846961160     -1.14774421751306      1.78951581852720
  C   -1.36161777925215      0.90452001503285     -0.76409249812646
  H   -1.19130912939049      0.96213224020080     -1.84164025540345
  H   -1.07077912149236      1.85617714851232     -0.30965828682865
  H   -2.42884557785148      0.75369468682704     -0.59365555137688
  N   1.72497813054299     -1.17046892279616      0.11180260031357
  H   1.47341336435447     -2.05021408515087     -0.32428513563161
  H   2.71020010810958     -1.00535983381289     -0.05822647122682
  C   1.43008803657230      1.18356750034430      0.00785975751744
  N   1.82624324636703      2.21601616108620      0.40315006776365
