17
Coordinates from ORCA-job run
  C   -0.52727718585963     -0.23199809188080     -0.15883013136954
  C   0.95888477559791     -0.09415691163212     -0.59974892979963
  Br  -1.16099700642335     -1.93684517483405     -0.92904586944555
  H   0.96594708189293     -0.08759956935782     -1.69605208549700
  C   -0.67708799786358     -0.31033067506046      1.35009076819637
  H   -0.12541910825842     -1.15347696618198      1.76817772015721
  H   -1.72727570367763     -0.43153586590083      1.62080474015519
  H   -0.30870925381802      0.61620789358492      1.80227709928661
  C   -1.37281707944199      0.88179781388669     -0.75640209462381
  H   -1.07730409935882      1.84232528646558     -0.32463591667245
  H   -2.42973637329493      0.71683670243044     -0.53989498186121
  H   -1.24962224794751      0.93243721075110     -1.84083213568672
  N   1.90525495366912     -1.10307016996466     -0.16397914681507
  H   1.98957595768148     -1.11177106521537      0.84468395855753
  H   1.59729471621401     -2.01610042335768     -0.47536453528913
  C   1.44312468236169      1.22018761071210     -0.14792669335119
  N   1.79516388852673      2.26709239555493      0.25067823405840
