17
Coordinates from ORCA-job run
  C   -0.37136335129640      0.17371504191696      0.29859016235950
  C   0.94670560307812     -0.10976062971597     -0.47021230961756
  Br  0.09733085512168      1.00760900445902      2.02077310842181
  H   0.63295206462377     -0.57194377925117     -1.41719793580985
  C   -1.25424345189506      1.14240762458595     -0.47234939459643
  H   -1.49822309178444      0.71082221431711     -1.44980751234905
  H   -2.18680836293642      1.31883733790243      0.06673445214949
  H   -0.75925682369427      2.10141832833222     -0.62903770196067
  C   -1.10235091372511     -1.12701825978484      0.59304955114063
  H   -0.50456072871971     -1.79871090437830      1.20994348545757
  H   -2.03390575938379     -0.92608361652986      1.12439073804413
  H   -1.34566464031007     -1.63031142631300     -0.34966183912735
  N   1.91698982463143     -0.99970922360639      0.13629740983694
  H   1.54496739383828     -1.93731340686673      0.20708102612821
  H   2.16204046766974     -0.67112438725693      1.06301505857570
  C   1.61593454767040      1.15188832004811     -0.82303693357606
  N   2.13745636711187      2.16427776214141     -1.10757136507703
