12

C	-0.379855	-0.046803	-1.458781
C	0.0	0.0	0.0
F	-1.760176	0.01984	-1.673007
H	1.103773	0.0	0.0
H	-0.019252	-0.989412	-1.884042
H	0.085204	0.789522	-1.985732
N	-0.478052	-1.209288	0.711624
H	0.239133	-1.905527	0.517996
H	-0.377439	-1.020644	1.706683
C	-0.516298	1.198687	0.636999
N	-0.90442	2.176052	1.162728
H	2.784621	0.0	0.0
