12

C	-0.424618	-0.078115	-1.45789
C	0.0	0.0	0.0
F	-0.335805	1.151435	-2.094103
H	1.094667	0.0	0.0
H	0.249116	-0.774866	-1.963916
H	-1.464951	-0.41742	-1.556483
N	-0.338088	-1.226358	0.720588
H	0.476133	-1.833865	0.674704
H	-1.137987	-1.696791	0.313244
C	-0.574596	1.167502	0.659313
N	-1.04531	2.106439	1.186973
H	2.733623	0.0	0.0
