12

C	-0.506479	0.024946	-1.427676
C	0.0	0.0	0.0
F	-0.18943	-1.176043	-2.05724
H	1.101102	0.0	0.0
H	-0.02097	0.833654	-1.979305
H	-1.595532	0.126932	-1.4622
N	-0.537909	-1.190749	0.689875
H	-0.24405	-1.973509	0.11006
H	0.011256	-1.281398	1.541888
C	-0.474677	1.21401	0.660981
N	-0.84868	2.202408	1.173219
H	2.822421	0.0	0.0
