12

C	-0.529362	-0.009607	-1.420708
C	0.0	0.0	0.0
F	-0.452287	1.247025	-2.012862
H	1.099788	0.0	0.0
H	-1.577605	-0.323949	-1.437763
H	0.081949	-0.70438	-2.003807
N	-0.340089	-1.296213	0.607573
H	-1.030384	-1.192616	1.335395
H	0.517316	-1.634423	1.031322
C	-0.514256	1.132223	0.761673
N	-0.958949	2.007249	1.411184
H	2.738276	0.0	0.0
