12

C	-0.512934	-0.096184	-1.423959
C	0.0	0.0	0.0
F	-0.446811	1.129269	-2.08011
H	1.093717	0.0	0.0
H	-1.556854	-0.429345	-1.442165
H	0.11821	-0.810462	-1.958424
N	-0.350806	-1.257212	0.679587
H	-1.130145	-1.129377	1.31162
H	0.463956	-1.528527	1.222016
C	-0.51876	1.179294	0.685055
N	-0.968514	2.093899	1.272299
H	2.757546	0.0	0.0
