19

C	0.0	0.0	0.0
C	-0.56761	-0.028883	-1.41653
Cl	1.804567	0.0	0.0
H	-1.67059	-0.070302	-1.24589
C	-0.490515	1.281545	0.650852
H	-0.145034	1.320788	1.687248
H	-1.589527	1.231804	0.624285
H	-0.140379	2.15798	0.108052
C	-0.478	-1.189601	0.812454
H	-1.576032	-1.181257	0.755182
H	-0.160355	-1.063452	1.850784
H	-0.086199	-2.134636	0.437876
N	-0.195164	-1.336599	-2.110299
O	0.736082	-1.311143	-2.923281
O	-0.851483	-2.341147	-1.839824
N	-0.180043	1.098706	-2.193618
H	-0.732642	1.137527	-3.040665
H	0.797203	1.014688	-2.448671
H	-3.265384	0.0	0.0
