19

C	0.0	0.0	0.0
C	-0.581152	-0.03046	-1.409278
Cl	1.804512	0.0	0.0
H	-1.683463	-0.08053	-1.223359
C	-0.484374	1.284271	0.652059
H	-0.131105	2.158849	0.108204
H	-0.134877	1.32142	1.687355
H	-1.583945	1.240243	0.629383
C	-0.471946	-1.185404	0.823913
H	-1.570537	-1.179505	0.774659
H	-0.146116	-1.050878	1.858642
H	-0.081481	-2.132556	0.453099
N	-0.206325	-1.331177	-2.114569
O	-0.824069	-2.350927	-1.81308
O	0.686243	-1.286422	-2.968235
N	-0.219024	1.104149	-2.189292
H	0.742019	1.013953	-2.495799
H	-0.815169	1.15821	-3.004829
H	-3.256327	0.0	0.0
