19

C	0.0	0.0	0.0
C	-0.549192	-0.000623	-1.432387
Cl	1.800328	0.0	0.0
H	-0.075335	-0.816887	-1.991406
C	-0.414834	1.275282	0.725613
H	-0.107998	2.138557	0.133176
H	0.044108	1.304059	1.719875
H	-1.502449	1.304396	0.822242
C	-0.425009	-1.249182	0.760012
H	0.073735	-1.277306	1.733484
H	-0.147479	-2.153908	0.209443
H	-1.507643	-1.230392	0.910225
N	-0.334926	1.227242	-2.246127
O	0.914917	1.518439	-2.474099
O	-1.263233	2.188418	-1.996545
N	-2.027508	-0.139199	-1.365283
H	-2.362425	-0.94293	-1.886793
H	-2.294977	0.782403	-1.790176
H	-2.872396	0.0	0.0
