19

C	0.0	0.0	0.0
C	-0.585151	-0.046249	-1.40704
Cl	1.804274	0.0	0.0
H	-1.687145	-0.094974	-1.21598
C	-0.483253	1.291746	0.63822
H	-0.130445	2.159823	0.083737
H	-0.132037	1.340393	1.672465
H	-1.58269	1.248175	0.61766
C	-0.470765	-1.175982	0.838134
H	-0.14332	-1.029526	1.870758
H	-0.080787	-2.127257	0.477659
H	-1.569305	-1.170948	0.790821
N	-0.211767	-1.353568	-2.099721
O	-0.825587	-2.370985	-1.783282
O	0.675351	-1.316697	-2.959303
N	-0.22818	1.080813	-2.200522
H	0.727962	0.983866	-2.518838
H	-0.835139	1.130902	-3.007909
H	-3.255647	0.0	0.0
