19

C	0.0	0.0	0.0
C	-0.679907	0.006002	-1.372639
Cl	1.788653	0.0	0.0
H	-1.760822	-0.166641	-1.074936
C	-0.46011	1.279281	0.68901
H	-0.106366	2.154572	0.147043
H	-1.558427	1.256695	0.701285
H	-0.079464	1.295016	1.713464
C	-0.443834	-1.183327	0.854917
H	-0.091099	-1.027511	1.878035
H	-0.049664	-2.127893	0.486362
H	-1.540278	-1.198921	0.843128
N	-0.254173	-1.15345	-2.231819
O	-0.423132	-2.288881	-1.794583
O	0.235853	-0.920337	-3.34289
N	-0.550685	1.245381	-2.083226
H	-0.036466	1.099615	-2.939946
H	-1.478391	1.597242	-2.29127
H	-3.230169	0.0	0.0
