19

C	0.0	0.0	0.0
C	-0.436903	0.073579	-1.490105
Cl	1.796926	0.0	0.0
H	0.328167	-0.403613	-2.111521
C	-0.516211	1.163149	0.826593
H	-0.227963	1.017707	1.871336
H	-0.109302	2.11657	0.485919
H	-1.610375	1.17019	0.750142
C	-0.471952	-1.318111	0.594921
H	-0.043588	-1.431164	1.595411
H	-0.162104	-2.161935	-0.024419
H	-1.563743	-1.298573	0.65653
N	-0.272395	1.563489	-1.949329
O	-1.260178	2.292032	-1.920215
O	0.847611	1.913043	-2.331732
N	-1.713193	-0.45029	-1.691795
H	-2.479821	-0.178072	-0.988821
H	-2.043944	-0.290353	-2.635486
H	-3.584589	0.0	0.0
