19

C	0.0	0.0	0.0
C	-0.569996	0.042342	-1.418401
Cl	1.801473	0.0	0.0
H	-0.369068	-0.906731	-1.924008
C	-0.424932	1.190864	0.852617
H	-0.162038	2.111318	0.334275
H	0.066659	1.133097	1.828248
H	-1.509333	1.154659	1.006774
C	-0.439302	-1.302452	0.658485
H	-0.019103	-1.378146	1.664847
H	-1.531608	-1.313417	0.725693
H	-0.101467	-2.164636	0.077126
N	-0.049058	1.088814	-2.291536
O	-0.415426	2.31235	-1.879499
O	-0.040591	0.777915	-3.568296
N	-2.016984	0.231046	-1.236623
H	-2.069874	1.260442	-1.306836
H	-2.495949	-0.139432	-2.056056
H	-3.061899	0.0	0.0
