13
Coordinates from ORCA-job run
  C   0.53902945956008      0.65918395888363      0.07617939757043
  C   -0.74901391451348      0.17635826449204      0.71300188056473
  F   0.17991165418589      1.49140447386307     -0.99940515055680
  H   -0.49657723694533     -0.43844441090645      1.58266807524216
  H   1.08023747147145      1.29482223195443      0.78523861817831
  H   -1.29253925173492      1.06074664445476      1.07824748916494
  C   1.42756568777052     -0.44163922336857     -0.45172515782811
  H   0.87295962751458     -1.06430314335785     -1.15146231360958
  H   1.77639789837304     -1.07025242318461      0.37138417034826
  H   2.29639616137491     -0.01188265199971     -0.95326370813819
  N   -1.50443041297215     -0.63299275603008     -0.23789755552967
  H   -1.78341202581148     -0.04224327314821     -1.01148358421122
  H   -2.34852511827311     -0.98175769165244      0.19751783880474
