13
Coordinates from ORCA-job run
  C   0.59382792081709      0.69612817919888      0.08611214541904
  C   -0.77904700125896      0.32882385961038      0.62277085974296
  F   0.43807598600085      1.63294814739249     -0.93695557630120
  H   -1.30906728691211      1.26558000518142      0.81384438349619
  H   1.16082354426674      1.19786119987645      0.87972312475784
  H   -0.64282980521499     -0.16860866944915      1.59495829501253
  C   1.36517932986999     -0.47962422783872     -0.46557911077444
  H   0.80182042209537     -0.92116766601955     -1.28764768320423
  H   2.33593086121385     -0.15224643392041     -0.84067838039242
  H   1.52991794352419     -1.23451116577939      0.30860423451303
  N   -1.53855792260182     -0.46451754937066     -0.34046817374116
  H   -2.52319967616591     -0.24840908657578     -0.28072766331864
  H   -1.43087431563430     -1.45225659230596     -0.15495645520952
