13
Coordinates from ORCA-job run
  C   0.59212446217095      0.46955334663902      0.32747113191521
  C   -0.93086081873606      0.50709272185049      0.36138486336707
  F   1.03932971332392      1.79562839768100      0.29822712519090
  H   -1.23517860165083      1.14392523374671      1.19653286688276
  H   0.97252636859405      0.03319972379494      1.25935900843353
  H   -1.28169463396790      0.99522589949421     -0.55300483885359
  C   1.17085272403751     -0.24887764934918     -0.86956764486481
  H   0.79250679410819      0.19814596706412     -1.79214228114179
  H   0.91117241060127     -1.30917595743857     -0.85651278544604
  H   2.25885472365559     -0.16636260289602     -0.86743856956354
  N   -1.59797914251205     -0.78106759789916      0.48919026816872
  H   -1.40976111361621     -1.36851755683595     -0.31177003132526
  H   -1.28289288600842     -1.26876992585161      1.31827088723685
