13
Coordinates from ORCA-job run
  C   0.50862347203631      0.66889843382887      0.08337105832685
  C   -0.79579798012544      0.28563206519255      0.76901651853479
  F   0.18175544795559      1.48994249600234     -1.00813268063903
  H   -1.28003227294888      1.20858863111976      1.10156870786477
  H   1.11088044168962      1.28352606833502      0.76223809157251
  H   -0.56750384693081     -0.29666041294752      1.66764434690365
  C   1.31975246655014     -0.49463513152765     -0.43785870240210
  H   0.74390299409344     -1.06276339758117     -1.16985060516703
  H   1.60817105878413     -1.15966181329453      0.38009621458506
  H   2.22546281879994     -0.13442343345304     -0.92783012197355
  N   -1.75129870427117     -0.45462165295034     -0.04225870311731
  H   -1.39852734868273     -1.37536640003856     -0.26717316693081
  H   -1.90438854695013      0.04054454731428     -0.91183095755778
