16
Coordinates from ORCA-job run
  C   0.65759197048630      0.15129239501240      0.00774825454910
  C   -0.76699705773320     -0.03972564037558     -0.52697459404504
  Cl  1.73289314073566     -1.00184698199755     -0.88131095379827
  H   -0.75395218953312      0.12570076488679     -1.60856637564456
  H   -1.37335627194627      0.76425400818951     -0.08956886922820
  N   0.83840326010205     -0.12950835405277      1.41789987764283
  H   0.55456633366231     -1.07746107238960      1.63356108130527
  H   0.26599553797372      0.50906120561606      1.96036074697729
  C   1.15937258448652      1.55615651952527     -0.27356382298871
  H   1.10174920214775      1.78292423977737     -1.33901790449685
  H   0.54421075597057      2.28078073735155      0.27014892908728
  H   2.19200430935558      1.65026786128204      0.06175596660643
  C   -1.40816830663728     -1.38604089964995     -0.21529682008505
  H   -1.53629414089526     -1.53292722138341      0.85944011229134
  H   -0.80947303090934     -2.20918745584521     -0.60823232371108
  H   -2.39954609726599     -1.44574010594691     -0.66938330446178
