16
Coordinates from ORCA-job run
  C   0.69786058883642     -0.10606980645792      0.14729678718560
  C   -0.65879372990936     -0.80010095248294      0.21963026176502
  Cl  1.65086189194187     -0.83296633851404     -1.20925712477769
  H   -1.14780631168649     -0.44378762527370      1.13630085046809
  H   -0.46053793845973     -1.86523248219676      0.36111608145734
  N   1.42529928317075     -0.42859340293381      1.36092379246269
  H   0.91482068334530     -0.06050819639061      2.15701926826947
  H   2.34015464597755      0.00911831979232      1.34358516896775
  C   0.59208162383390      1.38658830704804     -0.13843917767180
  H   0.13590820299327      1.59022565547810     -1.10769913605541
  H   1.58628325881626      1.83851819886592     -0.12941189430358
  H   -0.01237982205821      1.85978169874816      0.64264081676786
  C   -1.58320907372844     -0.57370474803984     -0.96963612167508
  H   -2.48132092664222     -1.18656319035063     -0.86618531928033
  H   -1.90418198536061      0.46701734208573     -1.04511442588824
  H   -1.09504039107028     -0.85272277937802     -1.90476982769167
