16
Coordinates from ORCA-job run
  C   0.80325082646480     -0.07739138881646     -0.00002251945909
  C   -0.30450572219881     -0.83912564511793     -0.72279142884018
  Cl  2.36999862988576     -0.61654111620510     -0.72209443045878
  H   -0.26411985219642     -0.57696836044183     -1.78426495560769
  H   -0.06776153845983     -1.90241748177273     -0.63909494330163
  N   0.84069386391615     -0.48454612069865      1.39555121597252
  H   1.67030018329177     -0.10258088326503      1.83687032909091
  H   0.03561470487426     -0.09173686756540      1.87221399274004
  C   0.72430012713174      1.43078832739310     -0.20856582838672
  H   0.72468747082852      1.68775933112864     -1.26998885011952
  H   -0.18921614338926      1.82177007741786      0.24780302557630
  H   1.57820916819215      1.91950839174773      0.26506668786635
  C   -1.70358925212863     -0.58147154681889     -0.16828899687396
  H   -1.98710581811007      0.47193788734616     -0.22228027267192
  H   -2.43920045082547     -1.14396890556103     -0.74750126293863
  H   -1.79055619727665     -0.91701569877043      0.86738823741201
