16
Coordinates from ORCA-job run
  C   0.84733462382331      0.01589626726757      0.01026931668353
  C   -0.23266738536854     -0.83319484532354     -0.66975972316777
  Cl  2.41363606180960     -0.47641107615189     -0.76465282277702
  H   0.02571415368255     -1.88598616667539     -0.51218230802966
  H   -0.18794317555592     -0.66106401567468     -1.74941681225123
  N   1.00408215235355     -0.21247376003013      1.42845904046018
  H   1.03005613392199     -1.20492363811981      1.63256931475792
  H   0.23603371796055      0.20895135191605      1.93634954568275
  C   0.66930838964511      1.50435149221427     -0.22863891946543
  H   -0.24092416498397      1.86211030815861      0.26092772774065
  H   0.59828772767544      1.71784088563837     -1.29597463829760
  H   1.52099079026454      2.04187906243945      0.18805194162339
  C   -1.64366152462844     -0.56343148927195     -0.15495342359385
  H   -2.35068760031319     -1.25264850848477     -0.62190395966668
  H   -1.71282144383311     -0.71127434719982      0.92529211592548
  H   -1.97673845645347      0.45037847929767     -0.38543639562465
