14
Coordinates from ORCA-job run
  C   -0.78447145287958      0.06095467407298     -0.31349161680615
  C   0.61512309838385     -0.54535017407123     -0.09261278707085
  F   -1.17067412957283     -0.37537448351618     -1.59356022157962
  H   0.48181001521474     -1.62749599223244     -0.20879659351531
  N   -1.67267493055608     -0.31940789423888      0.70305393973228
  H   -2.62281579782180     -0.03597851243023      0.50383190263930
  H   -1.61792908709187     -1.30502606475810      0.91962748756452
  C   -0.71208370648526      1.53523262120069     -0.37841752265271
  N   -0.61995819004583      2.70548745745104     -0.39652174752558
  N   1.09772283362977     -0.27939884829042      1.24671640691243
  H   2.01300252497308     -0.69544378742970      1.37056841603653
  H   1.18849681813961      0.71958542343565      1.39759963580886
  C   1.51166729742372     -0.09639800106917     -1.17780839826893
  N   2.29278470668846      0.25861358187600     -1.98018890127476
