14
Coordinates from ORCA-job run
  C   -0.85356520580084     -0.12947177002910     -0.14648467434004
  C   0.66466836735508     -0.35416808417249     -0.33699917324880
  F   -1.38664800502556     -1.43307000959195     -0.23002954258058
  H   0.80023253656885     -0.90657341150979     -1.27712048013234
  N   -1.16687650707755      0.46239528960105      1.07937737301676
  H   -0.42522194473801      0.39604333589064      1.76069237039759
  H   -1.65151684285879      1.34216659969857      1.05194294668286
  C   -1.41483332670725      0.62509296264487     -1.27914904715188
  N   -1.84696607004221      1.23386203501705     -2.18526186516698
  N   1.14297078616941     -1.04908434929356      0.85211687482813
  H   2.15294237388308     -1.11793431196620      0.83890924886012
  H   0.75543635578165     -1.98552641504544      0.85951649438315
  C   1.33745750614436      0.94235673145289     -0.45120218074289
  N   1.89091997634779      1.97391139730345     -0.53630834480511
