14
Coordinates from ORCA-job run
  C   -0.74005204294756      0.08192294664015     -0.30594709366779
  C   0.69412581380882     -0.45308643673194     -0.16174754015648
  F   -1.19325861670189     -0.30934041984076     -1.56990361858669
  H   0.60823107249934     -1.55174847476169     -0.22734709186791
  N   -1.53566664990587     -0.44792397455073      0.74158042083747
  H   -1.66125775843568     -1.44557382430980      0.61092447769876
  H   -2.44155144476320      0.00133419386606      0.78813374987077
  C   -0.76650568890890      1.55343504217975     -0.26183989275365
  N   -0.83864389756846      2.72473248900066     -0.26032322788703
  N   1.24170930321325      0.05724498536297      1.07935721238740
  H   0.69707590364715     -0.29578381930140      1.85608319908061
  H   2.21018296500244     -0.21370962729339      1.18833229319605
  C   1.51742126843439     -0.01494687596082     -1.29332663805091
  N   2.20718977262618      0.31344379570095     -2.18397625010058
