14
Coordinates from ORCA-job run
  C   -0.81424967069490     -0.10913396565429     -0.21316540121656
  C   0.68029929232653     -0.40082918691651     -0.45502427332193
  F   -1.53055348184138     -1.24868104909245     -0.46508618985322
  H   0.79458669045524     -0.66714252934836     -1.51072798790078
  N   -1.01885081680234      0.22899793069840      1.16769743079130
  H   -2.01248161723938      0.24410682835418      1.36821560220978
  H   -0.63080750080901      1.14203922215903      1.37863379714378
  C   -1.28717443670667      0.92218023794888     -1.17316636484671
  N   -1.66349995507868      1.76712708098071     -1.89776161671567
  N   1.07632004199495     -1.52294673707651      0.36443516696935
  H   2.05922912275278     -1.72630815296283      0.23571066964097
  H   0.89904296320832     -1.31083153534113      1.33850009547109
  C   1.42414211864447      0.85371686484572     -0.20348540516227
  N   2.02299724979008      1.82870499140517      0.06522447679086
