14
Coordinates from ORCA-job run
  C   -0.86275142207145     -0.08949928883723     -0.12349414119091
  C   0.63543010629352     -0.42455543754476     -0.31049584712262
  F   -1.47552267247319     -1.35956491905367     -0.07903365324612
  H   0.71957767774187     -1.07023335420386     -1.19556772475160
  N   -1.11690586973481      0.63113341483598      1.04562561473539
  H   -1.55186965734398      1.53123580783190      0.94421893277649
  H   -0.36777209362720      0.58370461081291      1.72028846375905
  C   -1.39703527186789      0.59103718641067     -1.31469800300874
  N   -1.80676469499252      1.14112795207764     -2.26751139524697
  N   1.09280681484427     -1.03355184602763      0.93278941959941
  H   0.65069185572375     -1.94000126787527      1.03309903704338
  H   2.09648854035238     -1.16453449841978      0.91335390638363
  C   1.38387431385765      0.81086573965507     -0.55520465876645
  N   1.99875237329760      1.79283590033804     -0.74336995096394
