14
Coordinates from ORCA-job run
  C   -0.76965280631979     -0.09805976810003     -0.34724120756164
  C   0.75394859962995     -0.33182298759566     -0.38633020196192
  F   -1.39776028734748     -1.21262012528186     -0.83518059128050
  H   1.03625618937803     -0.46906052738929     -1.43514772932178
  N   -1.19363796808311      0.07120850075634      1.01425624853145
  H   -2.20607407669293      0.04575252746608      1.05899309149100
  H   -0.87377730821045      0.95882662169509      1.38624730662073
  C   -1.12639833354820      1.03057673787412     -1.24606727733005
  N   -1.41130120537624      1.94995256115340     -1.91992156476509
  N   1.06209718247296     -1.53567225156036      0.35061970485312
  H   2.05974669845519     -1.70522636676395      0.35096664573122
  H   0.73369597003085     -1.44367095414799      1.30397302621638
  C   1.40604827324991      0.89719073300954      0.11874493771566
  N   1.92580907236131      1.84262529888457      0.58508761106141
