14
Coordinates from ORCA-job run
  C   -0.78535184840738      0.09104075786687     -0.30389123838317
  C   0.60036471169023     -0.55786371371652     -0.11822351544451
  F   -1.19697293780745     -0.29618939966873     -1.59135095299742
  H   0.43855281896321     -1.63131132361149     -0.27261315345199
  N   -1.67131374033791     -0.29677722203421      0.71177631129648
  H   -1.63456000791428     -1.28803157976296      0.90412934459451
  H   -2.61729054544669      0.01103481531534      0.52978468489126
  C   -0.67560936411098      1.56444116386124     -0.32544433672137
  N   -0.55798106979172      2.73253131203456     -0.30973108033160
  N   1.10089619799551     -0.35374007089142      1.22553892098350
  H   2.00617102740234     -0.79737229049391      1.32535046677933
  H   1.21927492446919      0.63642132586709      1.41176854804190
  C   1.49805441785821     -0.09112597058723     -1.19498608270894
  N   2.27676541543770      0.27794219582137     -1.99310791654797
