14
Coordinates from ORCA-job run
  C   -0.75069620373736     -0.08481671941479     -0.07733342186631
  C   0.71282881075566     -0.48799021222323     -0.39652691944111
  F   -1.44733470286040     -1.25726027599123      0.14045558825884
  H   0.69618774651173     -1.04159394158874     -1.34126400845891
  N   -0.79371268596499      0.66476423002264      1.14089751099115
  H   -0.33255973769452      1.56156053511032      1.03222462772540
  H   -1.75597728636181      0.82469553588792      1.41684391537602
  C   -1.37709338089175      0.57919463805030     -1.24471760267970
  N   -1.84725778651994      1.14571364025252     -2.16079059765054
  N   1.31890254343218     -1.31643755398032      0.62028201161210
  H   0.84999815253546     -2.21403467541646      0.63319518789778
  H   1.18067282805286     -0.88164263925050      1.52601368138376
  C   1.48782421268373      0.74436516170778     -0.59013109314067
  N   2.06021749005913      1.76348227683381     -0.70014888000780
