14
Coordinates from ORCA-job run
  C   -0.66778445002615      0.20399216701522     -0.04109612504151
  C   0.76610543623633     -0.34533848786240      0.17428047841698
  F   -0.56972996924734      1.15179044078604     -1.07877966695056
  H   0.72306183243505     -1.01405438184428      1.03960534933997
  N   -1.58779299231811     -0.82509878370460     -0.30537022316994
  H   -2.53540952890951     -0.48034170420460     -0.38812226420079
  H   -1.33282375707326     -1.34800184014427     -1.13504572594681
  C   -1.06908952697482      0.95138349121166      1.16535970529240
  N   -1.33897075388047      1.54414652367869      2.14180814486788
  N   1.78190780481503      0.65589964313709      0.40070566852870
  H   1.66161038585297      1.08518396939660      1.30951988154377
  H   1.73580757272269      1.37200186994082     -0.31327234880290
  C   1.10846718286632     -1.15395452957574     -1.00572267142611
  N   1.32564076350127     -1.79760837783024     -1.96287020245109
