14
Coordinates from ORCA-job run
  C   -0.64450071950304      0.27214633165592     -0.01124583945926
  C   0.72661340184882     -0.44028525710727      0.12034901862274
  F   -0.43612153691391      1.35916189044447     -0.88286137824335
  H   0.60336510356086     -1.23041307099053      0.86754802728300
  N   -1.65192716510573     -0.60810577271871     -0.44146082459565
  H   -1.42975884753805     -1.01760635266378     -1.34115060628931
  H   -2.56090717378629     -0.16528867364703     -0.47406555169615
  C   -0.99772753638800      0.85247915332014      1.29786719989326
  N   -1.23159258013350      1.30101342610023      2.35708179705890
  N   1.82769413637608      0.40971159165474      0.50846781900143
  H   1.86350745996694      1.23094354036158     -0.08230984817897
  H   1.73008765479286      0.69933216250556      1.47354275602361
  C   1.01444290125184     -1.08072148322912     -1.17213852514328
  N   1.18682490157113     -1.58136748568621     -2.21962404427697
