14
Coordinates from ORCA-job run
  C   -0.69401794697185      0.30529115928680     -0.03104011855480
  C   0.66067066794145     -0.36263791597128      0.25576372473279
  F   -0.43651178876676      1.30030163119430     -0.99661176747116
  H   0.50384782217417     -1.05105985021450      1.09074072309088
  N   -1.65410073132412     -0.63570960934938     -0.44850045488574
  H   -2.57028618689550     -0.22014505608225     -0.55321399847385
  H   -1.37825853120866     -1.09273144670659     -1.30947123495707
  C   -1.16881739074752      1.00333485875511      1.17713874201606
  N   -1.59221551521269      1.54463797663188      2.12809691033454
  N   1.61394712565096      0.65200322136593      0.64681851897559
  H   2.46569933765131      0.23172807310656      0.99453524945434
  H   1.83799396719282      1.24596801314557     -0.14142821471819
  C   1.04588174279491     -1.15787224215839     -0.92971638817813
  N   1.36816742772149     -1.76410881300376     -1.88311169136523
