14
Coordinates from ORCA-job run
  C   -0.80850165559197     -0.15181324768120     -0.29829711933172
  C   0.72320527226894     -0.34222602716840     -0.20233112772814
  F   -1.28892643180450     -1.46979315543859     -0.45474576317762
  H   1.04062215514402     -0.90530339104417     -1.09083418991683
  N   -1.35365079926557      0.44956683991262      0.83760993448174
  H   -1.85266541748611      1.31166949972572      0.70675870953204
  H   -0.74940053799103      0.41320906641203      1.64506282075404
  C   -1.16777449200357      0.57150230491190     -1.52906158259033
  N   -1.43906935703447      1.15568011317914     -2.51064296364543
  N   0.98922900989895     -1.00741527762544      1.06762757934756
  H   1.98574725081888     -1.05166515819047      1.24090095130549
  H   0.62718715078330     -1.95293227372467      1.02143357393433
  C   1.37828936902645      0.96828049815571     -0.21596632697741
  N   1.91670848323669      2.01124020857584     -0.21751449598772
