14
Coordinates from ORCA-job run
  C   -0.76886116162099      0.07184883179130     -0.34611936408293
  C   0.61164377973421     -0.55502634657393     -0.06923618383482
  F   -1.10946330447566     -0.36024774192736     -1.64030259600341
  H   0.46880996602192     -1.63464756928875     -0.19750561419296
  N   -1.70218336267276     -0.29367267922601      0.63441221250466
  H   -1.66840465876909     -1.27826274938579      0.85891638591551
  H   -2.63983652332031      0.00193106138372      0.39761686725791
  C   -0.67315479142942      1.54506921927185     -0.40914800902224
  N   -0.56996556380486      2.71450664004614     -0.42505893611293
  N   1.04037635063233     -0.30285454492073      1.29093210742438
  H   1.94586457645621     -0.72851651651552      1.44980803961394
  H   1.13395442819526      0.69420224282442      1.45285164574569
  C   1.55864273355963     -0.11225262071542     -1.11350748685488
  N   2.37457753149353      0.23992277323609     -1.88165906835795
