14
Coordinates from ORCA-job run
  C   -0.73706551526727     -0.05633550200763     -0.25269686567509
  C   0.77025716504636     -0.41572189293159     -0.27822580273093
  F   -1.39076732713638     -1.30921160491378     -0.19534954640519
  H   0.90406922517691     -1.08490836800877     -1.13504919048694
  N   -1.05670373077760      0.77360614093238      0.83537208857356
  H   -0.83056897730866      0.32643533936742      1.71365541646952
  H   -2.02727914399452      1.05807083617554      0.83168760919383
  C   -1.14977475843491      0.57371339158470     -1.51654297613750
  N   -1.46777373946067      1.05179587492854     -2.54067291432464
  N   1.24559481497786     -1.09893043625500      0.90562682907747
  H   1.31646306999416     -0.48271501248113      1.70406058708268
  H   0.66305615916730     -1.89823182018119      1.11794191998586
  C   1.56032791590112      0.79677405581654     -0.50880649918943
  N   2.19816484211630      1.76665899797396     -0.68000065543321
