14
Coordinates from ORCA-job run
  C   -0.76820379756820     -0.00712848656450     -0.13729711280116
  C   0.68798660921275     -0.47891709851374     -0.37763163506976
  F   -1.49124760456179     -1.20612686337326      0.06439790729383
  H   0.64279604415020     -1.17458098193565     -1.22262727517936
  N   -0.85780131343489      0.87171533223498      0.95577085501522
  H   -1.79611158054467      1.22478794068248      1.09022789620090
  H   -0.52896146599645      0.43149110552549      1.80466259607731
  C   -1.32724010602543      0.61970618192355     -1.34525628795086
  N   -1.76985186933729      1.09488944283248     -2.32353233892170
  N   1.28777819318279     -1.16944882889743      0.74404318436569
  H   1.52887739175843     -0.54199078580420      1.49914686309789
  H   0.68605784870926     -1.91348109250117      1.07199126571685
  C   1.51784050813228      0.66559552351994     -0.76401620547999
  N   2.18908114232301      1.58148861087103     -1.05987971236489
