14
Coordinates from ORCA-job run
  C   -0.62558160097461      0.39880839498458     -0.16563223327396
  C   0.61441403220977     -0.43050616601399      0.19770402437361
  F   -0.23456181067137      1.35623968758350     -1.08207461593095
  H   0.31834721040686     -1.15257202079088      0.96728992555734
  N   -1.61597206369820     -0.41259126935244     -0.79528016615676
  H   -2.42503646545427      0.14478631392615     -1.04317071463186
  H   -1.91065707586248     -1.17130596940655     -0.19277057170083
  C   -1.09682196796057      1.12409667013744      1.04109539851335
  N   -1.57073865239266      1.63141232437953      1.98827824770754
  N   1.60733719358041      0.45896665916807      0.76529164013846
  H   1.98235833815118      1.06175062527689      0.04297034364876
  H   2.36996409248463     -0.06856398778321      1.16966489217366
  C   1.06608937491878     -1.17885582022792     -0.99188607530652
  N   1.52185939526253     -1.76366544188116     -1.90248009511182
