14
Coordinates from ORCA-job run
  C   -0.70610786762710      0.27290776580721     -0.04566616825783
  C   0.67761943059593     -0.31564504862352      0.27576691493255
  F   -0.49854859954538      1.19027591212210     -1.09607497283823
  H   0.55916946748124     -0.93815887596550      1.16702863864239
  N   -1.63321840574899     -0.73643758025980     -0.36766615569492
  H   -2.56664758935384     -0.36663116803403     -0.49103796011437
  H   -1.35093423493492     -1.25062835932821     -1.19372123706521
  C   -1.19292789529186      1.05344261082593      1.10572888702938
  N   -1.61789217860128      1.66403333683997      2.01310620794536
  N   1.59339936206434      0.76449130175931      0.56839233915500
  H   1.78440126673085      1.29978824301245     -0.26912030163050
  H   2.46561061484098      0.40762487920100      0.93609710924121
  C   1.07895720781888     -1.19022034030755     -0.84711371378380
  N   1.40811942157115     -1.85684267704937     -1.75671958756104
