14
Coordinates from ORCA-job run
  C   -0.73713394083470      0.07369390731965     -0.31472683220407
  C   0.70121263055280     -0.44576219087742     -0.15478598714337
  F   -1.17168465985587     -0.32152893561934     -1.58389098925221
  H   0.62851855481388     -1.54508721321861     -0.22466532392958
  N   -1.53887510541474     -0.46557645132583      0.72341704040926
  H   -2.44977724131292     -0.02575309305897      0.76001868250181
  H   -1.65304392433460     -1.46423854110033      0.58986599470046
  C   -0.78001548230447      1.54476926850228     -0.27010584511270
  N   -0.86458201249709      2.71525231277970     -0.26880417990942
  N   1.22791595177719      0.06717660579410      1.09421036720079
  H   0.67635475589659     -0.29200258609381      1.86304861589999
  H   2.19737029403721     -0.19492996515791      1.21552448751508
  C   1.53268494558813      0.00611143142310     -1.27484446000419
  N   2.22905523388858      0.34787545063339     -2.15526157067185
