14
Coordinates from ORCA-job run
  C   -0.71578098226395      0.05848410497015     -0.29889565760062
  C   0.70000777990065     -0.55665187561330     -0.17355758838767
  F   -1.18911799257850     -0.24167022693402     -1.57924636174500
  H   0.55668762365171     -1.64310574450482     -0.24640182259544
  N   -1.54006494893895     -0.46531062877960      0.72628269909331
  H   -2.43835096545379      0.00002789946636      0.76353090336974
  H   -1.68108944263996     -1.45997257427037      0.58985142927359
  C   -0.64173174917763      1.52534351653806     -0.18005878814639
  N   -0.54789287319318      2.69060724777833     -0.07302576258658
  N   1.38184297269294     -0.25521039778516      1.06567240313127
  H   0.76051359134983     -0.44612743926601      1.84265699358101
  H   1.64900587116935      0.72179518572691      1.09712166966362
  C   1.52088688833137     -0.14178343340922     -1.31562268668545
  N   2.18408422715012      0.21257436608269     -2.21630743036538
