14
Coordinates from ORCA-job run
  C   -0.84455236069438     -0.14432719630088     -0.18141634277443
  C   0.68298617412395     -0.36108261745004     -0.28996328718036
  F   -1.36178082065709     -1.45622202337371     -0.23593968426980
  H   0.86736864723336     -0.95132575533709     -1.19821123758699
  N   -1.22074724312829      0.49406215868171      1.00242333766942
  H   -0.51119578086579      0.46408480322076      1.71963292719997
  H   -1.71251102639567      1.36606285314104      0.91687563280463
  C   -1.35757754050625      0.55663540720259     -1.37008444670724
  N   -1.75264091464639      1.12245232304233     -2.31985938402202
  N   1.11037368418971     -0.99934944390318      0.94898185064489
  H   0.73137014645585     -1.93888361104904      0.97844961527663
  H   2.12044824825258     -1.05757884025983      0.98605853924041
  C   1.34959754847083      0.93634719187170     -0.42834088023993
  N   1.89786123816757      1.96912475051362     -0.53060664005520
