14
Coordinates from ORCA-job run
  C   -0.69753809680991      0.04229297061550     -0.34117295496345
  C   0.71375146000115     -0.55500295206527     -0.11714595078036
  F   -1.09400086588833     -0.29934566874539     -1.63697257390091
  H   0.58382244093596     -1.64437379511191     -0.16596239833726
  N   -1.57501183368436     -0.45990435624541      0.65031740470234
  H   -2.47663774686786     -0.00030162654815      0.62481184960288
  H   -1.70222370348164     -1.45898568236573      0.53314109723405
  C   -0.64263882981835      1.51274361164979     -0.26125691813630
  N   -0.56704080822148      2.68166637792906     -0.18366417378431
  N   1.32058218082533     -0.21131742061708      1.14966974302994
  H   1.57784973267129      0.76869541396384      1.16779711839971
  H   0.65690485532236     -0.38577679270789      1.89484930458505
  C   1.59542931277578     -0.16454025784274     -1.22177761964423
  N   2.30675190224006      0.17315017809137     -2.09163392800714
