14
Coordinates from ORCA-job run
  C   -0.83880241536597      0.16402570573666     -0.39016062762994
  C   0.52297029123517     -0.54542216641352     -0.18752114267943
  F   -1.23967920380318     -0.09987419429132     -1.67874230713768
  H   0.31279145197839     -1.61569098606193     -0.28757878764034
  N   -1.87493914031056     -0.27068550031157      0.49151654941136
  H   -2.06985742414805     -1.25048702870200      0.31379285551440
  H   -1.55944725553393     -0.16760513176655      1.44954524315845
  C   -0.63450145257314      1.62026112660852     -0.22672108662588
  N   -0.41149246994792      2.75980723541904     -0.05395316128060
  N   0.97133509454368     -0.27927109440469      1.16986462031608
  H   1.39967791473491      0.63872580342080      1.22465580362377
  H   1.66471467186289     -0.95970606544729      1.45367638624794
  C   1.47858596738772     -0.16176794428068     -1.24040272732712
  N   2.27764396993999      0.16569024049452     -2.03697161795101
