14
Coordinates from ORCA-job run
  C   -0.64723910770967      0.36693337005534     -0.16273320631870
  C   0.63906875018599     -0.38929533925045      0.19880490167397
  F   -0.34549035024042      1.23619354464982     -1.19436132663752
  H   0.41780675249075     -1.03027053733048      1.05996539894892
  N   -1.64923277088052     -0.52879311556883     -0.63943826301085
  H   -1.85801923727980     -1.24974755071664      0.04011562821210
  H   -2.50048712099555     -0.02671745614868     -0.86233238780258
  C   -1.06346454113615      1.20026548074189      0.99320179454294
  N   -1.49547414739369      1.78635535711339      1.91496331468830
  N   1.63927732939607      0.58020811580749      0.59886907002099
  H   2.44697570945532      0.11671026567546      0.99455247681995
  H   1.93989355006810      1.11501378236631     -0.20701300398303
  C   1.03441827715450     -1.25205687030982     -0.93168801540184
  N   1.44396690688508     -1.92479904708481     -1.80290638175265
