14
Coordinates from ORCA-job run
  C   -0.80334840398251     -0.13870797572372     -0.23778134941147
  C   0.70266862808788     -0.43495405618154     -0.38400658457318
  F   -1.49931164939612     -1.30526840588411     -0.41001990126894
  H   0.86600583077765     -0.80055772390010     -1.40290468955799
  N   -1.07273753965853      0.32816050844065      1.09350326414909
  H   -2.07439082750797      0.35024503603085      1.24758713679466
  H   -0.70198971060763      1.26190172955382      1.23236909883861
  C   -1.23942307857363      0.79019644389052     -1.31295954008675
  N   -1.58776404122629      1.55784679169369     -2.13147320388964
  N   1.06963511956512     -1.46799662150789      0.55705573018110
  H   0.84626565370467     -1.16516658792250      1.49716059431770
  H   2.05906477821558     -1.67035817463215      0.49286303333749
  C   1.42598917859190      0.84614617814939     -0.22223374269658
  N   2.00933606200989      1.84651285799308     -0.02115984613409
