14
Coordinates from ORCA-job run
  C   -0.71504994198742      0.35353551624995     -0.13077862802442
  C   0.65551100049971     -0.27320807707950      0.21226412835419
  F   -0.45633282371458      1.21233855898841     -1.19844639705760
  H   0.51810997800330     -0.86536740060684      1.12273947114919
  N   -1.73896526600142     -0.54846729981693     -0.49858095884025
  H   -2.37151344605136     -0.79815258298640      0.24410180055300
  H   -1.41563789289502     -1.34825624314293     -1.02406999071069
  C   -1.16479118426966      1.16736508651228      1.01410004525628
  N   -1.56065334822566      1.76832819397609      1.94073621395386
  N   1.61300992373471      0.77656592762887      0.47781519105908
  H   1.81187024120930      1.28989948639040     -0.37144980159453
  H   2.47709171524850      0.39761730100245      0.84305291199226
  C   1.02235504582459     -1.20189298029711     -0.87886662142405
  N   1.32499599862500     -1.92930548681874     -1.75061736466632
