14
Coordinates from ORCA-job run
  C   -0.85214840346418     -0.10458656563163     -0.17005085780854
  C   0.65918392074731     -0.41715811864751     -0.26913873212973
  F   -1.44586936177545     -1.38456877218600     -0.14337610690058
  H   0.80366809455324     -1.07055844654004     -1.14059600860183
  N   -1.18321279407193      0.62555994089825      0.97354745694961
  H   -0.47305180679046      0.59782897818358      1.69009538088426
  H   -1.62419207335185      1.51777208858494      0.83564190947185
  C   -1.33056423433944      0.55205349392775     -1.39771773128880
  N   -1.69600615935917      1.08181139742286     -2.37964386265389
  N   1.05478856670902     -1.00516371785379      1.00514716404812
  H   0.62025189913736     -1.91674858229327      1.09111049135262
  H   2.05971395177615     -1.12210529479186      1.04316452079350
  C   1.40010656162716      0.82815659270506     -0.48579352447960
  N   2.00733183860223      1.81870700622164     -0.65239009963698
