14
Coordinates from ORCA-job run
  C   -0.73888339878298     -0.16485684539334     -0.38582561889535
  C   0.78661735838184     -0.36276705979691     -0.28000333182913
  F   -1.31120455186772     -1.35156855318271     -0.75828339945881
  H   1.15007369567359     -0.63739165815683     -1.27546198485907
  N   -1.26773785486901      0.17954584429885      0.90443831762527
  H   -0.99499847721360      1.11993786871874      1.16877791325613
  H   -2.27996874876193      0.13010971528687      0.87881138975293
  C   -1.04336078617800      0.82027116763524     -1.45632998732755
  N   -1.29024300724795      1.63028845826666     -2.27080169521429
  N   1.05545901098558     -1.44398909027307      0.63967253568306
  H   0.65406775897197     -1.22809592928900      1.54382109328465
  H   2.05252634578219     -1.58662233843160      0.73717643488186
  C   1.37942655990824      0.94087910439824      0.09367998912123
  N   1.84722609521777      1.95525931591888      0.45932834397909
