14
Coordinates from ORCA-job run
  C   -0.58787864267686      0.40414050096799     -0.15998631351154
  C   0.65997984729314     -0.47137406997079      0.12136908183188
  F   -0.16676602716920      1.46801596770243     -0.95280996044582
  H   0.36498277464206     -1.24004715737326      0.84551445945608
  N   -1.59834744380344     -0.31604178217086     -0.82641517862195
  H   -1.56056033099026     -1.31695375195549     -0.71120595107292
  H   -2.53091624468623      0.04778503890091     -0.70408867341599
  C   -1.01791163041768      1.00452996917782      1.12616790917722
  N   -1.36050002992196      1.41401945962446      2.17267143785523
  N   1.79285713310688      0.24638384221038      0.65818039303759
  H   2.01153374513477      1.04138625865253      0.07048620961282
  H   1.59750430490998      0.57232245459524      1.59672925435647
  C   1.04594262506684     -1.14983679434315     -1.12531248514837
  N   1.35207991951197     -1.70732993601821     -2.11130018311070
