14
Coordinates from ORCA-job run
  C   -0.65906932269535      0.36961346493657     -0.06408395882181
  C   0.60500909022752     -0.43363765025126      0.28237277090739
  F   -0.24095298833243      1.37855419299146     -0.95586354561592
  H   0.32600018372004     -1.14236397150527      1.06712300048202
  N   -1.66538871418836     -0.45787640829701     -0.59760518584082
  H   -2.53140448734024      0.04497417093320     -0.74089565464058
  H   -1.36863602155179     -0.89323115630653     -1.46314000562860
  C   -1.16024482384220      1.05313181120057      1.14145881140651
  N   -1.60739754586292      1.58898439375841      2.08477904723523
  N   1.61248906101138      0.46919426435732      0.79339746750718
  H   1.94544589772589      1.07715021584966      0.05591047468823
  H   2.39635233714516     -0.04458674111192      1.17395771443140
  C   1.00514783514818     -1.20728871954769     -0.91253990507036
  N   1.34264949883511     -1.80361786700752     -1.86687103103987
