14
Coordinates from ORCA-job run
  C   -0.65986997860451      0.32857811021265     -0.18685601617629
  C   0.65237419600709     -0.35415248801360      0.22415753542160
  F   -0.38175143217090      1.16127370192718     -1.25399265993777
  H   0.44558728356259     -0.96974519076213      1.10709184287644
  N   -1.61607028907785     -0.63104067373651     -0.63397225067829
  H   -1.81882828699227     -1.31496209325072      0.08471962532580
  H   -2.47775937928336     -0.17309348698317     -0.90675727426835
  C   -1.12760723924608      1.19509547863536      0.92439000800795
  N   -1.59625009419020      1.80980604124113      1.80869153462020
  N   1.60331715812198      0.67312156955687      0.59800057403554
  H   1.89548415732271      1.18645724319303     -0.22474388233543
  H   2.42275830548250      0.26186909962943      1.02590739324450
  C   1.10159314200848     -1.24312693716547     -0.86552252756602
  N   1.55702245705982     -1.93008037448404     -1.70211390256988
