14
Coordinates from ORCA-job run
  C   -0.77076381322466      0.07557598494569     -0.34175553397776
  C   0.61251779849030     -0.55240973303749     -0.08119768091162
  F   -1.11621493589748     -0.33587847086720     -1.64142489495593
  H   0.47191669005361     -1.63018315207524     -0.22554717659401
  N   -1.69929018974113     -0.30838146154254      0.63645351060172
  H   -1.66020931992765     -1.29599445284224      0.84651494827999
  H   -2.63911915808213     -0.01498074909265      0.40529826835746
  C   -0.67814613457781      1.54986059263494     -0.38074503276300
  N   -0.57597802083887      2.71952526303469     -0.37414637576682
  N   1.04621082380246     -0.32145644239650      1.28156516344746
  H   1.95230061569645     -0.74972325597448      1.42989620431774
  H   1.14226483956313      0.67296651548237      1.45756861960293
  C   1.55324256676473     -0.08906920503195     -1.12176366195847
  N   2.36126823791906      0.28114856676260     -1.88971635767967
