14
Coordinates from ORCA-job run
  C   -0.81973821483358      0.14097386659835     -0.43903558672368
  C   0.54054657771896     -0.53994335169322     -0.14875266345234
  F   -1.14394644682314     -0.15347438111382     -1.74267613695163
  H   0.35369442516252     -1.61575627266248     -0.23458837647388
  N   -1.89541617726944     -0.29535990756723      0.39265444308001
  H   -2.05211560032640     -1.28596504829062      0.23852918112616
  H   -1.64350917144648     -0.15145760561471      1.36413244935569
  C   -0.64950288792172      1.60324541507354     -0.29195117451469
  N   -0.45484304281016      2.74866323929473     -0.12468329337112
  N   0.91219757289139     -0.23637931975486      1.22413284340208
  H   1.60547461254889     -0.89493164628098      1.55638678840395
  H   1.31803637637765      0.69183080540629      1.28025145405049
  C   1.54545043582161     -0.16444005040189     -1.15790127038471
  N   2.38367154090991      0.15299425700689     -1.91749865754632
