14
Coordinates from ORCA-job run
  C   -0.67963940918778      0.27802502678256     -0.19683132890465
  C   0.67400933296350     -0.30387516811778      0.23413033917440
  F   -0.45222166978797      1.11042696885265     -1.27598846586013
  H   0.50442816035432     -0.91972461232799      1.12476668073000
  N   -1.56252134215251     -0.75417334668971     -0.63385450985497
  H   -2.45293618164323     -0.36230301683622     -0.91763666680256
  H   -1.72172494175774     -1.43789224296622      0.09604913326749
  C   -1.21632328247902      1.12686510848590      0.89667069785915
  N   -1.73524155408858      1.71998970930358      1.76757630411847
  N   1.54721450132224      0.79338784521643      0.59868655586798
  H   2.39064666545218      0.44784139846690      1.03747409032158
  H   1.80813386453618      1.31413912989557     -0.22990077117025
  C   1.19387699530602     -1.17442832993442     -0.83910443591231
  N   1.70329886116236     -1.83827847013125     -1.66303762283420
