16

C	0.0	0.0	0.0
C	-0.252172	-0.235375	-1.551957
Br	1.934947	0.0	0.0
H	0.533678	0.356653	-2.02926
N	-0.40191	1.39149	0.431336
O	-0.568183	1.575776	1.625763
O	-0.392833	2.251201	-0.441669
C	-0.512875	-1.007643	0.907357
N	-0.616084	-1.901045	1.668021
C	-1.541238	0.119989	-2.298293
H	-1.819628	1.146961	-2.082653
H	-1.312278	0.014375	-3.369154
H	-2.358393	-0.521886	-1.998204
C	0.079663	-1.638687	-1.824016
N	0.299475	-2.759276	-2.100557
F	-2.259605	0.0	0.0
