16

C	0.0	0.0	0.0
C	-0.481007	-0.100379	-1.464422
Br	1.935084	0.0	0.0
H	-1.526905	0.252543	-1.339853
N	-0.422219	1.327829	0.620951
O	-0.504419	1.361111	1.838978
O	-0.539555	2.270286	-0.146052
C	-0.462851	-1.092254	0.843292
N	-0.599757	-2.043135	1.521982
C	-0.539568	-1.55679	-1.924495
H	0.411325	-2.078805	-1.784854
H	-0.802413	-1.592152	-2.984439
H	-1.325447	-2.047908	-1.350971
C	0.289492	0.714859	-2.393327
N	0.829799	1.322081	-3.243198
F	-2.453367	0.0	0.0
