16

C	0.0	0.0	0.0
C	-0.250705	-0.121971	-1.564875
Br	1.934948	0.0	0.0
H	0.523466	0.521886	-1.994388
N	-0.414538	1.353019	0.532405
O	-0.585436	1.446312	1.735734
O	-0.400807	2.273546	-0.276679
C	-0.50839	-1.078338	0.828241
N	-0.642473	-2.033868	1.504208
C	-1.545579	0.266143	-2.281864
H	-1.331066	0.188942	-3.356762
H	-1.807826	1.28665	-2.026926
H	-2.360928	-0.37698	-1.982702
C	0.10425	-1.494389	-1.947528
N	0.341468	-2.587019	-2.307207
F	-2.280417	0.0	0.0
