16

C	0.0	0.0	0.0
C	-0.249546	-0.180964	-1.559766
Br	1.935363	0.0	0.0
H	0.525943	0.443031	-2.013679
N	-0.404752	1.374985	0.476948
O	-0.402262	2.262777	-0.367365
O	-0.566799	1.518966	1.677573
C	-0.515018	-1.039598	0.869074
N	-0.618464	-1.963015	1.593286
C	-1.545049	0.18146	-2.292241
H	-1.312122	0.118297	-3.365051
H	-2.351728	-0.484178	-2.017333
H	-1.839966	1.194428	-2.038954
C	0.103288	-1.567386	-1.885595
N	0.344639	-2.673611	-2.200101
F	-2.262237	0.0	0.0
