14
Coordinates from ORCA-job run
  C   0.76388397710929     -0.63846309830804      0.08748634093469
  C   -0.48467069608448      0.27306906801034      0.26736483766810
  Cl  0.51928897543288     -1.78158737135823     -1.26705526812285
  H   -0.26719868264785      0.90218884075502      1.14012337340324
  C   1.00064572527921     -1.40439407021322      1.31351599085114
  N   1.17233857658184     -1.99646422278185      2.31441177608085
  C   1.93296413732912      0.19666016647438     -0.20003332810840
  N   2.85032270717939      0.89645009681898     -0.42471863027237
  C   -1.64185856714332     -0.56106397684183      0.59408459152341
  N   -2.58877206332425     -1.21166550954581      0.83682153846527
  C   -0.75865636412337      1.16234816816992     -0.94608239620181
  H   -1.61429335199244      1.80426292936661     -0.73214946345617
  H   0.10408593248413      1.79645417542894     -1.15692587396635
  H   -0.98908030608015      0.56220480402480     -1.82584348879874
