14
Coordinates from ORCA-job run
  C   0.89999967504986     -0.43763927917607     -0.03593717230072
  C   -0.59962267301325     -0.05511493526461      0.12853596719777
  Cl  1.43731287896711     -0.16880010408342     -1.72147307014522
  H   -0.85337021942435     -0.29729393943247      1.16851977692816
  C   1.09137834803724     -1.85034854540782      0.30068036770584
  N   1.21508491657143     -2.98295477060037      0.59021023037102
  C   1.70934126606274      0.39335031964054      0.85918698981489
  N   2.32253014617758      1.07816530990053      1.59155255731510
  C   -1.40968766794366     -0.90977308927749     -0.74033518337531
  N   -2.08246417984589     -1.56811103063568     -1.44229742066360
  C   -0.87390010686736      1.42677922925450     -0.13081074594563
  H   -0.28579046413943      2.04834288320694      0.54659108320445
  H   -1.93118984776412      1.62969331996405      0.04555904537406
  H   -0.63862207186789      1.69270463191136     -1.16098242548081
