14
Coordinates from ORCA-job run
  C   0.84103943715886     -0.49340414266130      0.46293769125296
  C   -0.61037320592934      0.05970967545598      0.44156900413232
  Cl  1.01612022326899     -1.66146919515400      1.80668286905090
  H   -0.78186026257650      0.49597120055752      1.43226975451301
  C   1.77631641010794      0.61337153213762      0.67992485994903
  N   2.49256092343049      1.52804521614559      0.85873364772829
  C   1.14922007800377     -1.16253778307228     -0.80253496876098
  N   1.36899307974518     -1.67780174022688     -1.83599281995944
  C   -1.54658538441669     -1.05010185582258      0.25943423661518
  N   -2.32115362021748     -1.91525566871890      0.08404656414107
  C   -0.80255152322798      1.11878522016614     -0.64737841632334
  H   -0.62137748483501      0.69630085710993     -1.63747675760877
  H   -1.82950883400441      1.48558793447603     -0.61518688150560
  H   -0.12983983650782      1.96279874960715     -0.48602878322462
