14
Coordinates from ORCA-job run
  C   0.74906073369538     -0.54199818138304      0.55819425461435
  C   -0.57933140719861      0.25076500843419      0.41506391117846
  Cl  0.74148104084829     -1.44823591692775      2.10029288990574
  H   -0.64662926296885      0.88996471268815      1.30293852816151
  C   1.87245030804088      0.39850974429692      0.57279378856604
  N   2.74449962314330      1.18649055732345      0.58380057346616
  C   0.90336187021061     -1.48069360837353     -0.55501652395989
  N   1.00637399018409     -2.20911544063655     -1.47183481423394
  C   -1.70431359814577     -0.68510419456009      0.43660240631091
  N   -2.62844932386100     -1.40962083929530      0.42061704360977
  C   -0.60293306067794      1.10184029147703     -0.85741152994295
  H   0.21430683674855      1.82487055397653     -0.85163720516552
  H   -1.54593537083920      1.64798860900902     -0.90733628651503
  H   -0.52394237917973      0.47433870397096     -1.74706703599562
