14
Coordinates from ORCA-job run
  C   0.99122673127575     -0.15582067433455      0.26374896344260
  C   -0.44915944060868      0.43149264090058      0.31035541766654
  Cl  2.15251628833393      1.17158699469965     -0.05969632538746
  H   -0.43055714276818      1.21114583133891      1.08060097019557
  C   1.10031591098539     -1.15347070551293     -0.80229987197131
  N   1.15494079765178     -1.93652572701195     -1.67720478822564
  C   1.33442927415312     -0.75641146947776      1.55455549130537
  N   1.59070688062987     -1.21850761923324      2.60460545678018
  C   -1.36378186317464     -0.62650318635933      0.74541544944489
  N   -2.11373072707213     -1.47125611513722      1.06786919947856
  C   -0.90105854199056      1.01660830476707     -1.02849200161005
  H   -0.22834100747212      1.81152873804284     -1.34854239852009
  H   -0.93726139156296      0.24253828209333     -1.79665850087514
  H   -1.90224576838057      1.43459470522462     -0.91525706172402
