12
Coordinates from ORCA-job run
  C   0.95690906627881     -0.00174367350196     -0.13332342509067
  C   -0.40272738819142     -0.08633061632270     -0.21256979156002
  C   1.80382524251914     -0.31400758442319     -1.24431922661144
  N   2.51131409831921     -0.56969966172774     -2.14982171548316
  C   1.60091271501932      0.41076662709762      1.07683772903836
  N   2.12659821352096      0.75155158607508      2.07328366118152
  C   -0.98889092838408     -0.50058949711668     -1.45018022060782
  N   -1.51561812541896     -0.83724153631534     -2.44901158964985
  C   -1.33618328192492      0.22917120677999      0.91526033629291
  H   -0.79319936037613      0.52990176353836      1.81145060997210
  H   -2.01472709416158      1.03409345203443      0.61925589279557
  H   -1.94921315720036     -0.64687206611789      1.14413773972251
