12
Coordinates from ORCA-job run
  C   0.95340099005935      0.04703841311060     -0.15618512779720
  C   -0.40337134094753     -0.08900138315473     -0.20808978789705
  C   1.78249545092104     -0.16961371762563     -1.30284165928350
  N   2.47258297824281     -0.34354750450149     -2.24054471243472
  C   1.61106417293556      0.41562104276683      1.06100304536051
  N   2.14679574771285      0.71751989628173      2.06459959055033
  C   -1.00457823689140     -0.46203607721085     -1.45154223952853
  N   -1.54545753077761     -0.76981819048096     -2.45223296651732
  C   -1.31948607351053      0.12520159704630      0.95727133558956
  H   -2.04007257807206      0.91271511803287      0.72025961727730
  H   -0.76680833215026      0.40451003461599      1.85426135247039
  H   -1.88656524752222     -0.78858922888067      1.15504155221024
