12
Coordinates from ORCA-job run
  C   0.95873803487895      0.02755322389111      0.11834202586384
  C   -0.35645269553961     -0.29037569682782     -0.05816497237463
  C   1.97944142335831     -0.97317408089400      0.19361902095007
  N   2.82811009647748     -1.78656135411198      0.25702212587106
  C   1.37784260252333      1.39161853600354      0.23690121299010
  N   1.71908295740903      2.51379269655575      0.33416789837962
  C   -0.71538077499325     -1.67086597301286     -0.16910814550191
  N   -1.05896049229353     -2.79396624492294     -0.26495644225652
  C   -1.46422344676425      0.71387272945881     -0.14424241216710
  H   -2.19657448166687      0.52478762288421      0.64525006633531
  H   -1.98238440121600      0.61170089023648     -1.10183511314856
  H   -1.08923882217359      1.73261765073969     -0.04799526494127
