12
Coordinates from ORCA-job run
  C   0.95866570788099      0.06690895274399     -0.10402644059122
  C   -0.38926831013590     -0.10642285455007     -0.22738328119492
  C   1.85692429274085     -0.16008459694903     -1.19530708455260
  N   2.60469721141882     -0.34312778015446     -2.08585556828908
  C   1.53714372743852      0.48854591000323      1.13597530009084
  N   2.00645409773052      0.83480636404606      2.15833401485025
  C   -0.90937376674616     -0.53026601935268     -1.49094871393951
  N   -1.38221752998586     -0.87922928657872     -2.51235764523920
  C   -1.37442914238270      0.11749233817151      0.87826172574480
  H   -0.88042783197210      0.43671008025465      1.79590527138188
  H   -2.10002052375103      0.87845631284481      0.57801899123555
  H   -1.92914793223597     -0.80478942047930      1.07138343050321
