12
Coordinates from ORCA-job run
  C   0.95443593566317      0.10592851763163     -0.10929286878119
  C   -0.38280965611197     -0.14310574195026     -0.21836478218693
  C   1.50619276526287      0.65495575571307      1.09244032543238
  N   1.95447753731508      1.10650886082971      2.08264686935292
  C   1.86748000553021     -0.16475858083486     -1.17800313413910
  N   2.62703339658348     -0.38352638266560     -2.05030114856676
  C   -0.87568349357431     -0.69201119508389     -1.44413278905720
  N   -1.32502784096119     -1.14323036645426     -2.43553916237931
  C   -1.38225217824022      0.11926619119555      0.86566032868647
  H   -1.88970454503553     -0.81160957251891      1.13311020368320
  H   -2.14455387793364      0.81535530298078      0.50539047862294
  H   -0.90858804849795      0.53622721115704      1.75438567933259
