12
Coordinates from ORCA-job run
  C   0.94857068086556      0.13638017740420     -0.12392875025935
  C   -0.38215512530801     -0.15241599046084     -0.21423790847069
  C   1.50396376067058      0.68283401890266      1.07756901852618
  N   1.95666337407122      1.12934309780755      2.06808271811945
  C   1.85166700297617     -0.08764389218164     -1.21156795329253
  N   2.60514553590312     -0.26392991212042     -2.09876651307408
  C   -0.87956657925595     -0.69950342456551     -1.43902469833316
  N   -1.33328713556768     -1.15275729501846     -2.42762265446346
  C   -1.37041191672005      0.06475706325055      0.88998304243301
  H   -0.89297007430037      0.47707289233306      1.77878840544615
  H   -1.85218356692462     -0.88254443658295      1.14714131044056
  H   -2.15443595640996      0.74940770123182      0.55458398292791
