12
Coordinates from ORCA-job run
  C   0.96786743413603     -0.01529976378788     -0.07105930781697
  C   -0.38414746837161     -0.04495105883766     -0.25485406526784
  C   1.52310465861358      0.21660999081855      1.22814501882980
  N   1.97000388246792      0.40910958346857      2.29990407951865
  C   1.88823447237865     -0.20712966933853     -1.14879951922085
  N   2.65989785976178     -0.35987661445340     -2.02473089853197
  C   -0.89654042432451     -0.28221218073424     -1.56857339592627
  N   -1.38430736008981     -0.48880729136421     -2.62162391262625
  C   -1.38652243178453      0.15508378442439      0.84016915480717
  H   -2.06098824937105     -0.70401117619534      0.88752917075065
  H   -1.99500805300450      1.03812764081206      0.62608955059802
  H   -0.90259432041198      0.28335675518769      1.80780412488587
