12
Coordinates from ORCA-job run
  C   0.96399942784269     -0.02346043132106      0.06615894361416
  C   -0.37599242560377     -0.27210745629028     -0.01635816031765
  C   1.91726958846278     -1.07470113061528      0.25642647438031
  N   2.69901873948976     -1.93691086612997      0.43768685890674
  C   1.47179304319223      1.31200939096803     -0.01893281263710
  N   1.89093252287129      2.40910252710232     -0.09668943110446
  C   -0.82465936993122     -1.62510575496413      0.08934009948881
  N   -1.23594011685395     -2.72597188582634      0.17226933338052
  C   -1.41987889269432      0.78900888798286     -0.19028276969187
  H   -0.98023377916258      1.78665675275286     -0.18778084454825
  H   -2.15026910307609      0.72121515874597      0.61860741364955
  H   -1.95603963453684      0.63926480759500     -1.13244510512075
