12
Coordinates from ORCA-job run
  C   0.95631040890364      0.10147509806959     -0.09926143211288
  C   -0.38260072648467     -0.13021013014793     -0.22583141468023
  C   1.50657319613253      0.59170184365207      1.12833452133514
  N   1.95304378691392      0.99547525915921      2.13971966765760
  C   1.87198523251811     -0.13010497503636     -1.17487392437832
  N   2.63337396602868     -0.31710090730606     -2.05292652228512
  C   -0.87416995105958     -0.61870109802214     -1.47748624508501
  N   -1.32295098173329     -1.02053990280970     -2.49024471360689
  C   -1.38584040920981      0.09314237790243      0.86350653568329
  H   -0.91341439392061      0.46479360659359      1.77277125811972
  H   -2.13892019837533      0.81264016010440      0.53070295506712
  H   -1.90438992971358     -0.84357133215908      1.08558931428558
