12
Coordinates from ORCA-job run
  C   0.95779764808517      0.07086794778557     -0.10998160323865
  C   -0.39124814664744     -0.09810361863305     -0.22747686086835
  C   1.84609404431584     -0.11760474757283     -1.21655599544889
  N   2.58504891074657     -0.26959505436369     -2.12018512506961
  C   1.54716773588892      0.44943215094703      1.13879556256158
  N   2.02663982922091      0.76019485900761      2.16783286034492
  C   -0.92233889993560     -0.47673906147500     -1.50075326596636
  N   -1.40328571689425     -0.78885876525286     -2.53018901218280
  C   -1.36653024870855      0.08569246544785      0.89410971716119
  H   -1.91699012032488     -0.84404057113422      1.06177480156770
  H   -0.86472126871612      0.37547383773095      1.81734316656921
  H   -2.09663376703057      0.85428055751263      0.62628575457004
