12
Coordinates from ORCA-job run
  C   0.96109925847975     -0.01101768125200     -0.10811775449080
  C   -0.39703201640220     -0.07630669592216     -0.22439352864843
  C   1.57742796064239      0.37325476296019      1.12579168327711
  N   2.07779453191882      0.68839726608353      2.14344155515641
  C   1.83222453891577     -0.31799352831121     -1.20178407476898
  N   2.55685662629377     -0.56905246126774     -2.09483007338493
  C   -0.95538389749050     -0.46653041084194     -1.48252600717833
  N   -1.45937298114323     -0.78302734171627     -2.49955146678198
  C   -1.35634715580608      0.23387153038091      0.88311630709743
  H   -1.98360967336842     -0.63877814935814      1.08437375149662
  H   -0.83468934167867      0.51795730521651      1.79694526978913
  H   -2.01896785036140      1.04922540402832      0.57953433843676
