12
Coordinates from ORCA-job run
  C   0.95598738558872      0.08671259962513     -0.11075759923870
  C   -0.38508063260431     -0.14373174194430     -0.21429913219343
  C   1.51496654505064      0.66462971723032      1.07411068725805
  N   1.96923921479812      1.13914829160845      2.05072414791626
  C   1.86606431242064     -0.23315432688122     -1.16836889320875
  N   2.62354712915405     -0.49135111392324     -2.03168211190431
  C   -0.88495257719352     -0.72535419241111     -1.42195848431946
  N   -1.33976807321598     -1.20280975289523     -2.39855231783344
  C   -1.38165956144203      0.17111132903319      0.85833459379305
  H   -2.13104155259155      0.86819854544290      0.47343753380690
  H   -1.90593170412793     -0.74141249186500      1.15509556694312
  H   -0.90237048583684      0.60901313698011      1.73391600898074
