12
Coordinates from ORCA-job run
  C   0.94666660986681     -0.02789289407140      0.19359741232671
  C   -0.37051536536007     -0.26894474700554     -0.06932306799791
  C   1.45044056527603      1.31033390250737      0.26671508449255
  N   1.85902148386896      2.41252875246971      0.32590648836930
  C   1.88487913260916     -1.08766413031764      0.40725376745378
  N   2.66439134327932     -1.95168393193742      0.58475093932141
  C   -0.81540070235553     -1.62734150104422     -0.13127706705398
  N   -1.22548589923250     -2.73036885296907     -0.19190161371322
  C   -1.39522597629957      0.79845835053760     -0.30076749023709
  H   -1.84489764196984      0.67060268338783     -1.28920498235818
  H   -2.19682510352627      0.70740055429847      0.43730727496986
  H   -0.95804844615648      1.79457181414430     -0.23305674557325
