12
Coordinates from ORCA-job run
  C   0.95142450714980      0.04383995709368     -0.16306199543256
  C   -0.40588793564890     -0.09096913036911     -0.20427045070162
  C   1.77192461108833     -0.17696164981162     -1.31511548797388
  N   2.45588128263639     -0.35521761154234     -2.25649199999738
  C   1.61832998755689      0.42006773225622      1.04663350104951
  N   2.16109128676174      0.73002604779499      2.04397036920679
  C   -1.01587466176124     -0.46744939250156     -1.44239736456524
  N   -1.56008094709766     -0.77470554392623     -2.44137368197380
  C   -1.31250854588246      0.12902168029147      0.96726479736820
  H   -0.75218488400924      0.41136473843554      1.85855017282699
  H   -1.87803616219730     -0.78364471355345      1.17350808936993
  H   -2.03507853859636      0.91562788583240      0.73378405082307
