12
Coordinates from ORCA-job run
  C   0.96157482707579     -0.03178410913941      0.09296338688327
  C   -0.37455977210624     -0.26733898514831     -0.05399806635511
  C   1.46415250045902      1.30241594085143      0.22548336587338
  N   1.87111511052654      2.40163130536787      0.33290686566063
  C   1.92165891400667     -1.09313564049796      0.12251186809019
  N   2.72035215043349     -1.95739412703492      0.14975177913186
  C   -0.81752238318736     -1.62160907815697     -0.18288151862656
  N   -1.22702087623026     -2.72103738816505     -0.29307315283543
  C   -1.42220977588365      0.80225543053004     -0.09019011045935
  H   -1.97111452639797      0.75016711931585     -1.03445114232830
  H   -0.98454608824895      1.79497541202593      0.01480945997720
  H   -2.14288008044709      0.64085412005149      0.71616726498821
