12
Coordinates from ORCA-job run
  C   0.95668114089076      0.03585351524702     -0.13368481588390
  C   -0.39976229834832     -0.08858047461102     -0.21684899784526
  C   1.58764654010026      0.41519155810707      1.09436068546058
  N   2.10079242243502      0.72737123597140      2.10658935782824
  C   1.81189790845874     -0.20314283295479     -1.25637032534319
  N   2.52581576496908     -0.39829170318017     -2.17169936174964
  C   -0.97330676078184     -0.46930807752011     -1.47101373592902
  N   -1.48925082509662     -0.77909597154677     -2.48412610635112
  C   -1.34128276385700      0.14758662314252      0.92354719451731
  H   -2.04953354371311      0.93803493654662      0.66051331174076
  H   -0.80792991095451      0.43242292641309      1.83043348194984
  H   -1.92076767410247     -0.75904173561485      1.11829931160541
