12
Coordinates from ORCA-job run
  C   0.95183236709155     -0.01458378645062      0.17224125585929
  C   -0.36640453298453     -0.27429771307645     -0.06634003822423
  C   1.43127689606557      1.33087710264797      0.27300944639924
  N   1.81945036726557      2.43950326548464      0.34776767670538
  C   1.91638922297973     -1.06077599396703      0.32752621088718
  N   2.71788783831352     -1.91304129515361      0.45733469373525
  C   -0.78508827364594     -1.63860432843664     -0.16752234773707
  N   -1.17602971959369     -2.74604466497167     -0.26460363329569
  C   -1.41841170791429      0.77816267363230     -0.23576576485933
  H   -2.20210652307349      0.64040180916506      0.51399856503050
  H   -1.00139424157800      1.78045525706387     -0.13870567832508
  H   -1.88640169292598      0.67794767406219     -1.21894038617542
