17

C	-0.552086	0.023613	-1.415471
C	0.0	0.0	0.0
Cl	0.279187	-1.294205	-2.377899
H	1.092239	0.0	0.0
N	-1.962488	-0.052654	-1.480232
H	-2.269871	-0.090934	-2.444286
H	-2.280176	-0.872265	-0.977389
N	-0.168359	1.297745	-2.169868
O	0.736442	1.98989	-1.728147
O	-0.798785	1.506934	-3.204883
C	-0.45438	-1.24672	0.599929
N	-0.854819	-2.235105	1.097666
C	-0.461927	1.175788	0.866254
H	-1.550208	1.251627	0.92466
H	-0.043052	2.101776	0.475915
H	-0.053382	1.03051	1.869146
H	2.686064	0.0	0.0
