17

C	-0.239104	-0.092225	-1.513218
C	0.0	0.0	0.0
Cl	0.124751	1.475724	-2.276009
H	1.096215	0.0	0.0
N	0.558726	-1.094283	-2.139824
H	1.513227	-0.934976	-1.788621
H	0.248591	-2.001723	-1.809402
N	-1.723866	-0.387383	-1.788002
O	-2.530434	0.513771	-1.576406
O	-2.00995	-1.539345	-2.101534
C	-0.417389	-1.259113	0.594605
N	-0.734201	-2.277513	1.09176
C	-0.543417	1.189166	0.775065
H	-0.139774	2.112777	0.360939
H	-1.634778	1.236295	0.758573
H	-0.201615	1.109298	1.810145
H	2.663238	0.0	0.0
