17

C	-0.577221	0.01595	-1.421087
C	0.0	0.0	0.0
Cl	0.207842	-1.246516	-2.381701
H	1.094076	0.0	0.0
N	-2.001199	-0.132808	-1.581245
H	-2.462399	0.59328	-1.046417
H	-2.25922	-1.037649	-1.204051
N	-0.232843	1.385434	-2.025065
O	-1.082051	2.25759	-1.840615
O	0.845868	1.540287	-2.573542
C	-0.485563	-1.2096	0.637471
N	-0.89575	-2.182395	1.157918
C	-0.356125	1.228122	0.841861
H	-1.4276	1.439265	0.901824
H	0.165267	2.101196	0.446482
H	0.030027	1.057708	1.849796
H	2.660692	0.0	0.0
