17

C	-0.225194	0.038119	-1.493785
C	0.0	0.0	0.0
Cl	-1.94907	0.386437	-1.971216
H	1.094176	0.0	0.0
N	0.654348	0.985368	-2.039802
H	1.580308	0.833381	-1.595053
H	0.702358	0.891697	-3.047138
N	0.046568	-1.355586	-2.1516
O	0.33669	-2.305967	-1.437513
O	0.026531	-1.365656	-3.379644
C	-0.622644	-1.099736	0.70688
N	-1.161173	-1.897044	1.382985
C	-0.399461	1.321465	0.665385
H	-1.48365	1.44381	0.713613
H	0.008065	1.328434	1.679017
H	0.038562	2.151116	0.111598
H	2.66592	0.0	0.0
