17

C	-0.48091	-0.016727	-1.438847
C	0.0	0.0	0.0
Cl	0.220153	1.3289	-2.370728
H	1.093987	0.0	0.0
N	-0.197722	-1.227163	-2.088276
H	-0.622699	-1.267422	-3.00452
H	-0.489463	-2.019134	-1.531161
N	-2.039655	0.270463	-1.429533
O	-2.438817	1.414617	-1.240077
O	-2.761415	-0.723459	-1.532663
C	-0.452817	-1.206734	0.664504
N	-0.795241	-2.189814	1.215434
C	-0.362419	1.237583	0.81851
H	0.240481	1.204323	1.729697
H	-1.420932	1.300123	1.07938
H	-0.075609	2.133637	0.267501
H	2.588535	0.0	0.0
