17

C	-0.231396	-0.054812	-1.515519
C	0.0	0.0	0.0
Cl	0.135019	1.531181	-2.239247
H	1.095697	0.0	0.0
N	0.567657	-1.037145	-2.165787
H	1.515731	-0.886903	-1.797967
H	0.252056	-1.95587	-1.869889
N	-1.713009	-0.343498	-1.793001
O	-2.514311	0.562165	-1.589336
O	-2.003598	-1.497803	-2.097149
C	-0.418403	-1.271962	0.565797
N	-0.744332	-2.294725	1.049028
C	-0.545542	1.173276	0.796732
H	-0.132594	2.104053	0.407709
H	-1.63618	1.224699	0.773117
H	-0.212675	1.068066	1.833063
H	2.665617	0.0	0.0
