17

C	-0.227503	-0.118413	-1.514594
C	0.0	0.0	0.0
Cl	0.081683	1.454936	-2.293002
H	1.09628	0.0	0.0
N	0.606907	-1.095449	-2.126458
H	1.548011	-0.915954	-1.749308
H	0.310503	-2.01409	-1.815035
N	-1.699103	-0.469642	-1.788326
O	-1.943615	-1.635419	-2.090737
O	-2.537522	0.403486	-1.5868
C	-0.419558	-1.248607	0.614699
N	-0.742925	-2.259696	1.123156
C	-0.54683	1.206881	0.745212
H	-0.089458	2.115168	0.352286
H	-0.265119	1.119475	1.797897
H	-1.633849	1.287551	0.669057
H	2.669788	0.0	0.0
