17

C	-0.329944	0.073173	-1.481709
C	0.0	0.0	0.0
Cl	-2.088878	0.306636	-1.798489
H	1.096116	0.0	0.0
N	0.403965	1.075843	-2.18319
H	0.01446	1.980894	-1.953116
H	1.369397	1.025894	-1.838863
N	0.070203	-1.280199	-2.106066
O	-0.714362	-2.216713	-2.001206
O	1.189963	-1.321789	-2.59868
C	-0.507118	-1.181426	0.670842
N	-0.879419	-2.106439	1.295594
C	-0.397396	1.257554	0.766966
H	-1.480605	1.384919	0.829069
H	0.017392	1.187244	1.774995
H	0.050977	2.135763	0.298079
H	2.64471	0.0	0.0
