17

C	-0.56237	0.019033	-1.411359
C	0.0	0.0	0.0
Cl	0.26455	-1.297658	-2.377908
H	1.091901	0.0	0.0
N	-1.972625	-0.062033	-1.462646
H	-2.28818	-0.106631	-2.423793
H	-2.284127	-0.879086	-0.952274
N	-0.193048	1.293695	-2.172367
O	-0.835522	1.496838	-3.201825
O	0.711378	1.991943	-1.741534
C	-0.451174	-1.245809	0.605499
N	-0.846159	-2.238235	1.099409
C	-0.455705	1.178293	0.867667
H	-0.067655	1.020196	1.876714
H	-0.013822	2.098655	0.489577
H	-1.543219	1.272328	0.90809
H	2.686989	0.0	0.0
