14
Coordinates from ORCA-job run
  C   0.59889026434288     -0.52866583156649     -0.12560160139631
  C   -0.65423344844543      0.32380579515662     -0.32140477692197
  F   0.25794087651174     -1.55897283969969      0.73639137957686
  H   -0.46236328549639      1.09134379611928     -1.07676725943528
  H   0.84489824418275     -0.97790616643908     -1.09085788691321
  C   1.75386573294526      0.25264815056069      0.45027701750053
  H   1.49589463808639      0.64799258243503      1.43393173236375
  H   2.03188756048947      1.07978849412641     -0.20693376800115
  H   2.61540961492397     -0.40750127338879      0.55759599866230
  C   -1.11045815063283      0.93200975834651      0.92114591236665
  N   -1.40693539434760      1.46134778162357      1.92605237524392
  N   -1.73811826850603     -0.55710440009262     -0.91549311512069
  O   -2.76296119155971     -0.73431759595660     -0.27309992614838
  O   -1.46471719249447     -1.02346825122485     -2.01523608177703
