14
Coordinates from ORCA-job run
  C   0.54785217926034     -0.58698819644573      0.10960411268245
  C   -0.63259133524949      0.21806708643089     -0.43224530511688
  F   0.14652020120591     -1.13140696750709      1.31957739683187
  H   -0.40090520435053      0.57652938068769     -1.43927662716124
  H   0.72466714164979     -1.41680815764401     -0.57907144203744
  C   1.78281920487665      0.25446021644707      0.31770355255466
  H   2.58758419698140     -0.37695693748915      0.69619983730251
  H   1.58965970491588      1.04301946677193      1.04671012304127
  H   2.11031850824374      0.70680670661726     -0.62121980117377
  C   -0.99252090786125      1.33126808513763      0.43577952330661
  N   -1.22395905894700      2.26789467117696      1.10434424309035
  N   -1.80745512217000     -0.72651689054817     -0.60451705347303
  O   -2.81525104820683     -0.53265311937698      0.05960461823144
  O   -1.61773846034862     -1.62671534425830     -1.41419317807879
