14
Coordinates from ORCA-job run
  C   0.82920164164586      0.24703502361489     -0.16867900460585
  C   -0.61098324360285     -0.00849141386274     -0.63762753824279
  F   1.61764757646192      0.08247596486577     -1.29750458992389
  H   -0.69715421626467     -1.02372941180170     -1.02875975690922
  H   0.91893868013096      1.28798451532836      0.15147741450617
  C   1.27397178051855     -0.71396471705624      0.90591023054958
  H   0.73134183245833     -0.54460189774670      1.83740129777205
  H   2.33651960709966     -0.55927204140709      1.09821323714820
  H   1.12306915609131     -1.74744518333684      0.58830974341130
  C   -1.03807973516582      0.96908096222861     -1.63056708548112
  N   -1.36526720356192      1.75429802581444     -2.43931322515523
  N   -1.50614141826639      0.06846822098971      0.56945100699643
  O   -1.97448385040374     -0.98944552771890      0.97620721023405
  O   -1.63758060714122      1.17760748008842      1.07648105970033
