13

C	0.0	0.0	0.0
C	-0.437477	0.001007	-1.450978
F	1.385957	0.0	0.0
H	-1.525134	0.001086	-1.522176
H	-0.033701	0.893154	-1.931633
H	-0.03375	-0.890501	-1.932865
N	-0.416943	1.234363	0.630749
H	-1.433712	1.257715	0.544627
H	-0.210212	1.16888	1.62286
N	-0.416924	-1.235249	0.629034
H	-1.433678	-1.258596	0.542787
H	-0.210311	-1.171089	1.621255
Cl	-3.684426	0.0	0.0
