18

C	-0.469672	-0.018999	-1.464955
C	0.0	0.0	0.0
Cl	0.100482	1.595559	-2.171203
H	1.090303	0.0	0.0
N	0.143544	-1.122444	-2.109368
H	-0.001352	-1.079475	-3.110163
H	1.142381	-1.13743	-1.913118
C	-1.975256	-0.031098	-1.637214
H	-2.386682	-0.953521	-1.224204
H	-2.224696	0.027402	-2.699667
H	-2.416536	0.830003	-1.134456
N	-0.408788	-1.348166	0.600306
O	0.366135	-2.289808	0.50578
O	-1.517767	-1.400712	1.148422
N	-0.526882	1.080274	0.762323
H	0.142103	1.334638	1.476959
H	-1.402116	0.808853	1.191431
Br	3.496474	0.0	0.0
