18

C	-0.538986	0.122797	-1.429823
C	0.0	0.0	0.0
Cl	-0.07869	-1.424622	-2.326135
H	1.090895	0.0	0.0
N	-1.951464	0.323077	-1.439233
H	-2.422394	-0.457554	-1.0006
H	-2.278587	0.417331	-2.390906
C	0.186193	1.254785	-2.12884
H	1.263195	1.091968	-2.074477
H	-0.123501	1.305213	-3.176603
H	-0.06564	2.185228	-1.620651
N	-0.472463	-1.32209	0.601331
O	0.340735	-2.213474	0.79974
O	-1.678981	-1.396318	0.875993
N	-0.441391	1.113608	0.770936
H	0.09263	1.175031	1.627103
H	-1.434399	1.069382	0.95225
Br	3.549668	0.0	0.0
