18

C	-0.43214	-0.056662	-1.494919
C	0.0	0.0	0.0
Cl	-0.255825	1.64133	-2.104086
H	1.096412	0.0	0.0
N	0.436856	-0.857762	-2.322308
H	0.41447	-1.799977	-1.946444
H	1.391976	-0.529738	-2.179888
C	-1.884475	-0.453144	-1.66022
H	-2.510045	0.175204	-1.023975
H	-2.171019	-0.333908	-2.705329
H	-2.018524	-1.50165	-1.380872
N	-0.398165	-1.295464	0.654241
O	-0.078586	-2.341284	0.085877
O	-1.01274	-1.256634	1.721867
N	-0.62541	1.078586	0.732047
H	-0.05922	1.903869	0.572749
H	-0.571925	0.858332	1.720131
Br	3.474709	0.0	0.0
