18

C	-0.614416	0.031483	-1.412014
C	0.0	0.0	0.0
Cl	-0.156606	1.65484	-2.112807
H	1.097019	0.0	0.0
N	-0.010162	-0.942099	-2.275793
H	-0.072421	-1.854347	-1.843015
H	-0.491614	-0.949416	-3.16643
C	-2.13868	0.016232	-1.363434
H	-2.513938	0.796239	-0.701888
H	-2.473984	-0.959255	-1.004162
H	-2.535345	0.171213	-2.370379
N	-0.378612	-1.259687	0.743532
O	-0.617316	-2.291138	0.111206
O	-0.365919	-1.202401	1.968641
N	-0.510651	1.104948	0.807645
H	-0.076361	1.93928	0.429111
H	-0.11395	0.981335	1.732778
Br	3.478036	0.0	0.0
