18

C	-0.523794	0.105289	-1.437399
C	0.0	0.0	0.0
Cl	-0.086484	-1.478973	-2.288036
H	1.090439	0.0	0.0
N	-1.927979	0.342343	-1.473202
H	-2.234025	0.450839	-2.431762
H	-2.430266	-0.423837	-1.042022
C	0.24297	1.201057	-2.150575
H	0.013856	2.14947	-1.664354
H	-0.053718	1.239432	-3.2025
H	1.314621	1.008136	-2.079463
N	-0.484222	-1.304778	0.622169
O	-1.706172	-1.397409	0.81141
O	0.33309	-2.161121	0.929062
N	-0.440334	1.130555	0.749154
H	0.08196	1.200827	1.612458
H	-1.436794	1.101391	0.915067
Br	3.553878	0.0	0.0
