18

C	-0.557223	-0.031436	-1.444624
C	0.0	0.0	0.0
Cl	-0.357269	-1.692263	-2.110304
H	1.090111	0.0	0.0
N	-1.959515	0.306644	-1.563694
H	-2.499392	-0.285995	-0.940374
H	-2.057734	1.265252	-1.244946
C	0.28263	0.919051	-2.276026
H	0.175235	1.929394	-1.874184
H	1.335556	0.637548	-2.218285
H	-0.068886	0.893384	-3.308571
N	-0.49533	-1.204288	0.763188
O	0.269403	-2.132548	0.985218
O	-1.687913	-1.174905	1.105304
N	-0.438858	1.217433	0.632334
H	0.252701	1.493338	1.318422
H	-1.331456	1.070618	1.086421
Br	3.524617	0.0	0.0
