18

C	-0.473923	-0.046917	-1.456262
C	0.0	0.0	0.0
Cl	-2.372443	-0.362831	-1.374845
H	1.091574	0.0	0.0
N	-0.196307	1.202146	-2.016946
H	-0.55956	1.304973	-2.952946
H	-0.464305	1.954634	-1.39672
C	0.099478	-1.161109	-2.302426
H	-0.188426	-1.002069	-3.345445
H	-0.249588	-2.138192	-1.98288
H	1.187736	-1.113449	-2.207598
N	-0.397618	-1.271906	0.734909
O	0.084321	-2.325917	0.334257
O	-1.158452	-1.167939	1.697071
N	-0.474925	1.171419	0.66019
H	0.161429	1.403578	1.411783
H	-1.397027	1.004938	1.045129
Br	3.464252	0.0	0.0
