18

C	-0.469691	0.019358	-1.462837
C	0.0	0.0	0.0
Cl	-0.087233	-1.63794	-2.178838
H	1.090074	0.0	0.0
N	-1.856221	0.337833	-1.571871
H	-2.127844	0.377823	-2.546093
H	-2.407945	-0.359797	-1.087077
C	0.378913	1.014958	-2.232113
H	0.179143	2.019633	-1.85383
H	0.12373	0.97968	-3.294684
H	1.437354	0.784736	-2.099896
N	-0.516006	-1.233655	0.700769
O	-1.735694	-1.426698	0.652763
O	0.276329	-1.935741	1.312884
N	-0.463835	1.134791	0.74456
H	-1.229418	1.594311	0.272693
H	0.304256	1.764014	0.922018
Br	3.541051	0.0	0.0
