13

C	0.0	0.0	0.0
C	-0.652852	0.15615	-1.336479
F	1.35044	0.0	0.0
H	-1.721527	0.358204	-1.138915
H	-0.383499	-0.899818	0.483892
H	-0.591868	-0.771815	-1.903778
N	-0.357628	1.125677	0.966217
O	0.034999	0.930378	2.114452
O	-0.940092	2.119259	0.558569
N	-0.077716	1.212216	-2.204553
O	-0.450952	1.195994	-3.376483
O	0.704222	2.028208	-1.723513
Cl	-3.565567	0.0	0.0
