13

C	0.0	0.0	0.0
C	-0.54154	0.107774	-1.395317
F	1.351577	0.0	0.0
H	-1.641732	0.095619	-1.326175
H	-0.386794	-0.855578	0.544383
H	-0.177563	0.99624	-1.902618
N	-0.373332	1.223683	0.800424
O	-0.370154	2.303328	0.213076
O	-0.5209	1.054691	2.005574
N	-0.10978	-1.066461	-2.192939
O	0.028888	-2.143245	-1.61531
O	0.043093	-0.891396	-3.40054
Cl	-3.442347	0.0	0.0
