13

C	0.0	0.0	0.0
C	-0.540261	0.405116	-1.340628
F	1.349197	0.0	0.0
H	-0.179793	1.384108	-1.641124
H	-0.387057	-0.952338	0.348831
H	-1.640379	0.372653	-1.276596
N	-0.376757	1.025878	1.042448
O	-0.482456	0.611723	2.191759
O	-0.4256	2.201205	0.688547
N	-0.098287	-0.565475	-2.371549
O	0.088237	-0.128536	-3.506013
O	0.014832	-1.746194	-2.044535
Cl	-3.429284	0.0	0.0
