13

C	0.0	0.0	0.0
C	-0.524059	0.39454	-1.375507
F	1.353558	0.0	0.0
H	-1.430516	0.982557	-1.287366
H	-0.400583	-0.947922	0.345667
H	-0.724705	-0.508608	-1.949664
N	-0.35881	1.009941	1.061941
O	-0.458409	2.182084	0.716856
O	-0.381057	0.582145	2.210752
N	0.499896	1.166173	-2.145638
O	0.388178	2.389856	-2.191302
O	1.387724	0.516311	-2.700428
Cl	-3.238288	0.0	0.0
