13

C	0.0	0.0	0.0
C	-0.568731	0.466176	-1.305416
F	1.355168	0.0	0.0
H	-1.667686	0.469882	-1.203316
H	-0.381876	-0.967469	0.309894
H	-0.19158	1.443709	-1.591231
N	-0.368634	0.975031	1.090992
O	-0.523006	0.503748	2.212049
O	-0.367912	2.168716	0.799327
N	-0.219195	-0.480123	-2.392482
O	0.079399	-1.636084	-2.096925
O	-0.288846	-0.041448	-3.538841
Cl	-3.480469	0.0	0.0
