13

C	0.0	0.0	0.0
C	-0.569158	0.232892	-1.382349
F	1.348361	0.0	0.0
H	-0.445342	-0.687079	-1.955722
H	-0.404815	-0.91055	0.438168
H	-1.628204	0.481146	-1.286251
N	-0.356758	1.110165	0.957631
O	-0.368974	2.250295	0.502128
O	-0.469424	0.790651	2.1362
N	0.139516	1.288875	-2.163335
O	1.30768	1.061091	-2.483299
O	-0.497185	2.286283	-2.489226
Cl	-3.457661	0.0	0.0
