20

C	-0.270555	-0.012823	-1.502652
C	0.0	0.0	0.0
F	-1.646804	0.197681	-1.778339
H	1.091657	0.0	0.0
C	0.53494	1.128849	-2.104475
H	0.546338	1.051668	-3.195361
H	0.101405	2.093545	-1.834585
H	1.548665	1.045273	-1.6961
C	0.134086	-1.323269	-2.145447
H	0.04285	-1.233725	-3.23163
H	1.168428	-1.525932	-1.862224
H	-0.498102	-2.144743	-1.807914
N	-0.531718	-1.228017	0.644147
O	-1.601591	-1.156745	1.262533
O	0.112586	-2.272368	0.528951
C	-0.540538	1.222112	0.71461
H	-0.390378	1.113416	1.790538
H	0.031775	2.093925	0.394715
H	-1.603237	1.383678	0.526664
F	2.644537	0.0	0.0
