20

C	-0.2596	-0.00033	-1.506272
C	0.0	0.0	0.0
F	-1.635387	0.2067	-1.788866
H	1.091726	0.0	0.0
C	0.54665	1.149023	-2.095718
H	0.562514	1.082056	-3.185214
H	1.557576	1.05896	-1.683399
H	0.116834	2.111091	-1.819965
C	0.154984	-1.301179	-2.16202
H	1.189807	-1.499828	-1.881217
H	0.065697	-1.198863	-3.247273
H	-0.470881	-2.130261	-1.834023
N	-0.536374	-1.225544	0.641787
O	-1.581183	-1.143606	1.300385
O	0.084874	-2.278801	0.492006
C	-0.538186	1.225183	0.713342
H	-0.399292	1.109202	1.790511
H	0.046334	2.094991	0.403151
H	-1.599992	1.396454	0.516274
F	2.64211	0.0	0.0
