20

C	-0.414418	0.031934	-1.472304
C	0.0	0.0	0.0
F	-0.018267	-1.18393	-2.061368
H	1.091882	0.0	0.0
C	-1.911186	0.119945	-1.718865
H	-2.108171	0.101951	-2.794399
H	-2.334954	1.035235	-1.298938
H	-2.415114	-0.736046	-1.259107
C	0.408848	1.117382	-2.148862
H	1.43882	1.009788	-1.787344
H	0.364042	0.9781	-3.232514
H	0.029913	2.115609	-1.909375
N	-0.56978	-1.225959	0.626236
O	-1.644209	-1.123938	1.24785
O	0.017218	-2.294746	0.466241
C	-0.424709	1.230295	0.782975
H	-1.495398	1.445323	0.755275
H	0.142778	2.082888	0.4043
H	-0.132372	1.097878	1.825821
F	2.633728	0.0	0.0
