13

C	-0.544684	-0.083406	-1.411888
C	0.0	0.0	0.0
F	-1.952945	-0.349116	-1.33836
H	1.092118	0.0	0.0
H	-0.324257	-0.889998	0.545005
N	-0.287128	1.078738	-2.163882
H	-0.523282	1.912804	-1.643442
H	-0.773238	1.058318	-3.048282
C	-0.008623	-1.262737	-2.126673
N	0.330743	-2.20948	-2.730633
C	-0.520214	1.18586	0.657133
N	-0.940219	2.167993	1.148957
H	2.712956	0.0	0.0
