13

C	-0.516215	0.052152	-1.42597
C	0.0	0.0	0.0
F	0.002838	-1.076922	-2.079353
H	1.092193	0.0	0.0
H	-0.304476	-0.966604	0.418036
N	-1.94262	0.067578	-1.497188
H	-2.309858	-0.699719	-0.948628
H	-2.241243	-0.03448	-2.460155
C	-0.014216	1.224901	-2.175463
N	0.322571	2.152999	-2.810439
C	-0.526533	1.080078	0.814193
N	-0.915669	1.951219	1.498417
H	2.722185	0.0	0.0
