13

C	-0.267798	-0.045066	-1.504599
C	0.0	0.0	0.0
F	-0.101375	1.28997	-1.964948
H	1.094741	0.0	0.0
H	-0.392111	0.924021	0.425722
N	0.642862	-0.945813	-2.076829
H	1.575609	-0.78163	-1.673063
H	0.649231	-0.890918	-3.087058
C	-1.662683	-0.376826	-1.888489
N	-2.772501	-0.623338	-2.185484
C	-0.51224	-1.1619	0.698148
N	-0.917795	-2.091795	1.290723
H	2.764518	0.0	0.0
