13

C	-0.518449	0.062208	-1.427456
C	0.0	0.0	0.0
F	-0.035751	-1.056254	-2.121001
H	1.091973	0.0	0.0
H	-0.323894	0.899805	0.531102
N	-1.944973	0.119007	-1.487637
H	-2.250962	0.058601	-2.45245
H	-2.325489	-0.666414	-0.971145
C	0.006921	1.252095	-2.137569
N	0.330586	2.200395	-2.748123
C	-0.539618	-1.174862	0.660961
N	-0.995106	-2.124874	1.183244
H	2.722693	0.0	0.0
