13

C	-0.276753	-0.031621	-1.502477
C	0.0	0.0	0.0
F	-0.153131	1.290162	-1.992136
H	1.094602	0.0	0.0
H	-0.32168	-0.941159	0.452282
N	0.654685	-0.921149	-2.069932
H	0.664065	-0.855133	-3.079481
H	1.584078	-0.732192	-1.666969
C	-1.663923	-0.423142	-1.860796
N	-2.759412	-0.749226	-2.130372
C	-0.593491	1.128256	0.685069
N	-1.067396	2.031008	1.268816
H	2.762492	0.0	0.0
