13

C	-0.261283	0.142372	-1.493971
C	0.0	0.0	0.0
F	-1.560326	0.579839	-1.776697
H	1.094228	0.0	0.0
H	-0.388775	-0.933714	0.406635
N	0.67393	1.083917	-2.000359
H	1.587862	0.915761	-1.54792
H	0.762331	1.021286	-3.006708
C	-0.180156	-1.199043	-2.140877
N	-0.081914	-2.248531	-2.6608
C	-0.511234	1.137177	0.739313
N	-0.907346	2.043433	1.373377
H	2.723008	0.0	0.0
