13

C	-0.340914	0.099629	-1.492338
C	0.0	0.0	0.0
F	-0.198019	1.451489	-1.821658
H	1.093	0.0	0.0
H	-0.392367	0.855108	0.554845
N	0.534001	-0.668093	-2.304354
H	0.157811	-1.567711	-2.57034
H	1.449066	-0.739421	-1.849478
C	-1.754668	-0.226776	-1.790953
N	-2.878054	-0.463943	-2.032258
C	-0.469677	-1.253485	0.561549
N	-0.831111	-2.277092	1.012618
H	2.758109	0.0	0.0
