13

C	-0.493358	0.017673	-1.434656
C	0.0	0.0	0.0
F	-0.082724	-1.130007	-2.086352
H	1.092857	0.0	0.0
H	-0.29293	0.9334	0.494174
N	-1.929348	0.059587	-1.515084
H	-2.311891	0.648636	-0.79054
H	-2.241943	0.382609	-2.421509
C	0.118184	1.158235	-2.175031
N	0.451732	2.095959	-2.799432
C	-0.540127	-1.132193	0.729901
N	-0.948971	-2.037983	1.35684
H	2.709171	0.0	0.0
