16

C	0.0	0.0	0.0
C	-0.678393	-0.157458	-1.326446
Br	1.951313	0.0	0.0
H	-1.751974	-0.244792	-1.076413
H	-0.3511	-1.115967	-1.734614
N	-0.433985	1.300286	0.693026
O	0.058487	2.322797	0.230844
O	-1.25456	1.216047	1.590896
N	-0.353706	-1.159518	0.953677
O	0.044064	-1.056805	2.105521
O	-0.955929	-2.104953	0.468335
C	-0.449301	0.973597	-2.320449
H	-0.886093	0.679692	-3.276279
H	0.610977	1.184883	-2.471204
H	-0.944593	1.887485	-1.997169
Cl	-3.86581	0.0	0.0
