18

C	0.0	0.0	0.0
C	-0.224499	-0.062173	-1.557624
Br	2.036679	0.0	0.0
H	0.505173	0.624573	-2.001622
N	-0.454045	1.245923	0.476253
H	-0.808546	1.219011	1.419398
H	0.170084	2.018683	0.307174
C	-0.682055	-1.119315	0.733236
H	-1.768026	-0.904694	0.580121
H	-0.432561	-1.084576	1.798452
H	-0.406995	-2.095689	0.334981
C	-1.62418	0.356055	-2.020272
H	-2.434992	-0.033578	-1.366723
H	-1.694295	1.441144	-1.919706
H	-1.746898	0.089762	-3.075403
C	0.125611	-1.391092	-2.064368
N	0.383026	-2.449129	-2.506074
F	-3.360131	0.0	0.0
