18

C	0.0	0.0	0.0
C	-0.399798	-0.156322	-1.512243
Br	2.055896	0.0	0.0
H	0.521102	-0.336718	-2.07417
N	-0.512417	1.210981	0.534386
H	-0.303089	1.215246	1.530111
H	-1.547485	0.997635	0.430394
C	-0.334936	-1.238501	0.824779
H	0.082868	-2.153035	0.39914
H	0.055792	-1.115451	1.839444
H	-1.429194	-1.265938	0.830872
C	-1.081499	1.076449	-2.112097
H	-0.465597	1.95987	-1.937948
H	-2.052365	1.17929	-1.630697
H	-1.20631	0.925847	-3.18907
C	-1.211127	-1.352217	-1.766994
N	-1.738767	-2.339114	-2.125827
F	-2.757859	0.0	0.0
