18

C	0.0	0.0	0.0
C	-0.519527	0.192604	-1.44601
Br	1.972322	0.0	0.0
H	-1.616763	0.191773	-1.229409
N	-0.510566	1.006751	0.890273
H	-0.30824	1.925361	0.504664
H	-1.536736	0.838802	0.797618
C	-0.436718	-1.356722	0.537417
H	-0.125345	-1.42549	1.581028
H	0.004309	-2.183206	-0.021001
H	-1.529954	-1.347012	0.464792
C	-0.16675	-0.895599	-2.45868
H	-0.567924	-0.635931	-3.441638
H	-0.61534	-1.842052	-2.155784
H	0.915121	-1.023731	-2.547951
C	-0.138165	1.504832	-1.957147
N	0.169629	2.553323	-2.392153
F	-2.884542	0.0	0.0
