18

C	0.0	0.0	0.0
C	-0.64672	0.055312	-1.370899
Br	2.037636	0.0	0.0
H	-1.764076	0.104581	-0.977065
N	-0.36038	1.174077	0.719475
H	0.027668	1.15804	1.652745
H	-0.05354	2.012561	0.242494
C	-0.458809	-1.219987	0.771817
H	-0.086549	-2.145449	0.331169
H	-1.556232	-1.137221	0.725602
H	-0.103288	-1.164178	1.804496
C	-0.401795	-1.168689	-2.246766
H	-0.824066	-1.008498	-3.241953
H	-0.899935	-2.037021	-1.813062
H	0.667397	-1.3818	-2.354936
C	-0.298529	1.280019	-2.066491
N	-0.033516	2.275727	-2.636227
F	-2.936018	0.0	0.0
