18

C	0.0	0.0	0.0
C	-0.235754	-0.1895	-1.562383
Br	1.967704	0.0	0.0
H	0.54401	0.413442	-2.035101
N	-0.584922	1.259717	0.360901
H	-1.609246	1.023713	0.280853
H	-0.400615	1.415171	1.349284
C	-0.488847	-1.165453	0.842655
H	-0.228164	-0.984303	1.8906
H	-1.581021	-1.136325	0.721826
H	-0.063937	-2.12193	0.533952
C	-1.555675	0.273024	-2.193191
H	-1.616814	1.357324	-2.084478
H	-1.521856	0.029026	-3.260582
H	-2.417837	-0.145537	-1.673175
C	0.044408	-1.575849	-1.947275
N	0.244912	-2.683495	-2.284764
F	-3.009964	0.0	0.0
