18

C	0.0	0.0	0.0
C	-0.517132	0.023611	-1.460312
Br	1.972459	0.0	0.0
H	-1.614374	0.046638	-1.248178
N	-0.509534	1.103943	0.765867
H	-1.536327	0.929406	0.69373
H	-0.305181	1.971322	0.276778
C	-0.437988	-1.285439	0.690577
H	-1.530926	-1.282997	0.61394
H	-0.129588	-1.232758	1.735981
H	0.004673	-2.171042	0.232841
C	-0.160292	-1.175246	-2.337542
H	-0.606736	-2.080987	-1.925454
H	0.92196	-1.309672	-2.410298
H	-0.561679	-1.033944	-3.344741
C	-0.132103	1.266516	-2.12007
N	0.185845	2.254711	-2.672495
F	-2.88371	0.0	0.0
