18

C	0.0	0.0	0.0
C	-0.609758	0.044503	-1.393662
Br	2.038386	0.0	0.0
H	-1.721176	0.089056	-1.04627
N	-0.361976	1.187928	0.683614
H	0.042065	2.01164	0.261352
H	-0.122712	1.144201	1.66298
C	-0.49198	-1.201823	0.772374
H	-0.13552	-2.136532	0.341681
H	-0.148499	-1.148546	1.809349
H	-1.588316	-1.08953	0.704529
C	-0.318192	-1.169469	-2.266272
H	-0.781743	-2.055648	-1.832875
H	0.757002	-1.339481	-2.371636
H	-0.74321	-1.024055	-3.261994
C	-0.243151	1.272209	-2.078358
N	0.034975	2.263769	-2.647818
F	-2.93915	0.0	0.0
