18

C	0.0	0.0	0.0
C	-0.389031	0.190689	-1.538093
Br	1.978139	0.0	0.0
H	0.534061	0.240615	-2.122697
N	-0.52598	0.974264	0.899207
H	-1.554572	0.777452	0.795653
H	-0.342787	1.907041	0.545733
C	-0.407571	-1.372261	0.521051
H	0.017897	-2.177707	-0.07912
H	-0.063592	-1.463369	1.552787
H	-1.501244	-1.377812	0.475095
C	-1.211912	1.452375	-1.813389
H	-1.424073	1.521952	-2.884539
H	-0.655185	2.348403	-1.526632
H	-2.138912	1.346167	-1.246287
C	-1.103024	-0.96927	-2.07724
N	-1.58544	-1.892357	-2.621521
F	-2.829717	0.0	0.0
