18

C	0.0	0.0	0.0
C	-0.230364	-0.190731	-1.560958
Br	1.967681	0.0	0.0
H	0.518328	0.45539	-2.02779
N	-0.59626	1.253196	0.358066
H	-1.619672	1.006598	0.270648
H	-0.421475	1.409516	1.347794
C	-0.479436	-1.172426	0.839922
H	-1.572065	-1.14911	0.729663
H	-0.210516	-0.99801	1.8867
H	-0.053286	-2.125271	0.5207
C	-1.571547	0.204289	-2.193142
H	-1.697766	1.282027	-2.076407
H	-1.516596	-0.02839	-3.263229
H	-2.414327	-0.260751	-1.684449
C	0.117568	-1.55916	-1.956152
N	0.379835	-2.654895	-2.291669
F	-3.00915	0.0	0.0
