17

C	-0.298561	0.006887	-1.486185
C	0.0	0.0	0.0
F	-1.6819	0.228848	-1.697714
H	1.095591	0.0	0.0
H	-0.337586	0.962337	0.407036
N	0.396391	1.089175	-2.161199
H	1.390259	0.931627	-1.971316
H	0.16995	1.942192	-1.656945
C	0.064009	-1.298321	-2.161359
H	-0.070278	-1.185487	-3.238761
H	1.107971	-1.536378	-1.939334
H	-0.575216	-2.106411	-1.801154
C	-0.578612	-1.158154	0.797705
H	-0.405115	-1.003742	1.866698
H	-1.656867	-1.264147	0.637736
H	-0.091772	-2.099004	0.530073
H	3.057359	0.0	0.0
