17

C	-0.372378	0.053961	-1.481333
C	0.0	0.0	0.0
F	-0.33225	1.406292	-1.877596
H	1.094125	0.0	0.0
H	-0.303578	-0.986527	0.377408
N	0.594837	-0.630627	-2.310462
H	0.457591	-1.628986	-2.195775
H	1.522341	-0.430532	-1.921661
C	-1.775143	-0.426213	-1.807791
H	-1.951478	-0.308357	-2.87922
H	-2.511133	0.162338	-1.255601
H	-1.896988	-1.4787	-1.536401
C	-0.569104	1.110961	0.866977
H	-0.245667	0.976011	1.903171
H	-0.195794	2.07694	0.525912
H	-1.665183	1.143266	0.855125
H	3.098489	0.0	0.0
