17

C	-0.366303	0.033943	-1.482041
C	0.0	0.0	0.0
F	-0.254217	1.379821	-1.881896
H	1.092925	0.0	0.0
H	-0.382535	0.898148	0.494663
N	0.570097	-0.701807	-2.302748
H	0.385931	-1.692502	-2.197396
H	1.505598	-0.53401	-1.920361
C	-1.789871	-0.371764	-1.817561
H	-1.955743	-0.20687	-2.883498
H	-1.970536	-1.424018	-1.586886
H	-2.4945	0.23652	-1.245508
C	-0.458268	-1.263695	0.718285
H	-0.109481	-2.156233	0.189586
H	-1.546615	-1.332495	0.827267
H	-0.011225	-1.298913	1.714957
H	3.087659	0.0	0.0
