12

C	-0.624016	0.04224	-1.371958
C	0.0	0.0	0.0
Cl	0.076058	1.343289	-2.360579
H	1.091398	0.0	0.0
H	-1.70144	0.200294	-1.370878
H	-0.279281	0.932049	0.50542
N	-0.452182	-1.256664	-2.126647
O	0.516668	-1.955171	-1.863251
O	-1.315315	-1.492113	-2.973388
C	-0.541077	-1.113011	0.762038
N	-0.978806	-2.013273	1.378642
H	2.704913	0.0	0.0
