12

C	-0.400375	-0.07836	-1.445669
C	0.0	0.0	0.0
Cl	-2.115616	-0.501523	-1.73188
H	1.092786	0.0	0.0
H	0.211879	-0.82608	-1.945207
H	-0.274466	-0.949965	0.470286
N	-0.11179	1.205528	-2.179294
O	-0.772845	2.190958	-1.879542
O	0.786948	1.156758	-3.01362
C	-0.583662	1.085231	0.761179
N	-1.021993	1.931899	1.44881
H	2.666294	0.0	0.0
