12

C	-0.377966	-0.046828	-1.45088
C	0.0	0.0	0.0
Cl	-2.138468	-0.09	-1.782486
H	1.094966	0.0	0.0
H	0.07138	-0.891697	-1.967614
H	-0.357542	0.921335	0.462161
N	0.154359	1.177439	-2.154782
O	0.007444	2.258433	-1.597409
O	0.660997	0.993469	-3.257317
C	-0.494933	-1.163574	0.70676
N	-0.868133	-2.115116	1.287112
H	2.675242	0.0	0.0
