12

C	-0.620359	0.02537	-1.376404
C	0.0	0.0	0.0
Cl	0.113178	1.288055	-2.388731
H	1.091331	0.0	0.0
H	-1.69519	0.208697	-1.380857
H	-0.275118	0.942286	0.488304
N	-0.474808	-1.292973	-2.102385
O	0.478507	-2.003782	-1.821825
O	-1.338977	-1.530259	-2.947514
C	-0.549174	-1.095805	0.779664
N	-0.991769	-1.982935	1.411968
H	2.702068	0.0	0.0
