12

C	-0.378041	-0.050311	-1.450766
C	0.0	0.0	0.0
Cl	-2.138597	-0.092764	-1.782421
H	1.094959	0.0	0.0
H	0.070503	-0.896865	-1.965426
H	-0.357224	0.922528	0.459969
N	0.155584	1.17124	-2.158273
O	0.011914	2.2538	-1.603027
O	0.660014	0.983462	-3.261228
C	-0.49493	-1.161842	0.709641
N	-0.867032	-2.112351	1.292386
H	2.674882	0.0	0.0
