16

C	-0.502353	-0.001102	-1.425407
C	0.0	0.0	0.0
Cl	0.0574	-1.537614	-2.144098
H	1.088477	0.0	0.0
H	-0.358314	-0.871788	0.54515
N	-2.02771	-0.100845	-1.454971
O	-2.617015	0.481869	-2.35637
O	-2.55179	-0.792835	-0.590861
C	-0.0038	1.150484	-2.258766
H	1.083064	1.176035	-2.161991
H	-0.284156	1.016183	-3.301781
H	-0.432268	2.081275	-1.892327
N	-0.476874	1.182621	0.769257
O	0.048053	1.372712	1.859115
O	-1.386983	1.867364	0.294645
Br	3.474305	0.0	0.0
