16

C	-0.451535	0.021975	-1.441484
C	0.0	0.0	0.0
Cl	-0.042814	-1.490895	-2.251213
H	1.088318	0.0	0.0
H	-0.355025	0.898822	0.50629
N	-1.961647	0.268531	-1.54465
O	-2.374896	1.178057	-0.829501
O	-2.627003	-0.359757	-2.352369
C	0.234434	1.174944	-2.153986
H	1.313658	1.040733	-2.058796
H	-0.05186	1.1841	-3.207096
H	-0.054621	2.117599	-1.684898
N	-0.550967	-1.140624	0.774663
O	-1.63622	-1.599249	0.411317
O	0.078931	-1.504501	1.760145
Br	3.482	0.0	0.0
