13
Coordinates from ORCA-job run
  C   0.90839534041795     -0.43885722838617     -0.46717964077029
  C   -0.41318506453239      0.18284863982342     -0.02575764783829
  F   0.75457608135057     -1.02644558185848     -1.71725407740043
  H   -0.62090480009084      1.02551354120930     -0.70160264461022
  H   1.18817060192822     -1.22598694981219      0.23904186020165
  C   1.96776515664022      0.57337818858185     -0.54418626092405
  N   2.81600681511578      1.37729379705605     -0.64518643511797
  N   -0.20635959287823      0.71085806503417      1.30217087300616
  H   -0.38667087772282     -0.02234143211828      1.97774502462723
  H   -0.81676748276349      1.49191696254469      1.49593866362908
  N   -1.41664923457929     -0.87149130045480     -0.05960574850671
  H   -2.33129767392047     -0.47600685935664      0.12390663174958
  H   -1.44207926896521     -1.30167984226292     -0.97703059804575
