13
Coordinates from ORCA-job run
  C   0.94377669399735     -0.41827273126058     -0.49846338935946
  C   -0.42444537853848      0.18570350693428     -0.17343336835374
  F   0.96581421568417     -0.92698369800592     -1.77724103162898
  H   -0.58298589447845      1.01243220195310     -0.87198963888816
  H   1.15740838594291     -1.24382383808836      0.19301355303174
  C   2.00683266818521      0.58935238442854     -0.37084073276696
  N   2.88179537048209      1.36529557688717     -0.27980681282594
  N   -0.31282512446694      0.75168124017011      1.16307119703734
  H   -0.38535260405599      0.02357423937244      1.86452192875564
  H   -1.04662174418961      1.42614374105353      1.33562618729000
  N   -1.44341892737886     -0.81010893893416     -0.43970570544316
  H   -1.39520542666514     -1.56221516550217      0.23876941508017
  H   -2.36477223451824     -0.39477851900797     -0.38352160192849
