13
Coordinates from ORCA-job run
  C   0.78192317297704      0.16964112891515     -0.88318155761078
  C   -0.57490144889038      0.12035246717283     -0.18996879503541
  F   1.12061054607334      1.49095534390974     -1.14524489403155
  H   -1.30124949026162      0.50956019503123     -0.91989304503490
  H   0.71959677087282     -0.36464147266321     -1.83290070775224
  C   1.82586153520050     -0.43880101484022     -0.04595022999415
  N   2.65415880209486     -0.95244114303022      0.60710728457862
  N   -0.48552198962607      0.89940888608544      1.03408367047736
  H   -1.40081286763212      0.98225448784230      1.45983047618771
  H   -0.14781617227704      1.83378084662746      0.83331456940696
  N   -0.88586361433259     -1.27125903011572      0.03969231216024
  H   -1.88143001423364     -1.40778920444321      0.15078265616969
  H   -0.42555522996509     -1.57202149049158      0.89232826047844
