13
Coordinates from ORCA-job run
  C   0.86002030752172     -0.45616951775360     -0.38687489247623
  C   -0.45041033824355      0.28405823422535     -0.09156834553647
  F   0.73688549732231     -1.13147175487041     -1.59259099339526
  H   -0.54527205212149      1.07686610420178     -0.84016956970016
  H   1.04787532663756     -1.20660123708713      0.39028977925995
  C   2.00114975520034      0.46170141659276     -0.46977304752612
  N   2.91409236212386      1.19260291743363     -0.56487282303411
  N   -0.29466765573513      0.90071340586229      1.20330022977464
  H   -0.30188414133913      0.19393527366505      1.93117786946643
  H   -1.07837899276223      1.51794239669814      1.37631442359283
  N   -1.62707803353377     -0.56004029077810     -0.21072912757481
  H   -1.55218236901924     -1.35778862375389      0.41250190691895
  H   -1.71014966605124     -0.91674832443586     -1.15600540976965
