13
Coordinates from ORCA-job run
  C   0.77588490915563     -0.08106021225188     -0.82090606306958
  C   -0.27613311678548     -0.22328167136576      0.28027129857539
  F   0.55487829709942      1.08581169762495     -1.52408676521614
  H   0.05746382330955     -1.03913574645399      0.93966233375687
  H   0.71245687595647     -0.91037881105388     -1.53321089685482
  C   2.12545639231149     -0.04832593251529     -0.23970612197877
  N   3.19900447685661     -0.06617957389648      0.23222782561791
  N   -1.56479727679682     -0.47502157080137     -0.36217152614380
  H   -2.29404458888423     -0.46151542681184      0.34073842141027
  H   -1.58114493170907     -1.38948253425545     -0.80147620704295
  N   -0.26139230331700      0.98880115287806      1.05622112208868
  H   -0.77574835063612      0.88139524924090      1.91975177637170
  H   -0.67288420656046      1.73737337966204      0.51268480248526
