13
Coordinates from ORCA-job run
  C   0.89501760762310     -0.43765098472132     -0.49462518161273
  C   -0.41204436284760      0.18553824319877     -0.01418210374883
  F   0.70901844680928     -1.00550500566169     -1.74944550669073
  H   -0.63036664001828      1.03907080703444     -0.67288282981106
  H   1.18514555674074     -1.23694911142336      0.19331897016704
  C   1.95837277573373      0.56957172143354     -0.58099104870975
  N   2.80868253958057      1.37041987831573     -0.68833395093267
  N   -0.17206374989118      0.69295342083979      1.31623687741964
  H   -0.77327171410140      1.47456321266887      1.53475971248158
  H   -0.34120953032954     -0.04931422727948      1.98501878119285
  N   -1.42278665067272     -0.86217961957519     -0.03998916364939
  H   -1.47470847578525     -1.27636762766392     -0.96365176320391
  H   -2.32978580284147     -0.46415070716619      0.17376720709797
