13
Coordinates from ORCA-job run
  C   0.83196132541711     -0.43606412257742     -0.49999395798384
  C   -0.49606327324142      0.18988222076056     -0.05496736200675
  F   0.70240971218376     -0.88204383404213     -1.80586459261329
  H   -0.72146679957118      1.00010854499591     -0.76537947171339
  H   1.05286730403684     -1.29373597355208      0.14089338955301
  C   1.93125947455782      0.53505547820336     -0.42868485286603
  N   2.76660454375005      1.35512262822814     -0.34168291255645
  N   -0.33725990617938      0.60637980554078      1.32424669390275
  H   0.26198727278827      1.42022772528580      1.39572751339556
  H   -1.25285366653276      0.85444667914469      1.67955099057563
  N   -1.59946118890489     -0.74077547376828     -0.10140613625942
  H   -1.73896726634338     -1.07734721316540     -1.04553795127811
  H   -1.40101753196084     -1.53125646505393      0.50309864985033
