13
Coordinates from ORCA-job run
  C   0.81666925421915      0.17822518234495     -0.73322423779020
  C   -0.23167779419322      0.10983475369464      0.37326655579902
  F   1.28422283621022      1.48151893558164     -0.85436765584282
  H   0.28248625751985      0.31168646272153      1.32455273238568
  H   0.35235097595368     -0.09892683733688     -1.68409113151834
  C   1.94889665534150     -0.70855648205035     -0.44262369454369
  N   2.87628389196032     -1.38715723938735     -0.20759463190939
  N   -0.72224731831548     -1.24764061581506      0.40525444877563
  H   -1.48818973047658     -1.33478408623880     -0.25245248598358
  H   -1.04845546378278     -1.50830982539730      1.32483830071384
  N   -1.27101626589361      1.07363851863987      0.03999766432979
  H   -1.93316162099661      1.13722629514667      0.80438980490335
  H   -0.86516167754643      1.99224493809644     -0.09694566931931
