13
Coordinates from ORCA-job run
  C   0.69106562900601      0.12428979778079     -0.88008395669252
  C   -0.62899741940206      0.19553218761244     -0.10538058182023
  F   1.08271198678779      1.40698042334691     -1.24186138670093
  H   -1.36832839759430      0.61467251991152     -0.80719112171198
  H   0.55612390780040     -0.44921537469797     -1.80251276126753
  C   1.74662787769505     -0.50080495283215     -0.07143803058935
  N   2.57343972305824     -1.04741638462563      0.55635884347175
  N   -0.39926096698518      0.99488576311467      1.07648103029328
  H   -0.10357597169071      1.92924484131937      0.82420348643301
  H   -1.26135936098973      1.05189884860688      1.60416332629201
  N   -1.11708936071457     -1.08925153851597      0.33470677518342
  H   -0.44188826065586     -1.52555249906504      0.95218445128633
  H   -1.32846938631508     -1.70626363195582     -0.43863007417725
