13
Coordinates from ORCA-job run
  C   0.81655211136365      0.16652002604410     -0.63426462738996
  C   -0.25127083524639      0.11264568096002      0.46526591148555
  F   1.27459790764121      1.47047583276499     -0.75627731687327
  H   0.25618216617931      0.31815856383349      1.41300654838355
  H   0.37526164300651     -0.11629223061221     -1.59751122254222
  C   1.95360194075316     -0.71192054525734     -0.33874673092903
  N   2.87902953341839     -1.39168130904760     -0.09754351974287
  N   -0.74339039933844     -1.24289703859203      0.49957327272536
  H   -1.30401270642084     -1.43315349547289     -0.32424377559872
  H   -1.34456248074781     -1.36022413000969      1.30565170297898
  N   -1.28827442021083      1.11838845253643      0.30839382570657
  H   -1.73817524936124      1.02195309511459     -0.59639962896716
  H   -0.88653921103669      2.04802709773814      0.35309556076322
