13
Coordinates from ORCA-job run
  C   0.88451053162544     -0.35284632318457     -0.57325904911786
  C   -0.41605724578179      0.17687824967007      0.02363712739768
  F   0.66416902587932     -0.76848567992464     -1.88112122041433
  H   -0.67130808357396      1.10122346794920     -0.51508206422516
  H   1.21551750402193     -1.22258318267063      0.00199015843345
  C   1.92500982177591      0.68183538463004     -0.57195239740783
  N   2.75593840649344      1.50891047318714     -0.61129204925677
  N   -0.13761827041255      0.51979343532468      1.39824347141910
  H   -0.26532357937696     -0.30484980123878      1.97335037927639
  H   -0.74819697709458      1.25082004256198      1.73464835243628
  N   -1.40878051890716     -0.88064745856227     -0.10070356199099
  H   -1.48415599775973     -1.17852186348436     -1.06643633140714
  H   -2.31470461688932     -0.53152674425787      0.18897718485717
