13
Coordinates from ORCA-job run
  C   0.76687435129459     -0.36743338946170     -0.57109660194403
  C   -0.43896243844308     -0.26750501090502      0.38459195925973
  F   0.54834240916334      0.47544283598887     -1.65184116892027
  H   -0.20278591465784     -0.89070126765538      1.25625846740318
  H   0.88421209775955     -1.38255321006199     -0.96449202246498
  C   2.00134327154437      0.03978076729006      0.11144028169361
  N   2.95522467881175      0.36244363924567      0.71422275793648
  N   -1.65555298032158     -0.74997619078656     -0.24682992688503
  H   -1.47349219280552     -1.40036715690229     -0.99969752741089
  H   -2.18566435162359      0.03259852640523     -0.60283244715702
  N   -0.65692797291210      1.08564746541634      0.84527079941649
  H   -0.48585576512548      1.74678523272355      0.09705847012563
  H   -0.05775519268441      1.31483775870322      1.62594695894708
