13
Coordinates from ORCA-job run
  C   0.77336918166779     -0.02115685774782     -0.82411063743778
  C   -0.27844868812217     -0.24269933994032      0.26367047844160
  F   0.56059351521508      1.19904172064108     -1.43274099577416
  H   0.04947844642348     -1.11166692028223      0.85454163042245
  H   0.70367991398558     -0.79160384589363     -1.59920142833798
  C   2.12432822321731     -0.04380762033313     -0.24523598937267
  N   3.20672011285791     -0.10874080306512      0.20171224884710
  N   -1.57003420626085     -0.43175018236717     -0.39425160922827
  H   -1.59286415003256     -1.30568303775055     -0.90922773773800
  H   -2.29776540666015     -0.47355387769166      0.30912524157481
  N   -0.25285066839965      0.90295598670484      1.13454615418719
  H   -0.76814588707386      0.73098168455896      1.98704476255680
  H   -0.65906038681792      1.69568309316675      0.65312788185892
