13
Coordinates from ORCA-job run
  C   0.81167715974514     -0.34576734498639     -0.58565410749424
  C   -0.50720745836481      0.17611469639195     -0.00282378735372
  F   0.62072158379751     -0.65474647141823     -1.92309262731006
  H   -0.80272510142285      1.04631340425607     -0.60891191320192
  H   1.09971284812388     -1.25709164665408     -0.05466324725438
  C   1.88294345719993      0.65295536943006     -0.47431366253707
  N   2.72370229021474      1.46883614239936     -0.40154143561826
  N   -0.27863810638912      0.45334934116439      1.40181444356110
  H   -1.17925763252695      0.62326579338065      1.83339147045647
  H   0.29235097294441      1.28121394932635      1.52457306887900
  N   -1.58013219665023     -0.78728874201654     -0.08388757040625
  H   -1.31945943950949     -1.62625493983827      0.42347340274518
  H   -1.76468837716216     -1.03189955143531     -1.04836403446586
