13
Coordinates from ORCA-job run
  C   0.78327258143935      0.12362256448399     -0.89005402639390
  C   -0.57406461665026      0.11538145667724     -0.19638542310178
  F   1.13115404475115      1.42910849687121     -1.21258664913537
  H   -1.29801380551088      0.47469952024745     -0.94367636772061
  H   0.71802285153070     -0.45392110037649     -1.81391117342939
  C   1.82276435532447     -0.45240085744019     -0.02498634486868
  N   2.64724899550816     -0.94073369429567      0.65170538316808
  N   -0.48018364458564      0.94984100452292      0.99064605821378
  H   -0.14078849125433      1.87333680577068      0.74615569470534
  H   -1.39509429824408      1.05434791162516      1.41282209116797
  N   -0.89234621694620     -1.26256349133594      0.09864324587672
  H   -0.43153278916580     -1.52384257585932      0.96399093922873
  H   -1.88843896619665     -1.38887604089103      0.21763657228911
