13
Coordinates from ORCA-job run
  C   0.79173449951414     -0.13762351616488     -0.79680227943340
  C   -0.24660732331313     -0.36175413974606      0.29444777324151
  F   0.38547556759907      0.95863106242878     -1.55727054972109
  H   0.09681308842254     -1.20570096184589      0.90140506901285
  H   0.82456697780436     -1.00153645838039     -1.46325302020785
  C   2.12569525371209      0.13067769365520     -0.24845410884220
  N   3.21049615655398      0.30072294474530      0.16391057630255
  N   -1.47376139681782     -0.77670966728157     -0.37410356448540
  H   -2.18098780532456     -1.01022021129796      0.31196855854338
  H   -1.82788060015209     -0.01197916476671     -0.93755179845587
  N   -0.25739334034835      0.81416112482894      1.14553851695665
  H   -0.87375771847387      0.68083338380214      1.93656849003874
  H   -0.57439335917635      1.62149791002310      0.62259633705012
