13
Coordinates from ORCA-job run
  C   0.83162670583203     -0.44086397169645     -0.53836112863012
  C   -0.41112511058178     -0.26999480973512      0.34251074612127
  F   0.64639271699672      0.30083507280115     -1.70214038328936
  H   -0.23753983920622     -0.84771338475609      1.25682771242788
  H   0.95623778066952     -1.48645816615735     -0.82874645295586
  C   2.03252293612284      0.05062674301569      0.14740450804460
  N   2.96412265426314      0.44243904234933      0.74368548726621
  N   -1.51026917701382     -0.87596173045699     -0.37878987860294
  H   -1.62755329044928     -0.40181232513228     -1.26743427096065
  H   -2.35774762443473     -0.72468500650162      0.15533169099308
  N   -0.66722465760582      1.10530625039698      0.73925828091925
  H   -0.64282617635005      1.71205441103359     -0.07247328692332
  H   0.02338308175745      1.43522787483916      1.40392697558997
