13
Coordinates from ORCA-job run
  C   0.88265225711624     -0.28869464456777     -0.70053493283119
  C   -0.47050808538561      0.10526033813152     -0.10209353799206
  F   0.78983877131518     -0.36683531537104     -2.07063502998041
  H   -0.81042603202920      0.99457689500212     -0.65243396778522
  H   1.17358831618785     -1.26751925479639     -0.30841956733080
  C   1.91685069359280      0.69822953088216     -0.35043936949166
  N   2.71194087447619      1.50487706682849     -0.04344193936962
  N   -0.26936643842298      0.31331644320423      1.32979652736069
  H   -1.17023836477228      0.44939356801300      1.77219709486192
  H   0.29006488408364      1.13976349167908      1.51243208390444
  N   -1.40326232776475     -0.96049968042299     -0.37199962191344
  H   -2.35784080031404     -0.63005724364981     -0.33451804025321
  H   -1.28329374808305     -1.69181119493259      0.32009030082056
