13
Coordinates from ORCA-job run
  C   0.86479108500884     -0.35510917272822     -0.60254998642578
  C   -0.41263395125010      0.18064914287149      0.03696356181896
  F   0.60475694462243     -0.74698646084045     -1.91032932242440
  H   -0.67300867171751      1.11505753858497     -0.48177848539737
  H   1.19921629609006     -1.23774406859933     -0.04991466926510
  C   1.91687504457564      0.66775301064798     -0.61305166921879
  N   2.75566764020877      1.48645208674878     -0.66047302915013
  N   -0.09437444725172      0.50019272840995      1.40829300794295
  H   -0.68085242175042      1.23859708658653      1.76966166803062
  H   -0.22079708937253     -0.32932465034874      1.97620132184191
  N   -1.42033529902766     -0.86486101797563     -0.07520310774905
  H   -1.52798492496561     -1.14452549539242     -1.04372784079349
  H   -2.31332020517020     -0.51015072796492      0.24690855078966
