13
Coordinates from ORCA-job run
  C   0.78171519814702     -0.07357469973575     -0.81284600242143
  C   -0.28027633599804     -0.22568408945343      0.27682802597097
  F   0.57152466261526      1.10245478387388     -1.50376965662004
  H   0.04389196532727     -1.05211129223042      0.92780213990483
  H   0.72242083144526     -0.89424498128691     -1.53542157761403
  C   2.12684937095668     -0.05266332960902     -0.22049509542798
  N   3.20468688696516     -0.08310193495054      0.24068910644678
  N   -1.56479631244001     -0.46250859492806     -0.37955741493298
  H   -1.58031290844779     -1.36912742781017     -0.83479588996264
  H   -2.29932454711822     -0.45928748265159      0.31797123045362
  N   -0.26635829943901      0.97566598632173      1.06963185762327
  H   -0.66801728325442      1.73362345147876      0.53168446194108
  H   -0.79200322875916      0.85955961098153      1.92527881463855
