13
Coordinates from ORCA-job run
  C   0.81100854091653     -0.35679789497526     -0.59060296003362
  C   -0.49973351353456      0.18601433417925     -0.00662651394311
  F   0.61912944329640     -0.64405170627319     -1.93305118281970
  H   -0.76994544222053      1.07391747625264     -0.59864399657793
  H   1.07597196866004     -1.28151611235492     -0.07106180816425
  C   1.89940083814896      0.62014956893536     -0.45677982688719
  N   2.72589929095454      1.44085234648462     -0.31081105118597
  N   -0.27534500328418      0.43178957245467      1.40436809224618
  H   -1.17461446996326      0.61787099262451      1.83198110472467
  H   0.31637162607084      1.24175055620647      1.54625731541681
  N   -1.59358343795257     -0.75065187333931     -0.11340461672552
  H   -1.35722116050771     -1.60404166246202      0.38188586343604
  H   -1.77533868058450     -0.97428559773283     -1.08351041948642
