13
Coordinates from ORCA-job run
  C   0.79493136249333     -0.37444816448583     -0.62579734182292
  C   -0.40488830751150     -0.18828236654704      0.32137613735269
  F   0.58506072808111      0.32229043278219     -1.79797766175479
  H   -0.25940499784517     -0.90549946518832      1.14684760944468
  H   0.89137108854134     -1.43437493066308     -0.88343253027601
  C   2.04274082503541      0.08318094312254      0.00099426293080
  N   3.00816922558967      0.43828563295829      0.56632476348561
  N   -1.66767001928187     -0.49793491808448     -0.31002467512987
  H   -1.73495349109153     -1.48114599089270     -0.54051418372883
  H   -1.74928376681402      0.04807514721629     -1.15994650346695
  N   -0.46920864392071      1.19942936699043      0.72649909104928
  H   -1.33795428192388      1.34029224277255      1.22587785058009
  H   0.30209027864781      1.44913207001916      1.33277318133622
