13
Coordinates from ORCA-job run
  C   0.75887223420062     -0.16637507042575     -0.75601679045513
  C   -0.35074897578255     -0.40025249356689      0.27524614270612
  F   0.39048713116774      0.91174894893183     -1.55616441186886
  H   -0.03294004320098     -1.23981826179286      0.90289584651485
  H   0.87012854044267     -1.03776920204285     -1.40516634548490
  C   2.03090791803385      0.14960249081612     -0.09537584126898
  N   3.02649189861578      0.38291366962774      0.48021344610991
  N   -1.52326567575135     -0.80608815187570     -0.47047900513974
  H   -1.77834023270720     -0.06858334697772     -1.11802343663044
  H   -2.29065981907887     -0.90938207065878      0.18282848135420
  N   -0.58728650312159      0.73423606706248      1.15355035515028
  H   0.18102301944035      0.86983123714234      1.80078990129073
  H   -0.69566949225847      1.58093618376002      0.60670165772195
