13
Coordinates from ORCA-job run
  C   0.71548973784537      0.05889560653831     -0.88364966928163
  C   -0.63021091274613      0.14023430301561     -0.14942499507178
  F   1.00886864905543      1.31399437565011     -1.39796436635336
  H   -1.34113633879053      0.56303476237828     -0.87614939198621
  H   0.66950634380042     -0.63907329635651     -1.72617307513986
  C   1.78842702980915     -0.34360223988683      0.03360692179255
  N   2.64688125737178     -0.63089844883095      0.77995416064622
  N   -0.62523831773782      1.01096768323717      1.00010602148677
  H   0.06122843094147      0.68716221792368      1.67363164431840
  H   -0.39897018412522      1.95930826657234      0.72946138194283
  N   -0.94907622475392     -1.19356333013696      0.31697966127778
  H   -1.73604191162928     -1.12507666538076      0.95080187054668
  H   -1.20872755904072     -1.80138323472349     -0.45018016417838
