11
Coordinates from ORCA-job run
  C   0.34998843201827      0.08404466831086     -0.63240104759143
  C   -0.99733233834274     -0.03679001589713      0.07367397881812
  Cl  0.13626768704361      1.38946478982005     -1.91438374618944
  H   -1.78938546020068     -0.19871068887636     -0.66001096443477
  H   0.56617159036626     -0.81762544796899     -1.20419660142357
  H   -1.22317576949352      0.90110587560468      0.59051373844824
  N   1.39175811123138      0.32773241329926      0.28593122372200
  H   1.26551200253761      1.19962403669112      0.78393095309184
  H   2.30166449070954      0.32097311854830     -0.15401526732950
  C   -0.99360119194126     -1.13741947273314      1.03591867321879
  N   -1.00786755392847     -2.03239927679865      1.79403905966973
