11
Coordinates from ORCA-job run
  C   0.28122185863883      0.33205194244080     -0.64122608565258
  C   -0.69629425021658     -0.72366200928644     -0.13496159496283
  Cl  -0.59191136053393      1.85921245013187     -0.94864034394028
  H   -1.49820865222485     -0.85746035597407     -0.86460801367150
  H   0.64502306398914      0.01310312315185     -1.62610164583857
  H   -0.16955479047029     -1.68079819404906     -0.04686240657870
  N   1.30086878357066      0.57526667240992      0.34523747718478
  H   1.81728773417844     -0.27745702542177      0.52893180982745
  H   1.94816526074591      1.28396853748643      0.02363212337409
  C   -1.27423463569053     -0.38029028833274      1.16237931389643
  N   -1.76136301198679     -0.14293485255680      2.20221936636171
