11
Coordinates from ORCA-job run
  C   0.32425456795875      0.19980067433218     -0.74206813036774
  C   -0.98553318161362     -0.02715395371683      0.03355203848055
  Cl  0.00669101021949      1.53268666049944     -1.89896581380216
  H   -1.25734309622455      0.89143497338664      0.56167823933506
  H   0.54601663205496     -0.68313096771177     -1.34370963840112
  H   -1.80274583859705     -0.27218821130940     -0.64940389969687
  N   1.47771099045474      0.51028612121140      0.04458078187466
  H   1.81059329919642     -0.30990477932571      0.53520863247582
  H   1.29073452580358      1.25216935449260      0.70743282985763
  C   -0.80536711268043     -1.10979937322670      0.99834822085763
  N   -0.60301179657229     -1.98420049863185      1.75434673938654
