11
Coordinates from ORCA-job run
  C   0.43054987818153      0.01488631137704     -0.62768349156051
  C   -0.97067827667243     -0.34209968517245     -0.13482769072791
  Cl  0.29625732804000      0.56887539829463     -2.32172818920871
  H   -1.59263503081074      0.55465399769151     -0.18603496640712
  H   1.04649689640183     -0.89107529042675     -0.67359546374033
  H   -1.41127431269937     -1.11133764860231     -0.77269340372972
  N   0.96808061861748      1.08829884151012      0.16914886365460
  H   1.87940066235643      1.36104414887151     -0.17742844251504
  H   1.07363223621098      0.78027011728126      1.13005356057824
  C   -0.91296064487730     -0.82326505608962      1.24402821095451
  N   -0.80686935474841     -1.19925113473495      2.35076101270198
