11
Coordinates from ORCA-job run
  C   0.28681122620907      0.33594493200824     -0.63771120395663
  C   -0.73005911712032     -0.68650509606208     -0.14236969497303
  Cl  -0.52064766635394      1.90898292117523     -0.89340530841060
  H   -0.24797598515850     -1.66930182291421     -0.08907172442595
  H   0.62072615294368      0.02725709910588     -1.63637866864452
  H   -1.55072606636237     -0.76314513375763     -0.85909840301126
  N   1.33075830006890      0.50743391258769      0.33788630238498
  H   1.80262015530993     -0.37455930119040      0.50182101828595
  H   2.01120542809941      1.18598125472688      0.01986581021495
  C   -1.27079597799526     -0.35300414892143      1.17373943702138
  N   -1.73291644964062     -0.11908461675816      2.22572243551474
