11
Coordinates from ORCA-job run
  C   0.26873879176999      0.47987062735523     -0.29061315725317
  C   -0.53007140468786     -0.69525702383349      0.26517724299597
  Cl  0.37702292580542      1.75360533617868      1.02008677713634
  H   -0.03322151924437     -1.08452629156194      1.15867841869366
  H   -0.27868156374035      0.96559517273323     -1.09780710702157
  H   -0.53754840765299     -1.48335347105844     -0.49243909307487
  N   1.52389104647452      0.02708267186462     -0.77142267399358
  H   2.03726423850781      0.77300793285123     -1.22237595661021
  H   2.09221230102061     -0.34635453119081     -0.02095109901852
  C   -1.90411942148525     -0.33576864590470      0.60169062074659
  N   -3.01548698676753     -0.05490177743360      0.84997602739935
