11
Coordinates from ORCA-job run
  C   0.30478625333889      0.32219178653125     -0.63580610787979
  C   -0.73229143702874     -0.68315988128759     -0.14718550484549
  Cl  -0.48291216463639      1.89787682257360     -0.93430472630335
  H   -0.25941532879192     -1.66820387234421     -0.06194230405391
  H   0.65782746021005     -0.00496606966814     -1.62185038970330
  H   -1.53479432932562     -0.76783522515877     -0.88333972802488
  N   1.32813139768658      0.50033920333530      0.36016329196675
  H   1.78961112201349     -0.38277635735206      0.54708760144805
  H   2.02077075770282      1.16882063915420      0.04704436125139
  C   -1.30285459188451     -0.32085448087517      1.14847745954376
  N   -1.78985913928465     -0.06343256490842      2.18365604660077
