11
Coordinates from ORCA-job run
  C   0.36984549391342      0.14101652889261     -0.69018598988990
  C   -0.79574840604586     -0.68530404861709     -0.15496438519061
  Cl  -0.28710830021484      1.79635246456891     -1.14690014902782
  H   -1.63238573106805     -0.65661832358296     -0.85491716646364
  H   0.70291218717148     -0.28121058446173     -1.63798333311220
  H   -0.45826772701936     -1.72029217996094     -0.04950499785289
  N   1.44431231506672      0.16385313615166      0.22651859565150
  H   1.18459888884022      0.60475203312017      1.10103207525071
  H   2.25284086661514      0.63648660301940     -0.15427977769998
  C   -1.23553332606773     -0.19858470537903      1.15069579949067
  N   -1.54646626119114      0.19954907624898      2.20948932884416
