13

C	0.0	0.0	0.0
C	-0.427365	-0.195734	-1.478206
F	1.37623	0.0	0.0
H	0.51762	-0.241096	-2.03613
H	-0.357603	-0.811202	0.627793
C	-0.435776	1.281855	0.572788
N	-0.539123	2.324304	1.104488
N	-1.211825	0.919438	-1.97906
H	-2.050601	0.840744	-1.370681
H	-1.468238	0.72403	-2.940924
C	-1.067112	-1.518877	-1.648583
N	-1.466044	-2.590185	-1.924096
F	-2.458652	0.0	0.0
