13

C	0.0	0.0	0.0
C	-0.433598	0.074225	-1.48763
F	1.373057	0.0	0.0
H	0.508262	0.128836	-2.048346
H	-0.365306	-0.905167	0.476073
C	-0.428289	1.161643	0.796372
N	-0.572625	2.056864	1.542083
N	-1.220047	1.260475	-1.775609
H	-1.484573	1.23959	-2.754877
H	-2.053552	1.072822	-1.183168
C	-1.076099	-1.19608	-1.889449
N	-1.482139	-2.194075	-2.358524
F	-2.468386	0.0	0.0
