13

C	0.0	0.0	0.0
C	-0.443386	0.073408	-1.482538
F	1.372973	0.0	0.0
H	0.493727	0.108159	-2.053328
H	-0.358764	-0.909754	0.473437
C	-0.443617	1.148119	0.805717
N	-0.591196	2.034121	1.561997
N	-1.213789	1.271791	-1.76773
H	-1.48109	1.257187	-2.74689
H	-2.048321	1.093871	-1.178466
C	-1.107562	-1.187999	-1.880396
N	-1.521048	-2.181426	-2.35059
F	-2.467256	0.0	0.0
