13

C	0.0	0.0	0.0
C	-0.405652	-0.161376	-1.510515
F	1.376157	0.0	0.0
H	0.553865	-0.109051	-2.044111
H	-0.380737	-0.803205	0.621625
C	-0.436449	1.299492	0.5293
N	-0.54457	2.392661	0.946145
N	-1.322765	0.794619	-2.101893
H	-2.103885	0.744327	-1.416339
H	-0.895137	1.714041	-2.039714
C	-0.918751	-1.524704	-1.719103
N	-1.246579	-2.631179	-1.935394
F	-2.438652	0.0	0.0
