12

C	-0.485059	-0.00152	-1.441564
C	0.0	0.0	0.0
Cl	-0.045235	-1.565987	-2.18407
H	1.091299	0.0	0.0
H	0.03453	0.776755	-1.999069
H	-0.395202	-0.834665	0.575315
C	-1.929789	0.192846	-1.558459
N	-3.090012	0.35041	-1.649785
N	-0.431746	1.248545	0.675551
O	-0.616733	1.199163	1.887735
O	-0.533046	2.260681	-0.019922
Br	3.416137	0.0	0.0
