12

C	-0.499689	-0.003855	-1.435595
C	0.0	0.0	0.0
Cl	-0.009789	-1.541796	-2.202661
H	1.091443	0.0	0.0
H	-0.021108	0.801681	-1.99148
H	-0.386417	-0.838633	0.576159
C	-1.953737	0.131809	-1.525521
N	-3.122147	0.242156	-1.578122
N	-0.437684	1.242237	0.683659
O	-0.575125	2.252309	-0.008751
O	-0.592505	1.189871	1.899886
Br	3.424139	0.0	0.0
