12

C	-0.483905	-0.085388	-1.426867
C	0.0	0.0	0.0
Cl	-2.269744	-0.324186	-1.503272
H	1.093089	0.0	0.0
H	-0.041989	-0.995214	-1.840619
H	-0.347017	-0.864911	0.563358
C	-0.113494	1.019568	-2.307908
N	0.159583	1.832155	-3.110003
N	-0.498172	1.191156	0.726132
O	-0.626217	1.074729	1.942652
O	-0.719222	2.214837	0.083163
Br	3.398685	0.0	0.0
