12

C	-0.476352	-0.087564	-1.431863
C	0.0	0.0	0.0
Cl	-2.272934	-0.194089	-1.527369
H	1.092644	0.0	0.0
H	-0.087611	-1.000197	-1.883401
H	-0.401552	0.862252	0.527655
C	-0.045732	1.077186	-2.197992
N	0.257676	2.013181	-2.838737
N	-0.426014	-1.209717	0.746552
O	-0.769855	-1.056866	1.916308
O	-0.368286	-2.287235	0.157332
Br	3.398757	0.0	0.0
