12

C	-0.481926	-0.046461	-1.428788
C	0.0	0.0	0.0
Cl	-2.264734	-0.29823	-1.517725
H	1.093093	0.0	0.0
H	-0.03138	-0.939727	-1.868747
H	-0.344926	-0.881426	0.538877
C	-0.116356	1.087231	-2.275046
N	0.158652	1.925949	-3.048619
N	-0.49926	1.168499	0.761894
O	-0.596434	1.024091	1.977849
O	-0.75246	2.20199	0.146978
Br	3.398114	0.0	0.0
