12

C	-0.587843	-0.006158	-1.403232
C	0.0	0.0	0.0
Cl	-0.387294	1.632427	-2.102979
H	1.088378	0.0	0.0
H	-1.662311	-0.192329	-1.364582
H	-0.349974	0.86785	0.558022
C	0.003517	-0.989654	-2.306568
N	0.423415	-1.756704	-3.089922
N	-0.461652	-1.191093	0.758022
O	-0.933722	-2.138302	0.12264
O	-0.329561	-1.153635	1.975984
Br	3.416296	0.0	0.0
