18

C	0.0	0.0	0.0
C	-0.54439	0.090761	-1.426932
F	1.346632	0.0	0.0
H	-1.634779	0.194819	-1.277314
N	-0.335594	1.339191	0.727687
O	0.155576	1.453091	1.8444
O	-1.00306	2.187014	0.149684
N	-0.584397	-1.013065	0.776066
H	-0.342653	-1.914872	0.377204
H	-1.624683	-0.802109	0.622012
C	-0.181605	-1.142711	-2.242174
H	-0.660987	-2.020538	-1.812345
H	-0.555969	-1.026234	-3.259955
H	0.899556	-1.295453	-2.271104
N	-0.070716	1.276152	-2.209194
O	-0.746348	1.560711	-3.199624
O	0.954785	1.869658	-1.879507
F	-2.812422	0.0	0.0
