18

C	0.0	0.0	0.0
C	-0.561592	0.127711	-1.419543
F	1.347288	0.0	0.0
H	-1.641596	0.284225	-1.272419
N	-0.302592	1.332395	0.779849
O	-0.158484	1.265584	1.998793
O	-0.607258	2.342802	0.157917
N	-0.583268	-1.087192	0.632258
H	-1.625537	-0.862251	0.511147
H	-0.330476	-1.061031	1.614114
C	-0.270228	-1.126934	-2.224417
H	0.800491	-1.342721	-2.24124
H	-0.627422	-0.992818	-3.248211
H	-0.796044	-1.962566	-1.768039
N	-0.025686	1.280033	-2.206667
O	-0.826451	1.836161	-2.957434
O	1.171478	1.552816	-2.149367
F	-2.819732	0.0	0.0
