18

C	0.0	0.0	0.0
C	-0.258679	0.055356	-1.535189
F	1.375049	0.0	0.0
H	0.576287	0.649787	-1.897657
N	-0.298619	1.417061	0.604601
O	-0.207522	2.396613	-0.130632
O	-0.515599	1.456563	1.810572
N	-0.593078	-1.019025	0.686863
H	-1.652217	-0.78315	0.491343
H	-0.388579	-0.911649	1.675208
C	-1.526463	0.531552	-2.201584
H	-2.35557	-0.124639	-1.981779
H	-1.301609	0.611728	-3.269871
H	-1.784367	1.512691	-1.813089
N	0.06533	-1.331176	-2.03613
O	1.201463	-1.518916	-2.481267
O	-0.819795	-2.17916	-2.003419
F	-2.751736	0.0	0.0
