18

C	0.0	0.0	0.0
C	-0.28498	-0.186937	-1.527774
F	1.380853	0.0	0.0
H	0.492993	-0.914051	-1.780043
N	-0.360035	1.381491	0.573509
O	-0.829708	2.251095	-0.148236
O	-0.048254	1.536885	1.749635
N	-0.492309	-0.958454	0.885827
H	-1.536948	-0.751495	0.788813
H	-0.330589	-1.866639	0.467993
C	-0.139704	1.00688	-2.450271
H	-0.006588	0.654626	-3.477016
H	-1.022062	1.634006	-2.399337
H	0.73505	1.590638	-2.161677
N	-1.525105	-0.970793	-1.885044
O	-2.32557	-0.485179	-2.670714
O	-1.538479	-2.141542	-1.50673
F	-2.590656	0.0	0.0
