18

C	0.0	0.0	0.0
C	-0.556705	0.110953	-1.422864
F	1.347178	0.0	0.0
H	-1.632063	0.28676	-1.287016
N	-0.288911	1.349822	0.760084
O	-0.199524	1.293151	1.984977
O	-0.50785	2.366979	0.113914
N	-0.589328	-1.071776	0.647919
H	-1.632918	-0.844681	0.515827
H	-0.347492	-1.020049	1.631599
C	-0.274958	-1.161296	-2.203807
H	0.792332	-1.389559	-2.208928
H	-0.624122	-1.04178	-3.233046
H	-0.815671	-1.981022	-1.735287
N	-0.000708	1.240258	-2.229107
O	1.214446	1.430216	-2.242626
O	-0.807619	1.859888	-2.922309
F	-2.817471	0.0	0.0
