18

C	0.0	0.0	0.0
C	-0.570383	0.170143	-1.413333
F	1.348707	0.0	0.0
H	-1.606334	0.489927	-1.262285
N	-0.259522	1.34476	0.791396
O	-0.367458	1.249907	2.010791
O	-0.234074	2.397646	0.162479
N	-0.58965	-1.077662	0.631175
H	-0.351114	-1.040267	1.616403
H	-1.634039	-0.843264	0.503749
C	-0.512204	-1.14134	-2.179722
H	-1.215083	-1.831026	-1.718295
H	0.49323	-1.56613	-2.157567
H	-0.809484	-0.970888	-3.218453
N	0.139847	1.192572	-2.240439
O	1.344036	1.041688	-2.453969
O	-0.548669	2.077419	-2.74796
F	-2.815742	0.0	0.0
