13

C	-0.632015	-0.008289	-1.531223
C	0.066493	-0.062109	-0.166602
Cl	-2.416138	0.068824	-1.34414
H	1.156188	-0.11212	-0.328045
H	-0.42834	-0.920092	-2.098705
C	-0.18536	1.145502	-2.306183
N	0.166199	2.036823	-2.984337
C	-0.327906	-1.315023	0.503527
N	-0.697156	-2.294637	1.036794
N	-0.175068	1.141761	0.591194
H	-0.957994	1.028488	1.221436
H	0.680555	1.309134	1.124905
Cl	2.897951	0.56732	1.305608
