13

C	-0.128461	0.022761	-1.411266
C	-0.014116	0.067426	0.129228
Cl	-1.833331	-0.300682	-1.909272
H	1.068599	0.111041	0.300578
H	0.511755	-0.767045	-1.803443
C	0.264542	1.314347	-1.963138
N	0.484448	2.395473	-2.365791
C	-0.503623	-1.195879	0.693965
N	-0.921144	-2.189478	1.158653
N	-0.678153	1.177498	0.787921
H	-0.195792	2.035311	0.54784
H	-1.637233	1.249665	0.466868
Cl	2.95551	-0.546516	-1.110684
