19

C	0.0	0.0	0.0
C	-0.560873	-0.122356	-1.42646
Br	1.977261	0.0	0.0
H	-1.646041	-0.188826	-1.247165
C	-0.495328	1.239803	0.732253
H	-0.094321	2.142529	0.270004
H	-1.589965	1.228007	0.6728
H	-0.185076	1.212419	1.779188
C	-0.343565	-1.198167	0.772314
N	-0.571943	-2.168236	1.395931
C	-0.107985	-1.387856	-2.144764
H	-0.681123	-1.497818	-3.069762
H	-0.286674	-2.279513	-1.538848
H	0.954186	-1.346542	-2.402031
C	-0.293939	1.119824	-2.269065
H	0.7782	1.327607	-2.351919
H	-0.687427	0.958354	-3.276902
H	-0.798323	1.999036	-1.863443
Br	-3.896602	0.0	0.0
