19

C	0.0	0.0	0.0
C	-0.572095	-0.099491	-1.422565
Br	1.977353	0.0	0.0
H	-1.653876	-0.182361	-1.231318
C	-0.494396	1.22225	0.760859
H	-1.589774	1.199039	0.727594
H	-0.119189	2.134917	0.296762
H	-0.15501	1.190173	1.797707
C	-0.330947	-1.216752	0.752552
N	-0.535951	-2.202356	1.359525
C	-0.110786	-1.345054	-2.170149
H	0.946739	-1.28117	-2.442987
H	-0.696841	-1.448068	-3.087603
H	-0.264159	-2.249922	-1.57756
C	-0.33215	1.16267	-2.243123
H	0.734808	1.39619	-2.321884
H	-0.721478	1.009627	-3.253354
H	-0.857972	2.021367	-1.822951
Br	-3.946484	0.0	0.0
