16

C	-0.436241	0.047107	-1.444735
C	0.0	0.0	0.0
F	-0.32939	-1.210864	-2.006936
H	1.093986	0.0	0.0
H	-0.366978	-0.927839	0.446344
N	-1.946158	0.319683	-1.481065
O	-2.391805	1.097617	-2.321138
O	-2.631308	-0.311453	-0.677167
C	0.311514	1.046115	-2.273862
H	-0.024892	1.019371	-3.309811
H	0.157069	2.042253	-1.861774
H	1.372294	0.793983	-2.202865
N	-0.469967	1.215797	0.667405
H	-1.265878	1.008894	1.255009
H	0.275543	1.574474	1.248542
Br	3.62135	0.0	0.0
