16

C	-0.456934	-0.077354	-1.450054
C	0.0	0.0	0.0
F	-1.802086	-0.394975	-1.497142
H	1.090886	0.0	0.0
H	-0.329394	-0.944078	0.449808
N	-0.35753	1.312783	-2.054329
O	-1.382418	1.988994	-2.119058
O	0.765195	1.680087	-2.382177
C	0.334099	-1.051167	-2.282184
H	1.395022	-0.804162	-2.225787
H	0.183147	-2.050979	-1.868964
H	-0.012779	-1.040114	-3.318205
N	-0.514629	1.11974	0.767194
H	0.07084	1.930709	0.615207
H	-1.461911	1.344001	0.489343
Br	3.629553	0.0	0.0
