15

C	-0.27234	0.009228	-1.49673
C	0.0	0.0	0.0
Cl	-2.048223	0.10188	-1.868125
H	1.099127	0.0	0.0
H	0.0198	-0.972346	-1.888856
N	0.39966	1.12724	-2.092339
H	1.352278	1.147395	-1.729319
H	0.442184	1.016193	-3.097614
C	-0.50723	-1.247693	0.71231
H	-1.596884	-1.31398	0.674645
H	-0.186602	-1.233331	1.755352
H	-0.075662	-2.134434	0.24176
C	-0.487387	1.217173	0.64003
N	-0.8945	2.156334	1.21585
Br	3.469289	0.0	0.0
