15

C	-0.487261	0.017789	-1.448595
C	0.0	0.0	0.0
Cl	0.231858	-1.424723	-2.326198
H	1.094444	0.0	0.0
H	-0.050818	0.8755	-1.960208
N	-1.907763	0.067969	-1.549052
H	-2.316196	-0.779296	-1.175379
H	-2.191642	0.153351	-2.516882
C	-0.477857	-1.2021	0.81683
H	-1.563355	-1.206191	0.95401
H	-0.010179	-1.165356	1.801792
H	-0.161942	-2.126271	0.332086
C	-0.445509	1.243851	0.631623
N	-0.81437	2.229434	1.153498
Br	3.523446	0.0	0.0
