15

C	-0.4857	0.00891	-1.449359
C	0.0	0.0	0.0
Cl	0.2525	-1.423184	-2.325557
H	1.094454	0.0	0.0
H	-0.061741	0.873478	-1.960653
N	-1.908739	0.040288	-1.548528
H	-2.191745	0.116827	-2.51741
H	-2.303996	-0.814085	-1.174106
C	-0.475328	-1.202181	0.818315
H	-0.160872	-2.126201	0.332056
H	-1.560162	-1.206282	0.959139
H	-0.003528	-1.166004	1.801306
C	-0.450316	1.244004	0.626618
N	-0.822082	2.232231	1.14127
Br	3.523122	0.0	0.0
