15

C	-0.540525	-0.01368	-1.430129
C	0.0	0.0	0.0
Cl	0.171278	1.329204	-2.365328
H	1.094787	0.0	0.0
H	-1.619314	0.200556	-1.40442
N	-0.217508	-1.270406	-2.08367
H	-0.183298	-1.136004	-3.085692
H	-0.94514	-1.945364	-1.878736
C	-0.448313	-1.255045	0.757678
H	0.024309	-2.124419	0.300938
H	-0.112219	-1.195337	1.794225
H	-1.538706	-1.371649	0.753
C	-0.495814	1.193078	0.68487
N	-0.953382	2.128439	1.228912
Br	3.552441	0.0	0.0
