18

C	0.0	0.0	0.0
C	-0.539299	-0.134361	-1.452547
Cl	1.762343	0.0	0.0
H	-1.619024	-0.273181	-1.324193
N	-0.532106	1.146451	0.607762
H	-1.556588	1.061353	0.543277
H	-0.284983	1.164409	1.590093
N	-0.322148	-1.281302	0.868986
O	-0.093468	-2.3871	0.394291
O	-0.739699	-1.068316	2.001045
C	0.021403	-1.269167	-2.295836
H	-0.213013	-2.2452	-1.881131
H	-0.434356	-1.172691	-3.282811
H	1.106432	-1.189885	-2.410951
N	-0.344073	1.11678	-2.18145
H	-0.848326	1.8492	-1.695891
H	0.638563	1.369476	-2.137765
Cl	-3.622374	0.0	0.0
