18

C	0.0	0.0	0.0
C	-0.494717	0.042736	-1.474831
Cl	1.83626	0.0	0.0
H	-0.370073	1.103375	-1.724817
N	-0.501048	1.059575	0.756377
H	-1.492498	1.17479	0.564201
H	-0.378804	0.887565	1.747129
N	-0.289226	-1.383961	0.653132
O	-0.152916	-2.382462	-0.044547
O	-0.605049	-1.377875	1.837712
C	-1.964149	-0.338007	-1.580312
H	-2.309167	-0.074658	-2.580846
H	-2.648472	0.129582	-0.870158
H	-2.088666	-1.416351	-1.46132
N	0.247118	-0.722269	-2.459563
H	0.127111	-1.70673	-2.256232
H	1.236047	-0.517388	-2.401644
Cl	-4.960135	0.0	0.0
