18

C	0.0	0.0	0.0
C	-0.37638	0.057152	-1.525325
Cl	1.824116	0.0	0.0
H	0.439087	-0.471057	-2.021024
N	-0.594565	0.964656	0.800945
H	-0.529147	0.707999	1.778306
H	-1.588968	1.004824	0.557365
N	-0.266395	-1.44733	0.531982
O	-0.048623	-2.383322	-0.229565
O	-0.633834	-1.548999	1.696928
C	-0.366105	1.514431	-1.972513
H	-0.478636	1.530494	-3.058142
H	0.557081	2.024896	-1.690633
H	-1.209954	2.051837	-1.53654
N	-1.597215	-0.57109	-1.950086
H	-2.42164	-0.201226	-1.474533
H	-1.563398	-1.560983	-1.747211
Cl	-3.988414	0.0	0.0
