15
Coordinates from ORCA-job run
  C   1.01504096428611     -0.40596654568741      0.25038785386472
  C   -0.47525438615637     -0.29794071440273     -0.06668922391678
  Br  1.53269965622933      0.57141553056782      1.81209493958356
  H   -0.65587012734100     -0.97199249846972     -0.90924551921564
  H   1.29648878831587     -1.44724993985038      0.39223910100033
  N   1.74925165664704      0.05685663797027     -0.99321425283548
  O   2.31276611373918      1.13994882197891     -1.00674352595114
  O   1.65284298242920     -0.73540494832789     -1.92748996393731
  C   -0.97556870763327      1.09735957270114     -0.35287313157574
  H   -2.04537627401839      1.07338469350771     -0.55786956184466
  H   -0.80099299091240      1.76400078885272      0.48973966162866
  H   -0.46661349971368      1.49495752196346     -1.23330420609672
  N   -1.20458877580672     -0.94469234922266      1.08715485008749
  O   -2.04916892851622     -0.28748410116875      1.68426267227763
  O   -0.88665647154869     -2.10619247041249      1.32955030693108
