15
Coordinates from ORCA-job run
  C   0.88654438371876     -0.63527285518456     -0.48329345062564
  C   -0.57880451383911     -0.37628862630447     -0.14732163174423
  Br  1.39169173850515     -2.41828926341248      0.03003560688915
  H   -1.13972477716451     -1.20885138914896     -0.57606157134584
  H   1.02059985436813     -0.56083886623732     -1.56346145855248
  N   1.84668212553974      0.40645653034117      0.07983782750354
  O   2.75676750751347      0.06674657778692      0.81206979226764
  O   1.64305842440692      1.53116493483706     -0.36601679693797
  C   -1.17951164441536      0.93826955204110     -0.62238091547492
  H   -2.25208744502673      0.92036352909782     -0.41937176790684
  H   -0.72453561485141      1.79115678348363     -0.12478346610997
  H   -1.03393146477173      1.04321697063608     -1.69919649722596
  N   -0.80721883363203     -0.49658420201549      1.33114286161582
  O   -1.86911100565766     -1.00170670341528      1.67964954019268
  O   0.03958126530635     -0.00054297250520      2.06915192745505
