15
Coordinates from ORCA-job run
  C   0.97662994715812     -0.53968878607484     -0.43282289592424
  C   -0.52395354576624     -0.48038016046669     -0.15843011794274
  Br  1.75673569113414     -2.15809749427295      0.24468253874435
  H   -0.95484523114141     -1.38677490752353     -0.58661930869895
  H   1.13371481382346     -0.52095679652542     -1.51069335587263
  N   1.71196469281875      0.68791883763708      0.07836863870417
  O   2.37204654686556      0.62421031740454      1.10082378370946
  O   1.54508094694190      1.67531637976702     -0.63459748742193
  C   -1.22814657087066      0.75960488345036     -0.68299392509083
  H   -2.30193143106371      0.65066015543649     -0.51592347584938
  H   -1.05096524975649      0.86967728685165     -1.75377819303897
  H   -0.87688466048352      1.65681889244131     -0.17815952726051
  N   -0.78415447767021     -0.59337475547563      1.31506143141230
  O   -1.42747098350415     -1.56506325772984      1.70045792011167
  O   -0.34982048848554      0.31912940508043      2.01362397441825
