15
Coordinates from ORCA-job run
  C   1.01615363504057     -0.42260763671015      0.21387606589364
  C   -0.48119175253687     -0.29006664571488     -0.05739185607256
  Br  1.59411207401299      0.52510693461861      1.77275898664627
  H   -0.69526938699289     -0.94792398305963     -0.90493531276399
  H   1.28782963501307     -1.46932258490965      0.33275227474976
  N   1.71978793477426      0.04810601859150     -1.04457506145971
  O   1.59041325076143     -0.73223685780435     -1.98485689454965
  O   2.29216526878257      1.12655273744208     -1.06132043847177
  C   -0.97164441219063      1.11583316391922     -0.30586052031634
  H   -0.48423745593271      1.52172298997250     -1.19464428718492
  H   -2.04735540007403      1.10867283653453     -0.47870188787989
  H   -0.76289045970744      1.76601609927681      0.54181780297887
  N   -1.18380650276942     -0.94662677075628      1.10720725214525
  O   -1.99930995555616     -0.28768361455228      1.74179417453940
  O   -0.87575647262475     -2.11654268684802      1.32007970174565
