15

C	-0.48494	-0.062581	-1.431196
C	0.0	0.0	0.0
F	-0.245801	1.172956	-2.066715
H	1.09551	0.0	0.0
H	-1.577824	-0.193275	-1.482396
H	-0.316626	-0.930292	0.492252
C	0.229266	-1.134941	-2.226008
H	-0.026439	-2.125515	-1.83725
H	1.307919	-0.990586	-2.119766
H	-0.058713	-1.086358	-3.280342
C	-0.538771	1.206708	0.757445
H	-0.191189	2.126113	0.28438
H	-1.635529	1.227703	0.786132
H	-0.166878	1.201784	1.784974
H	3.223461	0.0	0.0
