15

C	-0.498958	0.009768	-1.427281
C	0.0	0.0	0.0
F	-0.234749	-1.240942	-2.012054
H	1.094284	0.0	0.0
H	0.075314	0.741941	-2.008
H	-0.354679	-0.920612	0.479196
C	-1.98725	0.253044	-1.596495
H	-2.269484	0.123304	-2.644757
H	-2.261144	1.263462	-1.285877
H	-2.552781	-0.463866	-0.993785
C	-0.448772	1.228716	0.788776
H	0.082098	1.257079	1.743185
H	-1.524833	1.252385	0.990802
H	-0.18122	2.146534	0.254028
H	3.142016	0.0	0.0
