15

C	-0.394379	0.027194	-1.455508
C	0.0	0.0	0.0
F	-1.808468	-0.008371	-1.601694
H	1.095872	0.0	0.0
H	-0.029922	-0.886899	-1.936558
H	-0.343967	-0.94409	0.438357
C	0.129978	1.232813	-2.202472
H	-0.096104	1.154238	-3.269587
H	1.2126	1.284434	-2.055215
H	-0.326752	2.14915	-1.822681
C	-0.52066	1.180668	0.811541
H	-0.036838	2.111328	0.506264
H	-1.604042	1.300477	0.712853
H	-0.284779	1.036006	1.869276
H	3.129058	0.0	0.0
