18

C	-0.479035	-0.002144	-1.450521
C	0.0	0.0	0.0
Br	0.143787	1.649305	-2.329954
H	1.091577	0.0	0.0
C	0.133804	-1.178327	-2.21784
H	-0.245053	-2.120618	-1.815403
H	1.219938	-1.151013	-2.118818
H	-0.137576	-1.120578	-3.273576
C	-1.933636	-0.044546	-1.589263
N	-3.09151	-0.178533	-1.747634
C	-0.575916	-1.140308	0.818319
H	-0.220853	-2.101099	0.441085
H	-1.67026	-1.131838	0.821435
H	-0.222112	-1.046491	1.848844
N	-0.401291	1.272378	0.686246
O	-1.5962	1.578077	0.686337
O	0.49299	1.922915	1.220236
Cl	2.702389	0.0	0.0
