18

C	-0.392212	0.091292	-1.488171
C	0.0	0.0	0.0
Br	-2.321783	0.556902	-1.670173
H	1.093743	0.0	0.0
C	0.441985	1.077416	-2.301195
H	0.239143	2.096625	-1.984578
H	1.495527	0.853249	-2.103703
H	0.216029	0.964328	-3.36321
C	-0.270811	-1.238162	-2.087634
N	-0.171906	-2.296511	-2.591514
C	-0.521951	-1.218388	0.726768
H	-0.077283	-2.109696	0.28292
H	-1.6105	-1.286997	0.688524
H	-0.21078	-1.172988	1.769815
N	-0.418985	1.25592	0.703142
O	-1.189976	1.15976	1.658425
O	0.039934	2.317188	0.287161
Cl	3.272379	0.0	0.0
