18

C	-0.420614	-0.047836	-1.475447
C	0.0	0.0	0.0
Br	-0.041577	1.691216	-2.319388
H	1.091575	0.0	0.0
C	0.435181	-1.092953	-2.196575
H	0.240268	-1.06086	-3.269453
H	1.488541	-0.884233	-1.992295
H	0.187312	-2.090941	-1.82768
C	-1.840608	-0.328015	-1.682341
N	-2.950406	-0.651565	-1.897767
C	-0.500409	-1.196844	0.798972
H	-1.591038	-1.264022	0.786019
H	-0.06679	-2.117147	0.406992
H	-0.15302	-1.088682	1.828909
N	-0.530249	1.216464	0.681374
O	0.220495	1.825465	1.435196
O	-1.717042	1.488115	0.485089
Cl	3.354134	0.0	0.0
