18

C	-0.404881	0.181725	-1.475371
C	0.0	0.0	0.0
Br	-2.340336	0.643242	-1.608707
H	1.094317	0.0	0.0
C	0.411904	1.222132	-2.23644
H	1.469078	0.999153	-2.061189
H	0.178132	1.167121	-3.30134
H	0.199947	2.218825	-1.860655
C	-0.281035	-1.105041	-2.159312
N	-0.180565	-2.115087	-2.752856
C	-0.512297	-1.264477	0.651853
H	-1.601388	-1.330376	0.628174
H	-0.182224	-1.290114	1.689631
H	-0.076336	-2.123757	0.141319
N	-0.415987	1.206609	0.786918
O	0.01429	2.29778	0.419548
O	-1.153696	1.043111	1.758755
Cl	3.269266	0.0	0.0
