18

C	-0.475244	0.012293	-1.454393
C	0.0	0.0	0.0
Br	0.397024	1.45275	-2.474671
H	1.108364	0.0	0.0
C	-0.06475	-1.299332	-2.131149
H	-0.269133	-1.241154	-3.200581
H	1.00458	-1.457808	-1.969399
H	-0.634352	-2.132748	-1.713178
C	-1.920444	0.203314	-1.576418
N	-3.084969	0.28252	-1.715599
C	-0.489075	-1.213968	0.777767
H	0.008916	-2.111355	0.413494
H	-1.575161	-1.337752	0.709616
H	-0.205641	-1.083862	1.820469
N	-0.425809	1.233111	0.74743
O	-1.012333	2.130177	0.14149
O	-0.14138	1.271524	1.941791
Cl	3.244718	0.0	0.0
