15

C	-0.03121	-0.023781	0.007981
C	-0.493138	-0.010219	-1.454005
F	1.374898	-0.102148	0.033765
H	-1.593018	0.07395	-1.298429
H	-0.42057	-0.942101	0.45183
N	-0.491917	1.069907	0.794362
H	-0.270316	1.932508	0.30384
H	-1.524825	0.918438	0.719459
C	-0.119929	-1.28707	-2.204302
H	-0.574125	-2.140303	-1.693508
H	0.963565	-1.427825	-2.228208
H	-0.494339	-1.269789	-3.231095
C	0.020002	1.16991	-2.139376
N	0.435655	2.116519	-2.699415
F	-2.808885	0.108543	-0.003541
