15

C	0.013127	0.016069	-0.001217
C	-0.462829	0.045742	-1.458552
F	1.42138	0.048168	0.011347
H	-1.564398	0.038326	-1.292307
H	-0.297823	-0.945826	0.411299
N	-0.52417	1.040571	0.82807
H	-1.542783	0.809935	0.756592
H	-0.378031	1.934938	0.367075
C	0.003213	-1.168686	-2.258623
H	1.094222	-1.220924	-2.294871
H	-0.38132	-1.143581	-3.281485
H	-0.376041	-2.074125	-1.777376
C	-0.050561	1.28706	-2.103089
N	0.288075	2.281109	-2.63192
F	-2.76881	-0.06251	0.009449
