17

C	-0.402903	0.018697	-1.480496
C	0.0	0.0	0.0
F	-1.803918	-0.009693	-1.566714
H	1.092231	0.0	0.0
N	0.059389	1.234685	-2.071364
H	0.913978	1.557926	-1.628928
H	0.236418	1.09598	-3.057931
C	0.105996	-1.238345	-2.159554
H	1.192779	-1.277169	-2.074926
H	-0.329759	-2.133641	-1.716196
H	-0.182729	-1.202228	-3.213426
C	-0.529898	-1.170176	0.68039
N	-0.910012	-2.144334	1.214636
N	-0.487743	1.240503	0.689784
O	-1.546676	1.173274	1.313262
O	0.205667	2.244079	0.560946
Cl	3.228238	0.0	0.0
