17

C	-0.506443	0.056649	-1.475476
C	0.0	0.0	0.0
F	-0.222642	-1.214775	-1.953738
H	1.090546	0.0	0.0
N	-1.920553	0.239423	-1.623966
H	-2.177723	1.201106	-1.446957
H	-2.424301	-0.357974	-0.977441
C	0.275968	1.049129	-2.298167
H	1.341455	0.890333	-2.132431
H	0.034652	2.074294	-2.02161
H	0.019886	0.883043	-3.345886
C	-0.548508	-1.168741	0.671467
N	-1.02046	-2.124087	1.164856
N	-0.472256	1.237936	0.696014
O	-1.472542	1.162717	1.411614
O	0.141516	2.271176	0.449558
Cl	3.231906	0.0	0.0
