17

C	-0.338076	0.114411	-1.513006
C	0.0	0.0	0.0
F	-1.69572	0.43126	-1.608598
H	1.091933	0.0	0.0
N	0.398743	1.131612	-2.199927
H	1.381974	0.868133	-2.177286
H	0.32827	1.995559	-1.674721
C	-0.091519	-1.222451	-2.178704
H	0.933007	-1.550118	-1.983656
H	-0.786853	-1.974891	-1.807017
H	-0.233651	-1.088312	-3.251766
C	-0.539928	-1.200281	0.617107
N	-0.954153	-2.208371	1.055583
N	-0.465953	1.196143	0.773862
O	-0.156725	2.302059	0.33614
O	-1.105762	1.008642	1.804559
Cl	3.184738	0.0	0.0
