17

C	-0.356697	0.100556	-1.50793
C	0.0	0.0	0.0
F	-1.718351	0.414664	-1.581917
H	1.108099	0.0	0.0
N	0.365377	1.112621	-2.219168
H	0.351048	1.969456	-1.673338
H	1.339662	0.822024	-2.247085
C	-0.125253	-1.241962	-2.167069
H	0.895364	-1.582607	-1.975827
H	-0.272885	-1.113285	-3.239873
H	-0.829035	-1.982238	-1.788416
C	-0.539755	-1.19232	0.632347
N	-0.958485	-2.193342	1.08144
N	-0.465001	1.205369	0.759507
O	-1.137347	1.033602	1.773521
O	-0.127912	2.303834	0.322905
Cl	3.182672	0.0	0.0
