17

C	-0.38046	-0.035793	-1.498799
C	0.0	0.0	0.0
F	-0.154129	1.286967	-1.960792
H	1.093221	0.0	0.0
N	0.496699	-0.971399	-2.084047
H	0.381458	-1.006005	-3.08794
H	1.466792	-0.774477	-1.838874
C	-1.830656	-0.336988	-1.805231
H	-2.477747	0.398975	-1.329222
H	-2.093068	-1.334285	-1.453576
H	-1.977286	-0.285597	-2.887503
C	-0.517731	-1.161269	0.704564
N	-0.933366	-2.10756	1.261908
N	-0.536628	1.247179	0.629492
O	-1.731253	1.242332	0.937422
O	0.23047	2.190884	0.758048
Cl	3.261451	0.0	0.0
