17

C	-0.378094	0.054096	-1.499255
C	0.0	0.0	0.0
F	-0.157598	1.403301	-1.878588
H	1.092694	0.0	0.0
N	0.504579	-0.839344	-2.139021
H	1.473083	-0.656614	-1.876484
H	0.394849	-0.810052	-3.143865
C	-1.826329	-0.234645	-1.826268
H	-2.477332	0.467584	-1.306886
H	-1.971522	-0.117793	-2.903754
H	-2.084495	-1.252781	-1.537402
C	-0.517482	-1.20054	0.635385
N	-0.936285	-2.163764	1.160617
N	-0.537719	1.208264	0.701444
O	0.231051	2.139638	0.892686
O	-1.735123	1.189146	0.998395
Cl	3.261601	0.0	0.0
