17

C	-0.38547	-0.085232	-1.494996
C	0.0	0.0	0.0
F	-0.15419	1.217787	-2.00717
H	1.090894	0.0	0.0
N	0.485584	-1.045972	-2.049476
H	1.457231	-0.843788	-1.812054
H	0.370478	-1.115377	-3.052636
C	-1.83895	-0.388927	-1.778741
H	-2.104941	-1.372144	-1.389735
H	-2.477423	0.366661	-1.321773
H	-1.994603	-0.373467	-2.860884
C	-0.512546	-1.139578	0.743025
N	-0.89821	-2.074336	1.340201
N	-0.536468	1.265358	0.591303
O	0.219856	2.224301	0.654398
O	-1.721965	1.257736	0.933576
Cl	3.258539	0.0	0.0
