17

C	-0.402178	-0.037954	-1.486282
C	0.0	0.0	0.0
F	-1.805991	0.109459	-1.521887
H	1.098699	0.0	0.0
N	0.201913	1.018957	-2.22086
H	0.750518	0.662613	-2.984811
H	0.782604	1.614317	-1.645778
C	-0.081402	-1.397766	-2.073948
H	-0.685876	-2.177514	-1.61038
H	0.978787	-1.615038	-1.928654
H	-0.310582	-1.372052	-3.14274
C	-0.534589	-1.131936	0.741148
N	-0.92265	-2.090168	1.297825
N	-0.496493	1.272073	0.61728
O	-1.480151	1.220153	1.351185
O	0.10622	2.297298	0.309175
Cl	3.215414	0.0	0.0
