15

C	0.0	0.0	0.0
C	-0.226023	-0.058698	-1.551978
Br	2.012761	0.0	0.0
H	0.391564	0.716242	-2.010021
H	-0.273807	1.012702	0.300964
N	-0.638046	-0.928021	0.841223
H	-0.554075	-1.848367	0.42699
H	-1.643708	-0.643378	0.781299
N	-1.558478	-0.033822	-2.015011
H	-2.268375	-0.086368	-1.221974
H	-1.715962	0.795884	-2.566381
N	0.413419	-1.33738	-2.124178
O	0.166372	-2.411465	-1.577052
O	1.059172	-1.22344	-3.164581
F	-3.045311	0.0	0.0
