15

C	0.0	0.0	0.0
C	-0.41059	0.165134	-1.508426
Br	1.958834	0.0	0.0
H	0.467772	0.325378	-2.136184
H	-0.274796	0.954255	0.446086
N	-0.559977	-1.036805	0.790665
H	-0.398359	-1.922813	0.329548
H	-1.578326	-0.804275	0.731845
N	-1.338072	1.2144	-1.653532
H	-2.152885	0.92198	-1.055208
H	-1.613136	1.291944	-2.623458
N	-0.902969	-1.185815	-2.093381
O	-0.270943	-2.201014	-1.80189
O	-1.811001	-1.147193	-2.917787
F	-2.846609	0.0	0.0
