15

C	0.0	0.0	0.0
C	-0.223932	-0.099686	-1.551154
Br	2.013078	0.0	0.0
H	0.380563	0.674715	-2.028446
H	-0.280923	1.016514	0.278732
N	-0.633786	-0.915029	0.858495
H	-0.553047	-1.841385	0.457358
H	-1.639309	-0.63031	0.797119
N	-1.556879	-0.118091	-2.009728
H	-2.271381	-0.129055	-1.217634
H	-1.720854	0.659036	-2.630409
N	0.440313	-1.380747	-2.090371
O	0.202235	-2.446859	-1.525127
O	1.093317	-1.278297	-3.127647
F	-3.039891	0.0	0.0
