15

C	0.0	0.0	0.0
C	-0.224404	-0.154767	-1.545978
Br	2.013467	0.0	0.0
H	0.390347	0.593157	-2.050612
H	-0.276333	1.028162	0.238877
N	-0.636498	-0.877363	0.894905
H	-1.641975	-0.595406	0.822829
H	-0.55466	-1.820616	0.535272
N	-1.557132	-0.166777	-2.00744
H	-2.267499	-0.158084	-1.212594
H	-1.71358	0.609994	-2.630879
N	0.422375	-1.463068	-2.038756
O	1.064621	-1.409092	-3.086491
O	0.183256	-2.5028	-1.426423
F	-3.04404	0.0	0.0
