15

C	0.0	0.0	0.0
C	-0.359478	0.505696	-1.460614
Br	2.027848	0.0	0.0
H	0.536644	0.927312	-1.919697
H	-0.25513	0.826932	0.662294
N	-0.582845	-1.181709	0.496964
H	-0.421236	-1.937022	-0.159987
H	-1.605156	-0.922733	0.483676
N	-1.447477	1.411122	-1.574927
H	-1.145439	2.308045	-1.215139
H	-2.215309	1.01101	-0.979978
N	-0.638964	-0.722292	-2.306204
O	-1.721157	-0.843363	-2.862937
O	0.273667	-1.552867	-2.360013
F	-2.877944	0.0	0.0
