15

C	0.0	0.0	0.0
C	-0.381527	0.566695	-1.400268
Br	2.002452	0.0	0.0
H	0.502808	0.982601	-1.884845
H	-0.208214	0.809279	0.704498
N	-0.622241	-1.239499	0.285846
H	-0.476705	-1.445509	1.26865
H	-1.643664	-0.983832	0.173934
N	-1.411538	1.521414	-1.317722
H	-2.218159	1.054444	-0.826761
H	-1.677637	1.810878	-2.250638
N	-0.673294	-0.631424	-2.349791
O	-1.770686	-0.682385	-2.899082
O	0.255973	-1.406245	-2.558028
F	-2.943113	0.0	0.0
