15

C	0.0	0.0	0.0
C	-0.522483	0.099588	-1.446764
Br	1.96551	0.0	0.0
H	-1.594455	0.302506	-1.24743
H	-0.272753	0.928108	0.498272
N	-0.555698	-1.087816	0.729214
H	-1.58217	-0.837601	0.653725
H	-0.400695	-1.942153	0.202115
N	-0.372763	-1.047971	-2.280508
H	-1.114029	-1.698782	-2.061583
H	0.533623	-1.486489	-2.16573
N	0.079835	1.30551	-2.103147
O	0.80519	1.164759	-3.085628
O	-0.171609	2.388488	-1.569675
F	-2.804653	0.0	0.0
