14
Coordinates from ORCA-job run
  C   0.92185485267034      0.26564916787672      0.17904595837990
  C   -0.58228752860672     -0.04427628998395      0.25781382577479
  Cl  1.28018094945270      1.46396669122615     -1.04068866044852
  H   -0.72437450475240     -0.74232182672475      1.08458175060140
  H   1.30575758670720      0.59420786382477      1.14279501048572
  N   1.58682256240971     -1.06187225578010     -0.11457254442004
  O   2.00510461466357     -1.29607819636877     -1.23802175456156
  O   1.57715584383790     -1.82933616488213      0.84445641596739
  N   -1.21495405447299     -0.51776429153693     -0.90829920818557
  H   -0.94509512340518     -0.02923894421230     -1.74964911924767
  H   -1.14264669213360     -1.51744740281125     -1.01723243917271
  N   -1.21943048858508      1.25576583836519      0.73306505493313
  O   -0.89598835424203      1.60436011271298      1.86591177313646
  O   -1.95209966354341      1.85638569829438     -0.03820606324272
