14
Coordinates from ORCA-job run
  C   0.68826394728863     -0.55280892574704     -0.36034459461955
  C   -0.52041592066621     -0.07889100839170      0.43977918714430
  Cl  1.17063579007515     -2.15969237714799      0.17927304839455
  H   -0.27888359678969     -0.04742121139427      1.50015245213074
  H   0.49011060173243     -0.57767023378397     -1.42934859971549
  N   1.85235187646167      0.38474148469804     -0.17373261432836
  O   2.00116465082491      0.85401585357880      0.95101847722101
  O   2.55617930387834      0.58177158063018     -1.15722063094991
  N   -1.72638997280126     -0.80294799161457      0.21113439338969
  H   -1.83891140337865     -1.08547452702850     -0.75302068647068
  H   -1.81463818784409     -1.59699155200560      0.82652250027829
  N   -0.78069563843715      1.35387813210099      0.03178637330908
  O   -0.78802284881454      1.56215104580968     -1.18210275655429
  O   -1.01074860152955      2.16633973029596      0.91610345077064
