14
Coordinates from ORCA-job run
  C   0.87062001513765     -0.21078173197522      0.59409711244133
  C   -0.63997380664544      0.08342503168345      0.49552228512902
  Cl  1.70027824433366      1.01630760640520      1.52613451561923
  H   -0.99338046898187      0.27121635647950      1.50940418870394
  H   1.00078134009696     -1.17893625564862      1.07679354396235
  N   1.49314570647205     -0.38029977323459     -0.78203782987860
  O   2.24640263278498      0.47103494884376     -1.21821772892327
  O   1.14369255377227     -1.41667308105795     -1.34470996894028
  N   -1.46207085903393     -0.88284712392951     -0.14693427186255
  H   -1.76153415382392     -1.60362748555593      0.49296047832077
  H   -1.01611185598438     -1.29082888712972     -0.95719256132532
  N   -0.81437264365447      1.39573827244348     -0.23038757130669
  O   -1.23510312693966      2.35233015960775      0.40988349518845
  O   -0.53337357753389      1.37394196306838     -1.42531568712839
