14
Coordinates from ORCA-job run
  C   0.93977878917093      0.26325770054241      0.01391699180846
  C   -0.54269816507344      0.01238824790705      0.33526110769499
  Cl  1.14133551201727      1.25559833031703     -1.40999615695058
  H   -0.57980408812737     -0.54863569864787      1.27045431928394
  H   1.45415264483054      0.71991057590905      0.85700958867670
  N   1.54740761292447     -1.11263310108659     -0.16071597379512
  O   1.65424472998390     -1.72965109134020      0.89599096111150
  O   1.81679201166075     -1.52053372852950     -1.27993488884234
  N   -1.32742150896753     -0.61295949323824     -0.65247505359165
  H   -1.29401841353640     -1.61924372925672     -0.60544542558589
  H   -1.16159757099169     -0.27439632929189     -1.58886294712452
  N   -1.09916427677962      1.38790564350347      0.68609306309876
  O   -0.62010641498828      1.89354668179064      1.69831919079328
  O   -1.92790086212351      1.88544599142136     -0.06061477657753
