14
Coordinates from ORCA-job run
  C   0.78856082191189     -0.49732947167722     -0.37048206412460
  C   -0.50531222178146     -0.12637079882057      0.32357555361353
  Cl  1.30532555851735     -2.10908792582769      0.14004051169033
  H   -0.35048427137866     -0.07435215935913      1.40572314059244
  H   0.68784463795903     -0.48194801215858     -1.45216776857859
  N   1.88797090768299      0.46907365922823     -0.01653011203581
  O   2.75267529489761      0.62985210867136     -0.86652940757148
  O   1.83900381953891      0.98365342935587      1.09570981490122
  N   -1.58346659421866     -0.96568932926225     -0.13604512009127
  H   -2.42693913294100     -0.72481402580985      0.37112986328532
  H   -1.37022307163167     -1.93812377912406      0.04580038527568
  N   -0.89571318939970      1.27537325874329     -0.08078551409743
  O   -0.26947943809188      1.82329256675921     -0.98235157591603
  O   -1.85776312106473      1.73447047928137      0.52391229305670
