14
Coordinates from ORCA-job run
  C   0.96622709205285     -0.22665533728803      0.57056865085558
  C   -0.54809668776230     -0.01804500925599      0.52967693757447
  Cl  1.90788764262872      1.03844992924463      1.34096576995819
  H   -0.89081748167852     -0.01430256970025      1.56637604044005
  H   1.14644902834321     -1.16079541953634      1.09826090723377
  N   1.50837948966349     -0.45036078424281     -0.81607433429289
  O   2.33304967350761     -1.34698440589054     -0.94159599407964
  O   1.08743518509199      0.29523993757947     -1.69585977597073
  N   -1.12656748554531     -1.09129867862301     -0.19541991178966
  H   -2.10572490884448     -1.19827697958819      0.03185141905564
  H   -1.04956393398740     -0.92506528119408     -1.19221330381242
  N   -0.96389663524067      1.36893848669832      0.01306540534735
  O   -1.51043684262841      1.42193386991147     -1.08191689360550
  O   -0.75432413560077      2.30922224188531      0.77131508308580
