14
Coordinates from ORCA-job run
  C   1.00016535143955      0.15696045139858     -0.03929816272163
  C   -0.46777893039088     -0.01299331004946      0.32738393302033
  Cl  1.20524530889318      1.10020733741987     -1.49927616738524
  H   -0.51481577528291     -0.54857937756869      1.27724039052673
  H   1.55046831633769      0.62661116335155      0.77281977617857
  N   1.56456262325291     -1.24622757483845     -0.17801095159844
  O   1.92467574317601     -1.65246452908490     -1.26829943526269
  O   1.58115706008024     -1.85682895439010      0.88605833445836
  N   -1.18835580091908     -0.68634291102840     -0.67282542088243
  H   -2.11918744960059     -0.93370025946417     -0.36941365386167
  H   -1.24398015550799     -0.15433766244497     -1.53095813421967
  N   -0.97784485988725      1.40143755677586      0.67459511206561
  O   -0.38240257479426      1.97415306155806      1.58152801717971
  O   -1.93090885679662      1.83210500836525      0.03745636250248
