14
Coordinates from ORCA-job run
  C   0.95428207579886      0.12707320293424      0.15756549858565
  C   -0.57639329722318      0.03761767679748      0.27255835469633
  Cl  1.45247508566524      1.27771400474066     -1.05910722274615
  H   -0.79907018295905     -0.64300004600028      1.09591647854595
  H   1.40682353637165      0.38247836711473      1.11357515431702
  N   1.41214409656819     -1.27903480386273     -0.16770908384651
  O   1.76846737119461     -1.55430490146446     -1.30305695119331
  O   1.31265524633693     -2.05090303597857      0.78253029185598
  N   -1.29759849729115     -0.32420686377540     -0.88170087535849
  H   -1.38610360621036     -1.32199470510928     -0.99472329297512
  H   -0.97378299112983      0.12166790733676     -1.72757878834309
  N   -1.00546982539753      1.41091714432208      0.77645396683423
  O   -1.66588476893216      2.12046659120064      0.03323117070214
  O   -0.60254424279214      1.69450946174417      1.90204529892535
