14
Coordinates from ORCA-job run
  C   0.71378424089792     -0.57903966485071     -0.28775358979630
  C   -0.51718436800207     -0.03763133982918      0.44542059200828
  Cl  1.21667135614653     -2.10866990357868      0.41512570355993
  H   -0.25239665708249      0.18301869172633      1.47883088016064
  H   0.52775733124303     -0.70883083550595     -1.35222934177995
  N   1.82948515890058      0.42823742826518     -0.16977348572868
  O   2.21541441092497      0.69145635399910      0.96268768860159
  O   2.22113818902100      0.92484739056540     -1.22249680796919
  N   -1.69766519077717     -0.83106100900568      0.37770194332581
  H   -1.87096731970335     -1.17792622422970     -0.55645293129882
  H   -1.67089333601205     -1.59269232970596      1.03972302015093
  N   -0.82811220370197      1.28686339029833     -0.20956659212122
  O   -1.21279764481522      1.21472252753279     -1.37450424597929
  O   -0.67523396703967      2.30670552431877      0.45328716686628
