14
Coordinates from ORCA-job run
  C   0.91797135355017     -0.22136755328053      0.51410892975963
  C   -0.60636029064765      0.01021211880709      0.54392833679258
  Cl  1.76100681748326      0.95823814395386      1.49457440193902
  H   -0.89434150751688      0.09461396047389      1.59179724647103
  H   1.12296112993020     -1.22046575611752      0.89752779467981
  N   1.44797204342192     -0.24211895936909     -0.91029402615153
  O   2.13490027271750      0.67657244752941     -1.31806240352103
  O   1.10022623120810     -1.24074006458486     -1.53865157505651
  N   -1.43395938069200     -0.93260355832598     -0.12611709830706
  H   -1.03430207964274     -1.23883467903172     -1.00286234459099
  H   -1.64467781224763     -1.72614996055293      0.46120973817663
  N   -0.88431234324492      1.37094599401866     -0.04911279298389
  O   -0.68573776844651      1.46558944171340     -1.25691674045455
  O   -1.30034666587283      2.24710842476626      0.69987053324689
