14
Coordinates from ORCA-job run
  C   0.91251911076202     -0.18416259157090      0.53772841487499
  C   -0.61838733249785      0.00244974066792      0.52857305164681
  Cl  1.69746145270792      1.03826204289288      1.51371343724437
  H   -0.93253046657546      0.09512303282976      1.56819695162078
  H   1.13487391021790     -1.16942597368663      0.94657923631396
  N   1.47640484509794     -0.21688805401207     -0.87300058608242
  O   2.14685417534428      0.71335113884186     -1.28223640365785
  O   1.17213401381254     -1.23642555050837     -1.48999267819269
  N   -1.40158541135290     -0.97678188603285     -0.14165110397628
  H   -1.61275310372729     -1.76095334151958      0.45764601917847
  H   -0.97221223154172     -1.29259964158101     -1.00057799266734
  N   -0.92193857758177      1.34366380136844     -0.09491168273052
  O   -0.69584208214622      1.42354323240813     -1.29896388429703
  O   -1.38199830251936      2.21984404990240      0.62789722072474
