14
Coordinates from ORCA-job run
  C   0.93633061254401      0.27357066320177      0.02836301459472
  C   -0.56454307282281      0.06652915983482      0.29184876133382
  Cl  1.23302289246070      0.99099888645795     -1.53660543715684
  H   -0.66355387660739     -0.31424920169325      1.30968538488485
  H   1.39188383506649      0.88282781629280      0.80638253730856
  N   1.55504229731907     -1.10323423693670      0.14987659419742
  O   1.89721109395002     -1.70648995745865     -0.85546773132644
  O   1.59095247830843     -1.51516858927328      1.30641706137534
  N   -1.28154381853772     -0.73987036321769     -0.61327312589482
  H   -1.24029491897967     -1.72099136539360     -0.38535065560575
  H   -1.05802499062303     -0.57027590796761     -1.58304890185783
  N   -1.14391192763473      1.47522708006223      0.34443627597097
  O   -1.91965600881688      1.81546870939783     -0.53561938948765
  O   -0.73391459562649      2.16565730669338      1.27435561166361
