17

C	0.0	0.0	0.0
C	-0.563317	0.217878	-1.396917
F	1.426386	0.0	0.0
H	-1.666131	0.312507	-1.170632
N	-0.349351	1.11249	0.866764
H	-0.526734	1.955129	0.329536
H	0.448009	1.288672	1.470228
N	-0.47204	-1.256751	0.479464
H	-1.504171	-1.120081	0.433879
H	-0.256278	-1.294984	1.471559
C	-0.325613	-0.962051	-2.336439
H	-0.822689	-1.842728	-1.933184
H	-0.735492	-0.740984	-3.324563
H	0.741787	-1.174794	-2.432932
C	-0.062946	1.456014	-1.978472
N	0.31167	2.454673	-2.474364
H	-3.089306	0.0	0.0
