17

C	0.0	0.0	0.0
C	-0.295125	0.220594	-1.509173
F	1.409984	0.0	0.0
H	0.432418	-0.436382	-1.99732
N	-0.451308	0.989653	0.926112
H	-1.484849	0.902726	0.849986
H	-0.185611	1.917982	0.613962
N	-0.452637	-1.304112	0.36187
H	-1.484269	-1.207536	0.288924
H	-0.260485	-1.392906	1.358042
C	-0.02109	1.661985	-1.94176
H	0.948104	1.990995	-1.558847
H	-0.010133	1.731583	-3.032408
H	-0.80563	2.324741	-1.571927
C	-1.600043	-0.201151	-2.050001
N	-2.358034	-0.504881	-2.903771
H	-2.8146	0.0	0.0
