17

C	0.0	0.0	0.0
C	-0.446674	0.190996	-1.463894
F	1.4059	0.0	0.0
H	-1.551884	0.224221	-1.375757
N	-0.418132	1.058767	0.877819
H	-1.446558	1.009894	0.84784
H	-0.127854	1.955955	0.499566
N	-0.487179	-1.265181	0.446032
H	-1.51402	-1.174584	0.337448
H	-0.311167	-1.291472	1.444812
C	0.000695	-0.938122	-2.391841
H	-0.378732	-0.777412	-3.404405
H	1.089632	-0.994919	-2.425713
H	-0.383827	-1.881231	-2.008803
C	0.022451	1.481567	-1.960311
N	0.40026	2.513493	-2.378142
H	-2.996863	0.0	0.0
