17

C	-0.517051	-0.069931	-1.436106
C	0.0	0.0	0.0
F	-0.309125	1.239614	-1.925714
H	1.089034	0.0	0.0
H	-0.357359	0.913699	0.474037
C	0.296484	-0.994484	-2.315809
H	0.112103	-2.030884	-2.034692
H	1.357025	-0.778146	-2.167683
H	0.018073	-0.839851	-3.362624
C	-2.012478	-0.309396	-1.527459
H	-2.545228	0.433523	-0.927708
H	-2.26515	-1.306432	-1.168515
H	-2.33624	-0.214036	-2.567731
N	-0.449815	-1.105776	0.834361
O	-0.444367	-2.25079	0.35644
O	-0.740457	-0.859828	2.014071
H	2.735051	0.0	0.0
