17

C	-0.480178	-0.052602	-1.453234
C	0.0	0.0	0.0
F	-0.298768	-1.407455	-1.811825
H	1.089034	0.0	0.0
H	-0.378834	-0.866061	0.541077
C	-1.963949	0.21996	-1.610622
H	-2.259015	0.048858	-2.650026
H	-2.536685	-0.456038	-0.969721
H	-2.197461	1.251537	-1.342454
C	0.386675	0.763324	-2.386534
H	0.22409	1.827272	-2.219864
H	0.142058	0.50975	-3.422888
H	1.434553	0.539749	-2.174277
N	-0.464891	1.181284	0.715267
O	-0.335774	2.285339	0.168556
O	-0.910094	1.036223	1.864114
H	2.749783	0.0	0.0
