17

C	-0.514335	0.015132	-1.430221
C	0.0	0.0	0.0
F	0.065146	-1.022617	-2.16394
H	1.08976	0.0	0.0
H	-0.350672	0.894422	0.515812
C	-2.013363	-0.194062	-1.527253
H	-2.550594	0.551762	-0.93968
H	-2.331337	-0.126269	-2.571412
H	-2.268868	-1.185752	-1.153729
C	-0.044452	1.308615	-2.069528
H	-0.541854	2.169401	-1.618266
H	1.033321	1.397667	-1.92235
H	-0.269374	1.288749	-3.139388
N	-0.518838	-1.129675	0.773324
O	-0.269843	-2.267262	0.374515
O	-1.171914	-0.886195	1.800308
H	2.782781	0.0	0.0
