17

C	-0.521875	-0.00135	-1.432152
C	0.0	0.0	0.0
F	-0.047154	-1.204572	-1.993322
H	1.088999	0.0	0.0
H	-0.407656	-0.86499	0.527465
C	-2.033484	-0.088315	-1.529938
H	-2.390271	-0.949677	-0.960521
H	-2.333608	-0.207864	-2.575758
H	-2.503153	0.807796	-1.121601
C	0.056787	1.129927	-2.254518
H	1.144747	1.117846	-2.153355
H	-0.315536	2.095997	-1.908857
H	-0.227129	0.995049	-3.303848
N	-0.45174	1.185525	0.752598
O	-1.535296	1.126107	1.352207
O	0.169583	2.250085	0.553874
H	2.928424	0.0	0.0
