15
Coordinates from ORCA-job run
  C   0.92037599930978     -0.60987476504613     -0.12868299857005
  C   -0.53274283270336     -0.28998484476245      0.25151621560215
  F   1.00327338491110     -1.96687149295061     -0.40328417695060
  H   -0.72511333801675     -0.88830366336933      1.15677639636146
  C   1.83582142550978     -0.31142221808256      0.98585629921745
  N   2.52921982962019     -0.06386535253995      1.90076328158918
  C   1.33075094720311      0.13892186871562     -1.32724329484415
  N   1.67910008837318      0.76603088615447     -2.25658876931883
  N   -1.34341846211732     -0.66681080091136     -0.89119397533514
  H   -2.27825008184372     -0.29112228844570     -0.79816590622974
  H   -1.40929276781416     -1.67330926488116     -0.97149715641088
  C   -0.70919281945318      1.18677197391551      0.56245149372486
  H   -1.73813261841427      1.37114039332240      0.87998784491610
  H   -0.05060959948688      1.51307874145656      1.36915413795827
  H   -0.51378915507750      1.78662082742467     -0.32884939171009
