15
Coordinates from ORCA-job run
  C   0.98154039150376     -0.07355157533012     -0.37800590230546
  C   -0.43966502267824     -0.26848050498967      0.18103445973031
  F   0.92542912708448      0.88185847052107     -1.38173724771520
  H   -0.36702296577345     -1.06532635377526      0.92976313094117
  C   1.49006475513594     -1.32901836593749     -0.95296843781151
  N   1.92911012682761     -2.33345923565166     -1.37322057596661
  C   1.91164683756404      0.40157214415308      0.66078052776142
  N   2.62298340185721      0.78018502289625      1.51494242114502
  N   -1.23817189010691     -0.76594403095862     -0.92616883403259
  H   -1.53199711921470     -0.00042829159446     -1.52040375718416
  H   -2.06366156541876     -1.23977546876944     -0.58461756431328
  C   -0.94936333214744      1.01326237381783      0.83690562283546
  H   -0.34286869487751      1.31235622513982      1.69467656617926
  H   -1.97248077422455      0.85372894786026      1.18309080932511
  H   -0.95654327553148      1.83202064261841      0.11392878141105
