15
Coordinates from ORCA-job run
  C   0.97634777030959     -0.06455690796794     -0.39468529248754
  C   -0.43876824597865     -0.27115418520472      0.17595417437129
  F   0.91547838682953      0.93347880200251     -1.35532633621700
  H   -0.36194472562372     -1.09763311875642      0.89139386161610
  C   1.46519696434623     -1.29867665230510     -1.02984728481952
  N   1.88855286198027     -2.28858208560335     -1.49784679407378
  C   1.92406630972397      0.35616305735995      0.65166827641433
  N   2.64674979535260      0.68531393568295      1.51680317243391
  N   -1.25711924471294     -0.71755832841205     -0.93838218454289
  H   -1.55681838519802      0.07350374133267     -1.49486723741369
  H   -2.07897243325841     -1.20245382094869     -0.60424667500888
  C   -0.92868355534528      0.98738931371671      0.88949104480079
  H   -1.94797978256740      0.82180215466542      1.24425949188432
  H   -0.30732559021247      1.24789994135607      1.74930962949878
  H   -0.93978012564533      1.83406415308197      0.19932215354377
