15
Coordinates from ORCA-job run
  C   0.90831005429160     -0.62199695540117     -0.15616283137372
  C   -0.53076296989547     -0.28426574635796      0.26066593206992
  F   0.96362340040884     -1.97743051431668     -0.44640812343669
  H   -0.71067925398065     -0.88889310465277      1.16434638521398
  C   1.85314525889853     -0.35064876183662      0.94047597851739
  N   2.56986495245491     -0.12615470276117      1.84332667289978
  C   1.30264642542254      0.13239491476018     -1.35635565300512
  N   1.63562137836806      0.76348400237503     -2.28869078597343
  N   -1.37326278825958     -0.63719890660526     -0.86627229754343
  H   -1.45845640041857     -1.64158851675342     -0.95406573929711
  H   -2.29887760348791     -0.24543919246921     -0.75023694089759
  C   -0.67721687379081      1.19178454696455      0.59010552794651
  H   0.00557245930643      1.50007567377254      1.38378869414899
  H   -1.69534722049649      1.38834240803991      0.93444469658467
  H   -0.49418081882142      1.79753485524203     -0.29996151585415
