17

C	-0.479896	-0.050814	-1.442623
C	0.0	0.0	0.0
F	0.159689	0.951686	-2.186537
H	1.090294	0.0	0.0
C	-0.04355	-1.326794	-2.061582
N	0.209061	-2.336672	-2.602941
N	-1.900748	0.020573	-1.598868
H	-2.131259	-0.032862	-2.584494
H	-2.191574	0.922295	-1.238353
C	-0.411728	-1.217823	0.807858
H	-1.495702	-1.364925	0.836295
H	0.062325	-2.097837	0.371931
H	-0.020334	-1.104882	1.81714
N	-0.45077	1.227197	0.678654
O	-1.013641	2.12459	0.031761
O	-0.200952	1.328026	1.880072
F	2.507483	0.0	0.0
