17

C	-0.131034	0.028188	-1.54149
C	0.0	0.0	0.0
F	-0.146389	-1.34828	-1.95518
H	1.092136	0.0	0.0
C	-1.429425	0.535471	-2.047851
N	-2.461679	0.925529	-2.449918
N	0.956529	0.733758	-2.053733
H	1.073563	0.594854	-3.046706
H	1.805177	0.525364	-1.481675
C	-0.664601	-1.173529	0.670382
H	-0.144167	-2.078286	0.365904
H	-0.575822	-1.071169	1.751038
H	-1.723084	-1.259344	0.421101
N	-0.494698	1.293908	0.540072
O	0.194578	2.29699	0.364808
O	-1.579795	1.29462	1.135763
F	2.644737	0.0	0.0
