17

C	-0.521257	-0.02667	-1.430283
C	0.0	0.0	0.0
F	0.111942	0.930346	-2.205848
H	1.090743	0.0	0.0
C	-0.174597	-1.332401	-2.051576
N	-0.000479	-2.380803	-2.552146
N	-1.932146	0.218034	-1.494055
H	-2.39124	0.048385	-0.611674
H	-2.39332	-0.267261	-2.248795
C	-0.425474	-1.209923	0.807283
H	0.120145	-2.072909	0.421416
H	-0.109297	-1.062576	1.840278
H	-1.498995	-1.422368	0.806936
N	-0.510716	1.252584	0.611578
O	0.017531	2.310408	0.281339
O	-1.456446	1.173787	1.412415
F	2.530195	0.0	0.0
