17

C	-0.536337	-0.041015	-1.422163
C	0.0	0.0	0.0
F	0.070684	0.912818	-2.221149
H	1.090975	0.0	0.0
C	-0.18777	-1.349737	-2.041274
N	-0.028019	-2.399389	-2.544484
N	-1.950127	0.19828	-1.462925
H	-2.400501	-0.227528	-2.26095
H	-2.40344	-0.079129	-0.603752
C	-0.399281	-1.210077	0.821736
H	0.122004	-2.076479	0.411236
H	-0.03287	-1.064713	1.838096
H	-1.472852	-1.41526	0.874348
N	-0.505198	1.251237	0.61603
O	-1.387881	1.168492	1.485526
O	-0.027999	2.313504	0.2254
F	2.527088	0.0	0.0
