17

C	-0.194561	-0.145708	-1.525994
C	0.0	0.0	0.0
F	-1.352496	-0.915651	-1.804571
H	1.093458	0.0	0.0
C	-0.462528	1.1076	-2.280541
N	-0.666229	1.998154	-3.020328
N	0.955317	-0.830865	-1.991128
H	1.789718	-0.574211	-1.417116
H	1.105866	-0.70609	-2.981711
C	-0.54262	-1.191507	0.74871
H	-0.205686	-1.151121	1.785372
H	-1.631758	-1.238586	0.728169
H	-0.131626	-2.087921	0.282834
N	-0.49137	1.281366	0.54051
O	-1.290913	1.26261	1.48244
O	-0.033268	2.313356	0.04777
F	2.634204	0.0	0.0
