17

C	-0.456999	-0.053431	-1.448513
C	0.0	0.0	0.0
F	0.161918	0.97321	-2.176836
H	1.09027	0.0	0.0
C	0.043444	-1.309342	-2.060576
N	0.37734	-2.291278	-2.609905
N	-1.876135	-0.025212	-1.624855
H	-2.200142	0.861849	-1.257048
H	-2.093385	-0.071181	-2.613959
C	-0.408736	-1.223865	0.800724
H	-1.493083	-1.368519	0.835562
H	0.05953	-2.102287	0.354803
H	-0.010022	-1.119457	1.808253
N	-0.472746	1.218356	0.676806
O	-0.235482	1.318049	1.880455
O	-1.050218	2.105885	0.029737
F	2.507	0.0	0.0
