17

C	-0.480845	-0.077792	-1.450087
C	0.0	0.0	0.0
F	-0.157892	1.13109	-2.052676
H	1.090302	0.0	0.0
C	0.279705	-1.145816	-2.138448
N	0.821943	-2.015473	-2.709368
N	-1.886017	-0.301728	-1.692362
H	-2.412888	0.168323	-0.962406
H	-2.096758	-1.290543	-1.66299
C	-0.45345	-1.189547	0.82005
H	-0.093696	-1.06482	1.843606
H	0.037646	-2.080518	0.420315
H	-1.536275	-1.33392	0.838491
N	-0.569015	1.251456	0.564382
O	-1.782545	1.253562	0.838587
O	0.16179	2.221814	0.721533
F	2.548011	0.0	0.0
