16

C	0.0	0.0	0.0
C	-0.319723	-0.064984	-1.614152
Cl	1.737088	0.0	0.0
H	0.476442	-0.733362	-1.966915
N	-0.362152	1.279378	0.770496
O	-0.879575	2.204725	0.208081
O	0.014889	1.271018	1.932
N	-0.406582	-1.287737	0.70033
O	-0.183162	-2.280638	0.015695
O	-0.771984	-1.272639	1.86302
C	0.043454	1.268985	-2.162651
N	0.28865	2.257378	-2.751441
N	-1.527903	-0.603874	-2.192937
H	-2.346082	-0.11705	-1.828198
H	-1.420845	-0.616332	-3.217668
F	-2.303901	0.0	0.0
