16

C	0.0	0.0	0.0
C	-0.384398	0.087309	-1.502801
Cl	1.733338	0.0	0.0
H	0.320696	0.823003	-1.898256
N	-0.449358	1.293147	0.693291
O	-0.767841	1.294669	1.8652
O	-0.336967	2.27734	-0.02966
N	-0.422395	-1.240924	0.772445
O	-0.87131	-2.192078	0.154544
O	-0.158067	-1.232186	1.967851
C	-1.721744	0.621197	-1.826366
N	-2.480487	1.098865	-2.598276
N	-0.079578	-1.166711	-2.185497
H	-0.814533	-1.825321	-1.962102
H	-0.128996	-0.971755	-3.179393
F	-2.32858	0.0	0.0
