16

C	0.0	0.0	0.0
C	-0.183804	-0.162239	-1.536523
Cl	1.864518	0.0	0.0
H	0.433235	0.584469	-2.034927
H	0.117278	-1.161222	-1.84861
N	-0.560565	1.165207	0.564611
H	-1.594224	0.901471	0.519084
H	-0.42331	1.94462	-0.07148
C	-0.441881	-1.227043	0.767485
H	0.018165	-2.131651	0.364108
H	-1.533263	-1.234299	0.665013
H	-0.15587	-1.107099	1.814171
N	-1.539761	0.066893	-2.122341
O	-1.868544	1.239353	-2.280926
O	-2.147758	-0.908458	-2.549397
F	-2.803369	0.0	0.0
