16

C	0.0	0.0	0.0
C	-0.520402	0.017898	-1.436437
Cl	1.805782	0.0	0.0
H	-0.064421	-0.777785	-2.022913
H	-1.614388	-0.053424	-1.312997
N	-0.527047	1.155092	0.668701
H	-0.305694	1.074702	1.657484
H	-1.554349	0.994376	0.553654
C	-0.436868	-1.324453	0.622917
H	-0.052723	-2.185963	0.067982
H	-1.531437	-1.284286	0.608724
H	-0.059784	-1.378647	1.648622
N	-0.209313	1.286898	-2.142749
O	0.861216	1.352828	-2.756991
O	-1.036962	2.194785	-2.091742
F	-2.894467	0.0	0.0
