16

C	0.0	0.0	0.0
C	-0.527847	-0.008171	-1.424486
Cl	1.841797	0.0	0.0
H	-0.290242	0.936605	-1.907198
H	-1.627394	-0.112327	-1.275276
N	-0.518822	1.235751	0.534296
H	-0.278497	1.2636	1.521394
H	-1.545902	1.046121	0.472503
C	-0.410048	-1.214458	0.826302
H	-1.503375	-1.211967	0.792114
H	-0.062961	-1.067399	1.853821
H	0.005979	-2.140747	0.437848
N	-0.054603	-1.06646	-2.343491
O	-0.054921	-0.778858	-3.542259
O	0.251019	-2.174434	-1.907035
F	-2.882846	0.0	0.0
