16

C	0.0	0.0	0.0
C	-0.488654	0.005933	-1.455956
Cl	1.804457	0.0	0.0
H	-0.19494	-0.898287	-1.985375
H	-1.584911	0.10509	-1.335005
N	-0.51855	1.064462	0.807668
H	-0.333028	1.94287	0.334385
H	-1.542288	0.882468	0.725003
C	-0.442931	-1.325247	0.606822
H	-0.104608	-1.350298	1.644313
H	-0.014088	-2.172079	0.065074
H	-1.5361	-1.315151	0.555595
N	0.059352	1.12372	-2.253525
O	-0.156278	2.275963	-1.869747
O	0.712101	0.848062	-3.265031
F	-2.875425	0.0	0.0
