16

C	0.0	0.0	0.0
C	-0.500439	0.048261	-1.449495
Cl	1.805207	0.0	0.0
H	-1.598621	0.126974	-1.311337
H	-0.201026	-0.833851	-2.012319
N	-0.519522	1.03341	0.848171
H	-0.350989	1.926691	0.396969
H	-1.542379	0.846644	0.767881
C	-0.444933	-1.343704	0.563446
H	-1.538189	-1.327248	0.511932
H	-0.021753	-2.173646	-0.008002
H	-0.106862	-1.407143	1.599097
N	0.011331	1.198588	-2.224134
O	0.601438	0.963964	-3.282141
O	-0.179037	2.335356	-1.784644
F	-2.885333	0.0	0.0
