16

C	0.0	0.0	0.0
C	-0.202552	0.079942	-1.542979
Cl	1.80827	0.0	0.0
H	0.136946	1.05894	-1.881853
H	0.381045	-0.7026	-2.026294
N	-0.576264	1.058492	0.746589
H	-0.400027	1.938471	0.269728
H	-1.609854	0.820734	0.628775
C	-0.453422	-1.334493	0.563755
H	-1.546835	-1.309663	0.508227
H	-0.117225	-1.402524	1.600787
H	-0.040296	-2.165436	-0.011937
N	-1.57335	-0.086549	-2.115833
O	-1.95054	-1.237902	-2.307104
O	-2.147004	0.927328	-2.502144
F	-2.823184	0.0	0.0
