16

C	0.0	0.0	0.0
C	-0.240656	-0.168203	-1.533565
Cl	1.816479	0.0	0.0
H	-0.067483	-1.20132	-1.832911
H	0.447747	0.490591	-2.063691
N	-0.549973	1.170509	0.583407
H	-1.579436	0.921864	0.536676
H	-0.410653	1.951134	-0.050271
C	-0.450864	-1.223152	0.775169
H	0.009875	-2.131156	0.377424
H	-0.161455	-1.0975	1.820856
H	-1.541497	-1.229712	0.673336
N	-1.566865	0.217658	-2.108897
O	-1.804879	1.421825	-2.158391
O	-2.226598	-0.658437	-2.656854
F	-2.799721	0.0	0.0
