16

C	0.0	0.0	0.0
C	-0.52647	-0.050993	-1.43673
Cl	1.787888	0.0	0.0
H	-1.619424	-0.157267	-1.276311
H	-0.267237	0.868242	-1.959624
N	-0.529449	1.189988	0.625201
H	-0.322693	1.992164	0.034345
H	-1.55538	1.001159	0.566197
C	-0.445081	-1.191182	0.835217
H	-1.536329	-1.190734	0.785169
H	-0.028465	-2.122875	0.457977
H	-0.105	-1.018449	1.858251
N	-0.011961	-1.144758	-2.290633
O	-0.218454	-2.309264	-1.948653
O	0.58352	-0.829596	-3.326755
F	-2.897163	0.0	0.0
