16

C	0.0	0.0	0.0
C	-0.512553	-0.101144	-1.429064
Cl	1.844562	0.0	0.0
H	-0.26802	0.812919	-1.96295
H	-1.607796	-0.216785	-1.284748
N	-0.526739	1.262192	0.454529
H	-0.306602	1.342835	1.444072
H	-1.55428	1.062775	0.387009
C	-0.405042	-1.164535	0.895092
H	-0.055206	-0.956511	1.9113
H	0.010324	-2.113082	0.562674
H	-1.498867	-1.16688	0.860963
N	0.014172	-1.209755	-2.252469
O	0.030924	-2.349433	-1.790878
O	0.367691	-0.931914	-3.400917
F	-2.875521	0.0	0.0
