16

C	0.0	0.0	0.0
C	-0.518439	-0.127418	-1.43106
Cl	1.796372	0.0	0.0
H	-0.243312	0.764896	-1.986799
H	-1.611642	-0.234297	-1.29294
N	-0.538824	1.26786	0.436272
H	-0.315739	1.367571	1.423127
H	-1.564729	1.063788	0.373291
C	-0.428626	-1.159414	0.895176
H	-1.521657	-1.151593	0.85439
H	-0.078757	-0.956144	1.912701
H	-0.0224	-2.115041	0.566123
N	0.023056	-1.27392	-2.190896
O	0.712832	-1.027155	-3.184561
O	-0.256101	-2.413519	-1.81583
F	-2.89317	0.0	0.0
