16

C	0.0	0.0	0.0
C	-0.525663	-0.121331	-1.431535
Cl	1.787281	0.0	0.0
H	-1.620961	-0.157022	-1.298814
H	-0.090752	-0.987382	-1.931531
N	-0.53007	1.215269	0.556396
H	-1.556965	1.047389	0.457877
H	-0.313609	1.226033	1.550549
C	-0.450322	-1.257026	0.744688
H	-0.083157	-1.212763	1.77525
H	-1.544799	-1.213134	0.716065
H	-0.065665	-2.169762	0.278777
N	-0.184584	1.059701	-2.263931
O	0.911158	1.069905	-2.834448
O	-1.015075	1.963682	-2.345223
F	-2.904479	0.0	0.0
