14

C	0.0	0.0	0.0
C	-0.535785	0.115218	-1.431192
Cl	1.773751	0.0	0.0
H	-1.580042	-0.217384	-1.37187
H	-0.303926	0.908902	0.530168
N	-0.474156	-1.236756	0.564695
H	-1.495145	-1.168611	0.563126
H	-0.170215	-1.300795	1.529672
C	0.171118	-0.77536	-2.352299
N	0.68682	-1.474774	-3.14175
N	-0.44119	1.509939	-1.884245
H	-0.52878	1.53409	-2.893809
H	-1.268435	1.970526	-1.51404
Cl	-3.529024	0.0	0.0
