14

C	0.0	0.0	0.0
C	-0.322911	0.410876	-1.471103
Cl	1.821588	0.0	0.0
H	0.311623	-0.24279	-2.079447
H	-0.27995	0.791786	0.703103
N	-0.550575	-1.295204	0.262193
H	-1.567636	-1.181961	0.233028
H	-0.313578	-1.579015	1.205693
C	0.150365	1.789935	-1.692808
N	0.521585	2.891473	-1.854832
N	-1.670973	0.292306	-1.9601
H	-2.353277	0.734748	-1.346996
H	-1.942158	-0.682855	-1.976539
Cl	-4.070742	0.0	0.0
