14

C	0.0	0.0	0.0
C	-0.388257	-0.049465	-1.531285
Cl	1.856168	0.0	0.0
H	0.524018	-0.199941	-2.114753
H	-0.275053	0.961931	0.427689
N	-0.506187	-1.03715	0.815527
H	-0.514906	-1.899509	0.281672
H	-1.481424	-0.809991	1.013233
C	-0.891585	1.270877	-1.971294
N	-1.183244	2.298414	-2.461987
N	-1.269043	-1.17437	-1.793251
H	-1.470464	-1.20421	-2.785981
H	-2.157668	-0.979306	-1.318181
Cl	-3.620817	0.0	0.0
