14

C	0.0	0.0	0.0
C	-0.415845	-0.060911	-1.503416
Cl	1.776179	0.0	0.0
H	0.341715	-0.659841	-2.019208
H	-0.282819	0.966094	0.421674
N	-0.534972	-1.10114	0.726931
H	-0.99484	-0.77992	1.566823
H	-1.228178	-1.569439	0.149034
C	-0.319882	1.305985	-2.065205
N	-0.251546	2.391776	-2.50826
N	-1.683076	-0.730783	-1.672873
H	-2.471874	-0.286807	-1.181968
H	-1.917012	-0.81463	-2.653841
Cl	-4.252558	0.0	0.0
