14

C	0.0	0.0	0.0
C	-0.369483	-0.149687	-1.524227
Cl	1.866109	0.0	0.0
H	0.531983	-0.431686	-2.072669
H	-0.271109	0.98658	0.36875
N	-0.51106	-0.994385	0.860626
H	-1.456694	-0.711761	1.11722
H	-0.600931	-1.859642	0.339437
C	-0.752108	1.174182	-2.06283
N	-1.009582	2.203954	-2.567086
N	-1.336139	-1.214687	-1.713429
H	-2.223873	-0.93406	-1.27968
H	-1.497458	-1.340047	-2.706296
Cl	-3.69876	0.0	0.0
