14

C	0.0	0.0	0.0
C	-0.537751	-0.117847	-1.41974
Cl	1.814517	0.0	0.0
H	-1.610451	-0.312543	-1.280632
H	-0.279844	0.996099	0.357024
N	-0.469969	-1.112322	0.777866
H	-1.490361	-1.07209	0.736487
H	-0.199481	-0.983307	1.745544
C	0.043313	-1.255148	-2.133849
N	0.520623	-2.130416	-2.754824
N	-0.355194	1.139794	-2.151505
H	-1.273375	1.536273	-2.312315
H	0.083722	0.976964	-3.048223
Cl	-3.557796	0.0	0.0
