14

C	0.0	0.0	0.0
C	-0.499914	0.099946	-1.448269
Cl	1.784641	0.0	0.0
H	-1.588174	-0.029801	-1.37601
H	-0.296213	0.927377	0.505947
N	-0.484901	-1.212562	0.591529
H	-1.506658	-1.153293	0.542078
H	-0.225017	-1.240147	1.571026
C	0.044447	-0.994215	-2.263041
N	0.460368	-1.854848	-2.944007
N	-0.246673	1.376402	-2.102981
H	-0.897824	2.052832	-1.72252
H	0.697056	1.684837	-1.89989
Cl	-3.52157	0.0	0.0
