14

C	0.0	0.0	0.0
C	-0.324688	-0.075672	-1.535314
Cl	1.785215	0.0	0.0
H	0.40526	-0.788046	-1.931556
H	-0.301861	0.966858	0.415549
N	-0.552279	-1.152175	0.650605
H	-1.566509	-1.075111	0.538897
H	-0.367557	-1.093293	1.645778
C	0.000764	1.232429	-2.135131
N	0.223163	2.275814	-2.624786
N	-1.622847	-0.504011	-1.98398
H	-2.387193	-0.031263	-1.498237
H	-1.729753	-1.488959	-1.779565
Cl	-3.981812	0.0	0.0
