14

C	0.0	0.0	0.0
C	-0.34347	-0.036673	-1.535882
Cl	1.784007	0.0	0.0
H	0.450565	-0.642813	-1.9823
H	-0.303579	0.94984	0.450755
N	-0.541761	-1.176034	0.620094
H	-1.55905	-1.076868	0.556409
H	-0.309737	-1.168326	1.607672
C	-0.190281	1.32379	-2.080268
N	-0.10444	2.40706	-2.525724
N	-1.594106	-0.594748	-1.980448
H	-1.607894	-1.578347	-1.739301
H	-2.396372	-0.172047	-1.509095
Cl	-3.946575	0.0	0.0
