13

C	-0.421876	0.01262	-1.432883
C	0.0	0.0	0.0
Br	-0.056746	1.751002	-2.207994
H	1.090859	0.0	0.0
H	0.103465	-0.728864	-2.02824
H	-0.381948	0.830761	0.585801
N	-1.893343	-0.252252	-1.638258
O	-2.20507	-0.861655	-2.657781
O	-2.67215	0.17654	-0.793094
N	-0.41135	-1.23867	0.629664
O	-0.474891	-1.263165	1.862408
O	-0.561956	-2.232275	-0.101635
H	2.567593	0.0	0.0
