13

C	-0.545119	-0.008449	-1.383495
C	0.0	0.0	0.0
Br	0.696024	-0.718748	-2.773685
H	1.085789	0.0	0.0
H	-1.434754	-0.611107	-1.516342
H	-0.247554	0.898923	0.557749
N	-0.883157	1.375083	-1.830994
O	-0.133828	2.288663	-1.495761
O	-1.892438	1.499492	-2.525695
N	-0.440212	-1.144968	0.738063
O	-0.432483	-1.057161	1.976977
O	-0.672876	-2.200188	0.116883
H	2.385147	0.0	0.0
