13

C	-0.543929	0.073553	-1.387385
C	0.0	0.0	0.0
Br	-2.49317	0.273552	-1.462082
H	1.091034	0.0	0.0
H	-0.139131	0.966608	-1.860607
H	-0.289697	0.89103	0.555675
N	-0.102581	-1.062687	-2.300845
O	-0.913476	-1.857669	-2.748473
O	1.101306	-1.035002	-2.530767
N	-0.451047	-1.15523	0.735548
O	-0.62037	-1.029956	1.956163
O	-0.512476	-2.231734	0.124195
H	2.526846	0.0	0.0
