13

C	-0.51935	0.009123	-1.396294
C	0.0	0.0	0.0
Br	0.011276	1.644291	-2.292086
H	1.090855	0.0	0.0
H	-0.163116	-0.825456	-1.992368
H	-0.334848	0.852762	0.584846
N	-2.029591	-0.048947	-1.469476
O	-2.665713	0.47319	-0.559468
O	-2.510977	-0.5988	-2.45639
N	-0.421917	-1.207703	0.685423
O	-0.745017	-2.190867	-0.005303
O	-0.330548	-1.21977	1.916389
H	2.574157	0.0	0.0
