13

C	-0.583671	-0.00145	-1.390619
C	0.0	0.0	0.0
Br	0.139823	-1.400617	-2.4884
H	1.088593	0.0	0.0
H	-1.667306	-0.100051	-1.396901
H	-0.397004	0.853646	0.553994
N	-0.294134	1.374388	-1.964765
O	-1.05198	2.2444	-1.536834
O	0.592714	1.526913	-2.789497
N	-0.473757	-1.215405	0.729677
O	0.357491	-1.835999	1.381438
O	-1.663746	-1.525144	0.610437
H	2.747339	0.0	0.0
