13

C	-0.391484	0.065727	-1.43607
C	0.0	0.0	0.0
Br	-2.323184	0.022	-1.777387
H	1.092007	0.0	0.0
H	-0.009668	0.955823	-1.924211
H	-0.363422	-0.885781	0.512567
N	0.208098	-1.112059	-2.148105
O	0.914981	-0.858989	-3.118644
O	-0.032586	-2.229468	-1.701582
N	-0.413931	1.178294	0.715387
O	-0.609211	1.068517	1.934655
O	-0.420509	2.257757	0.100789
H	2.512905	0.0	0.0
