15

C	0.0	0.0	0.0
C	-0.566389	-0.020916	-1.413968
Cl	1.765137	0.0	0.0
H	-0.222222	0.852692	-1.968457
H	-1.66491	0.025992	-1.304953
N	-0.371074	1.353052	0.625786
O	-0.471835	2.310992	-0.132771
O	-0.456728	1.392897	1.846344
C	-0.525	-1.119381	0.863012
H	-0.254394	-2.071963	0.40111
H	-0.093418	-1.064879	1.860245
H	-1.614257	-1.027771	0.908122
C	-0.178911	-1.236552	-2.117676
N	0.140113	-2.205906	-2.698251
Cl	-3.695415	0.0	0.0
