15

C	0.0	0.0	0.0
C	-0.278532	0.377637	-1.47473
Cl	1.779249	0.0	0.0
H	0.09746	-0.472353	-2.054032
H	0.3759	1.219863	-1.704961
N	-0.395137	1.148271	0.922486
O	-0.512937	2.255337	0.411775
O	-0.487439	0.885567	2.114176
C	-0.578154	-1.297418	0.474844
H	-0.258296	-2.094804	-0.199892
H	-1.669371	-1.192167	0.451155
H	-0.240141	-1.516616	1.486449
C	-1.575529	0.754649	-2.043063
N	-2.356952	1.192525	-2.805496
Cl	-3.647657	0.0	0.0
