15

C	0.0	0.0	0.0
C	-0.586084	-0.142407	-1.396023
Cl	1.764174	0.0	0.0
H	-1.669167	0.037041	-1.291724
H	-0.451606	-1.183269	-1.705767
N	-0.389627	1.37069	0.572042
O	-0.224858	1.522751	1.776665
O	-0.796482	2.21743	-0.213204
C	-0.521909	-1.075842	0.925257
H	-0.194046	-2.049549	0.555193
H	-1.614709	-1.017991	0.924229
H	-0.133047	-0.920827	1.929473
C	0.007308	0.7157	-2.413891
N	0.497803	1.351906	-3.269886
Cl	-3.716534	0.0	0.0
