16

C	0.0	0.0	0.0
C	-0.512769	0.035293	-1.434627
F	1.383103	0.0	0.0
H	-1.560746	0.345852	-1.350644
H	-0.286623	-0.957044	0.457314
N	-0.499192	1.148781	0.704156
H	-0.281592	1.039299	1.691803
H	-1.52561	1.047353	0.619673
N	-0.421497	-1.320132	-2.006188
H	-0.661317	-1.248393	-2.991869
H	-1.184814	-1.842204	-1.58338
C	0.277538	1.018782	-2.275196
H	0.313372	1.985981	-1.771863
H	-0.197187	1.152764	-3.254221
H	1.296838	0.657382	-2.426567
H	-3.175907	0.0	0.0
