16

C	0.0	0.0	0.0
C	-0.395149	0.055177	-1.503797
F	1.396511	0.0	0.0
H	0.498631	0.426027	-2.025612
H	-0.304566	-0.952504	0.440608
N	-0.511992	1.055606	0.809897
H	-0.683252	1.844988	0.189331
H	-1.458531	0.75143	1.054204
N	-1.466551	1.028897	-1.700292
H	-1.74082	1.014216	-2.677555
H	-2.285767	0.697555	-1.143519
C	-0.724974	-1.350163	-2.012769
H	-1.668988	-1.66228	-1.565606
H	-0.840986	-1.350499	-3.10287
H	0.056929	-2.072057	-1.755655
H	-3.357601	0.0	0.0
