16
Coordinates from ORCA-job run
  C   -0.79443526009099      0.08665082621076     -0.33770636659504
  C   0.68515486991214     -0.32837722585144     -0.41897728970439
  H   -1.16900856110079      0.12267303451092     -1.37151137585795
  H   0.78256371977624     -0.97710925169719     -1.30216078589581
  N   -0.90777466710505      1.38016330950098      0.33862475350417
  H   -1.89038923533508      1.61371970766747      0.42857572935874
  H   -0.47936933350358      2.08794850783721     -0.24844894006004
  N   -1.53821833880978     -0.95121946847475      0.35274512064302
  H   -2.53084233674298     -0.84610201656714      0.18293786825124
  H   -1.37543473407683     -0.82446230632151      1.34674615415630
  N   1.07486310948242     -1.01092825100951      0.81621542665626
  H   0.56951447372742     -1.88886517625725      0.87095629642046
  H   2.06328465319282     -1.23163932548575      0.76640141547623
  N   1.49361671344965      0.85246677184887     -0.66209736516570
  H   1.60325367067125      1.32794652946406      0.22812926578480
  H   2.41422125655315      0.58813433462426     -0.99042990697230
