16
Coordinates from ORCA-job run
  C   -0.82497366534753      0.27837338808820     -0.21090426917640
  C   0.54188887973404     -0.40205311990809     -0.37578922766805
  H   -1.08684589773845      0.74657231015705     -1.17691285676670
  H   0.44023884854424     -1.17922593457010     -1.15006368406342
  N   -0.70217738092613      1.22892948108466      0.88093333487123
  H   -1.60369733303316      1.65990957051000      1.03924382919302
  H   -0.01663378757746      1.93324912109598      0.63875582852865
  N   -1.90155982402532     -0.63211094455089      0.12571271533938
  H   -1.55412314371649     -1.23994261729401      0.86112114820671
  H   -2.12014171680014     -1.21273508596743     -0.67561611499109
  N   0.86775628773197     -1.06891554373825      0.86131275645587
  H   0.93545796402534     -0.37103996784551      1.59257064850114
  H   1.74022895738392     -1.57680115667590      0.79046216121303
  N   1.52027662885302      0.63450635903757     -0.74516453664732
  H   1.31737634313518      0.97412946710336     -1.68113374517427
  H   2.44892883975699      0.22815467347334     -0.77352798782178
