18

C	-0.218063	-0.078089	-1.515277
C	0.0	0.0	0.0
Br	-2.132462	-0.321803	-2.023023
H	1.097172	0.0	0.0
N	0.190513	1.170272	-2.105311
H	0.252154	1.060621	-3.111097
H	1.113419	1.401532	-1.738546
N	0.458095	-1.290757	-1.934632
H	0.4347	-1.352638	-2.945935
H	1.432818	-1.201166	-1.637076
C	-0.55152	-1.152005	0.803139
H	-0.137901	-2.078416	0.408216
H	-1.639065	-1.183827	0.754008
H	-0.242532	-1.044477	1.845507
N	-0.478463	1.303933	0.538921
O	-1.61938	1.341552	1.006678
O	0.288456	2.262762	0.490012
Cl	3.32698	0.0	0.0
