18

C	-0.229738	-0.021052	-1.514388
C	0.0	0.0	0.0
Br	-2.144052	-0.272524	-2.015696
H	1.095	0.0	0.0
N	0.15358	1.25752	-2.056504
H	1.081118	1.48304	-1.698271
H	0.196335	1.194311	-3.06713
N	0.458591	-1.204851	-1.987592
H	1.436822	-1.113948	-1.701877
H	0.416184	-1.236044	-3.000491
C	-0.545934	-1.18117	0.764274
H	-0.199453	-1.130761	1.799192
H	-1.635005	-1.190788	0.751277
H	-0.163505	-2.093524	0.309172
N	-0.476416	1.282671	0.591018
O	0.296034	2.237889	0.590215
O	-1.621132	1.307378	1.049745
Cl	3.329834	0.0	0.0
