18

C	-0.438957	0.058068	-1.454681
C	0.0	0.0	0.0
Br	-0.005423	-2.100327	-2.23743
H	1.088237	0.0	0.0
N	-1.809127	0.182896	-1.65862
H	-2.051774	0.138295	-2.640226
H	-2.303338	-0.54856	-1.169272
N	0.359309	0.884618	-2.185919
H	0.210429	0.864894	-3.184229
H	1.339266	0.82638	-1.921125
C	-0.529205	-1.120889	0.864536
H	-1.618798	-1.181122	0.86775
H	-0.103687	-2.059625	0.519784
H	-0.201465	-0.944946	1.890544
N	-0.435116	1.328534	0.587587
O	0.269369	2.306302	0.361794
O	-1.475884	1.348178	1.249142
Cl	3.30877	0.0	0.0
