18

C	-0.491374	-0.047523	-1.44163
C	0.0	0.0	0.0
Br	0.097038	1.878977	-2.289251
H	1.088902	0.0	0.0
N	0.215777	-1.047283	-2.109859
H	1.218938	-0.892856	-2.055864
H	-0.092509	-1.172381	-3.064917
N	-1.88358	-0.148708	-1.601199
H	-2.145454	0.015135	-2.56535
H	-2.327534	0.547677	-1.013678
C	-0.521446	-1.188546	0.799458
H	-0.20703	-2.104081	0.300513
H	-1.609705	-1.171115	0.871754
H	-0.079043	-1.162234	1.797829
N	-0.452553	1.237092	0.708626
O	-1.659332	1.512496	0.663542
O	0.373562	1.86652	1.354656
Cl	3.363817	0.0	0.0
