18

C	-0.214691	0.015645	-1.529094
C	0.0	0.0	0.0
Br	-2.179343	0.153259	-1.926634
H	1.095365	0.0	0.0
N	0.404913	1.103699	-2.246626
H	1.397501	1.067295	-1.998633
H	0.055674	1.991584	-1.903402
N	0.271489	-1.24704	-2.015193
H	1.198725	-1.390691	-1.608678
H	0.389702	-1.144639	-3.018974
C	-0.550127	-1.205671	0.72424
H	-0.111783	-2.105586	0.291706
H	-1.637791	-1.259354	0.638125
H	-0.27964	-1.152301	1.781095
N	-0.482732	1.260891	0.630108
O	0.014229	2.327405	0.259136
O	-1.358691	1.178962	1.49231
Cl	3.283729	0.0	0.0
