18

C	-0.510426	-0.013851	-1.446284
C	0.0	0.0	0.0
Br	0.41775	-1.49813	-2.349237
H	1.089109	0.0	0.0
N	-1.925617	-0.341769	-1.516174
H	-2.203769	-0.368683	-2.491583
H	-2.416065	0.419606	-1.056901
N	-0.061192	1.189215	-2.122933
H	-0.076998	1.064248	-3.12609
H	-0.673209	1.952649	-1.860621
C	-0.522992	-1.126865	0.876956
H	-0.040649	-1.061352	1.853369
H	-0.256295	-2.08144	0.425282
H	-1.608017	-1.08145	0.984132
N	-0.414451	1.271364	0.676512
O	0.269737	1.649433	1.615923
O	-1.453877	1.841881	0.302285
Cl	3.369383	0.0	0.0
