18

C	-0.38873	-0.051378	-1.487569
C	0.0	0.0	0.0
Br	0.004748	1.825823	-2.229475
H	1.090249	0.0	0.0
N	0.481258	-0.908102	-2.240845
H	0.292837	-1.865349	-1.961486
H	1.451647	-0.687599	-2.015218
N	-1.726512	-0.436659	-1.714254
H	-2.354469	0.174493	-1.207222
H	-1.920048	-0.407808	-2.707095
C	-0.474715	-1.22966	0.764744
H	-0.065979	-2.126407	0.297305
H	-0.077863	-1.181575	1.781781
H	-1.562259	-1.299549	0.788683
N	-0.559724	1.1875	0.698624
O	0.186048	1.889188	1.369784
O	-1.781862	1.36075	0.593899
Cl	3.368648	0.0	0.0
