18

C	-0.445172	-0.025944	-1.466738
C	0.0	0.0	0.0
Br	0.120252	1.784973	-2.246978
H	1.090265	0.0	0.0
N	0.282995	-0.990505	-2.242883
H	1.280261	-0.886609	-2.061229
H	-0.020537	-1.913711	-1.950049
N	-1.829996	-0.261329	-1.635203
H	-2.062326	-0.199725	-2.618399
H	-2.360834	0.415229	-1.097774
C	-0.509984	-1.197512	0.791181
H	-1.59931	-1.211066	0.841564
H	-0.086677	-1.155322	1.797511
H	-0.158807	-2.11941	0.326516
N	-0.481403	1.221524	0.717388
O	-1.685639	1.495132	0.620579
O	0.317674	1.847506	1.403311
Cl	3.366727	0.0	0.0
