18

C	-0.380689	-0.066732	-1.495459
C	0.0	0.0	0.0
Br	-0.125152	1.83656	-2.250331
H	1.091508	0.0	0.0
N	0.505989	-0.988539	-2.075335
H	0.391972	-1.013191	-3.080212
H	1.474401	-0.800215	-1.814814
N	-1.725341	-0.403484	-1.871212
H	-2.36677	0.205499	-1.376956
H	-1.886522	-1.363167	-1.583128
C	-0.485546	-1.228321	0.75574
H	-0.08471	-2.117587	0.268632
H	-0.096049	-1.194096	1.775931
H	-1.575882	-1.275964	0.791388
N	-0.56423	1.194948	0.671167
O	0.187726	1.958824	1.263507
O	-1.794915	1.317287	0.621244
Cl	3.360486	0.0	0.0
