18

C	-0.436536	-0.059217	-1.457963
C	0.0	0.0	0.0
Br	0.011569	1.945866	-2.26147
H	1.090116	0.0	0.0
N	0.391057	-0.96571	-2.113811
H	0.217048	-1.012805	-3.108339
H	1.373079	-0.772882	-1.922324
N	-1.806897	-0.266772	-1.668041
H	-2.325256	0.413143	-1.124366
H	-2.046371	-0.170125	-2.646556
C	-0.501689	-1.209897	0.779935
H	-0.058145	-1.190647	1.778329
H	-1.589683	-1.214525	0.853168
H	-0.169347	-2.112092	0.2679
N	-0.502362	1.217214	0.696766
O	0.288069	1.880058	1.354001
O	-1.717325	1.442974	0.624784
Cl	3.356477	0.0	0.0
