13

C	-0.323189	0.061193	-1.469809
C	0.0	0.0	0.0
F	-1.660202	0.177712	-1.749658
H	1.095643	0.0	0.0
H	0.222689	0.881706	-1.934142
N	0.154011	-1.190588	-2.164249
O	1.182837	-1.093106	-2.826923
O	-0.543426	-2.194798	-2.033918
C	-0.547609	-1.152666	0.687889
N	-0.984389	-2.075779	1.269683
C	-0.43501	1.237722	0.623669
N	-0.764245	2.258737	1.10416
F	2.42646	0.0	0.0
