13

C	-0.331293	0.067889	-1.469982
C	0.0	0.0	0.0
F	-1.665557	0.222545	-1.738379
H	1.095697	0.0	0.0
H	0.234796	0.872322	-1.937547
N	0.104223	-1.196139	-2.16893
O	1.172474	-1.15454	-2.770477
O	-0.656816	-2.156455	-2.089145
C	-0.522926	-1.171167	0.6768
N	-0.937174	-2.116852	1.238718
C	-0.452724	1.223695	0.637198
N	-0.801359	2.228053	1.139665
F	2.425965	0.0	0.0
