13

C	-0.342798	-0.02502	-1.486846
C	0.0	0.0	0.0
F	-0.217969	-1.278241	-1.980314
H	1.096882	0.0	0.0
H	-1.334112	0.361544	-1.741038
N	0.627415	0.87639	-2.228381
O	0.546506	2.058572	-1.915904
O	1.34563	0.386742	-3.084049
C	-0.507343	-1.192132	0.651327
N	-0.897896	-2.159138	1.19459
C	-0.497829	1.190235	0.662331
N	-0.858164	2.157383	1.226163
F	2.425468	0.0	0.0
