13

C	-0.216279	-0.028768	-1.497477
C	0.0	0.0	0.0
F	0.163541	1.149071	-2.044298
H	1.097579	0.0	0.0
H	0.341022	-0.851815	-1.942936
N	-1.667167	-0.244234	-1.871263
O	-2.014813	-1.418133	-1.99457
O	-2.386069	0.743342	-1.981854
C	-0.452994	-1.218072	0.640031
N	-0.78163	-2.212273	1.175184
C	-0.5501	1.18666	0.623327
N	-0.965304	2.146445	1.160083
F	2.428372	0.0	0.0
