19

C	0.0	0.0	0.0
C	-0.302719	0.066046	-1.53643
Br	1.973565	0.0	0.0
H	0.495665	0.687246	-1.949487
N	-0.395905	1.24966	0.623735
H	-1.416868	1.268103	0.601701
H	-0.11452	1.237001	1.599933
N	-0.498485	-1.218832	0.578929
H	-1.506403	-1.226135	0.403093
H	-0.374354	-1.18464	1.585788
C	-1.603963	0.757109	-1.928342
H	-1.6131	1.796286	-1.592232
H	-1.664802	0.764056	-3.022185
H	-2.494832	0.273218	-1.537675
C	-0.20924	-1.316666	-2.178895
H	-0.210825	-1.208009	-3.268362
H	-1.066821	-1.93259	-1.901401
H	0.700029	-1.843192	-1.883799
Cl	-4.22462	0.0	0.0
