19

C	0.0	0.0	0.0
C	-0.356769	-0.135865	-1.496486
Br	2.072161	0.0	0.0
H	0.323274	0.535	-2.033861
N	-0.370645	1.225278	0.645471
H	-1.387231	1.222068	0.710605
H	-0.074331	2.017341	0.089251
N	-0.516509	-1.042191	0.768443
H	-0.340176	-0.903995	1.753818
H	-0.245823	-1.963302	0.46223
C	-1.796419	0.312124	-1.752189
H	-1.915054	1.3904	-1.626799
H	-2.069236	0.077054	-2.785703
H	-2.526574	-0.167577	-1.096205
C	-0.144324	-1.555168	-2.016665
H	-0.92181	-2.220522	-1.630239
H	-0.228953	-1.563908	-3.106608
H	0.841776	-1.947617	-1.753761
Cl	-4.85685	0.0	0.0
