19

C	0.0	0.0	0.0
C	-0.359652	0.082965	-1.498875
Br	2.071059	0.0	0.0
H	0.312136	-0.61461	-2.011428
N	-0.518591	1.065903	0.73209
H	-0.263568	1.977239	0.387305
H	-0.338523	0.967513	1.720809
N	-0.360896	-1.204072	0.690201
H	-1.376852	-1.213384	0.761483
H	-0.055522	-2.015101	0.167086
C	-0.134731	1.479752	-2.074378
H	-0.216218	1.446034	-3.163843
H	0.852967	1.875011	-1.824097
H	-0.908219	2.165678	-1.71697
C	-1.804301	-0.358468	-1.731229
H	-2.528376	0.163576	-1.102088
H	-1.938492	-1.426168	-1.546611
H	-2.075066	-0.176422	-2.775468
Cl	-4.878454	0.0	0.0
