19

C	0.0	0.0	0.0
C	-0.272789	-0.047878	-1.542735
Br	2.007432	0.0	0.0
H	0.482944	-0.731287	-1.943737
N	-0.52861	1.182889	0.587369
H	-1.509474	1.253374	0.3108
H	-0.506672	1.071859	1.595829
N	-0.385307	-1.169229	0.751621
H	-0.075553	-2.014034	0.282858
H	-1.405242	-1.170369	0.790096
C	-0.069372	1.319237	-2.194598
H	0.872864	1.779411	-1.894332
H	-0.072593	1.208161	-3.284454
H	-0.882326	1.996555	-1.925534
C	-1.626754	-0.621747	-1.943904
H	-1.657106	-0.684101	-3.036794
H	-2.473287	-0.030648	-1.604353
H	-1.779039	-1.62954	-1.552434
Cl	-4.219272	0.0	0.0
