16

C	0.0	0.0	0.0
C	-0.504646	-0.124597	-1.458674
Cl	1.818634	0.0	0.0
H	-1.594402	-0.250796	-1.354279
N	-0.514077	1.133176	0.617184
H	-0.272122	1.143474	1.601043
H	-1.53955	1.101933	0.517041
N	-0.324453	-1.305343	0.809764
O	-0.315879	-1.17184	2.02634
O	-0.532465	-2.353863	0.210617
N	0.027652	-1.172228	-2.304691
H	1.040115	-1.133506	-2.305533
H	-0.258444	-2.061948	-1.920223
C	-0.256086	1.165754	-2.115753
N	-0.027071	2.154595	-2.705308
Br	-3.651192	0.0	0.0
