14
Coordinates from ORCA-job run
  C   0.69952848785982     -0.51389223727472     -0.40994496025107
  C   -0.79641787654485     -0.16718702489308     -0.43179698954128
  Cl  1.35302586689250     -0.30009527737954     -2.06202175707745
  H   -1.24577324879800     -0.66833915691138     -1.30075996721081
  H   0.77863255326926     -1.58301393527806     -0.19385176494944
  C   1.49459046707404      0.29668782212228      0.59001709076443
  H   2.52578785900524     -0.05700788794161      0.62991889900346
  H   1.03806120364696      0.19270288739467      1.57525070755707
  H   1.50315394567623      1.35123013016034      0.30869572716679
  C   -0.98843278883027      1.27447588421320     -0.62364568801924
  N   -1.16361275074021      2.42702005156349     -0.75839925680509
  N   -1.38259945260719     -0.56495889382061      0.84950380791048
  H   -1.53185238826875     -1.56744215248455      0.84851770055456
  H   -2.28309187763476     -0.12018020947042      0.97951645089760
