14
Coordinates from ORCA-job run
  C   0.72182406040723      0.20743882836355     -0.45428032390790
  C   -0.72113502729270     -0.26716155845824     -0.25020526001540
  Cl  0.77445442319324      1.99680861644702     -0.34139103061773
  H   -0.69551556761676     -1.36099224067584     -0.32547255749458
  H   1.02166922118804     -0.02978300042452     -1.47745930279654
  C   1.67469980584192     -0.40909703474204      0.54951172011183
  H   2.69038141948719     -0.05140860276455      0.37650449695682
  H   1.66771620038717     -1.49756651378260      0.44033612431196
  H   1.37005490432617     -0.15790947846070      1.56398536563300
  C   -1.58302624883098      0.21643807315862     -1.34954824833647
  N   -2.29539151029607      0.57853494195196     -2.21047393917846
  N   -1.20074701707384      0.07079542370171      1.07899622943839
  H   -2.09685197823799     -0.36958807944567      1.24691861510313
  H   -1.32813268548263      1.07349062513128      1.15157811079196
