14
Coordinates from ORCA-job run
  C   0.73673548953565     -0.18470436498385     -0.53229778850925
  C   -0.75538432242329     -0.21316164745105     -0.16520542162346
  Cl  1.10851124812623      1.31474411286462     -1.42596720321087
  H   -0.94779408432143     -1.21638806113697      0.24245499486947
  H   0.93993929146178     -1.00957249880281     -1.22076261552754
  C   1.60606897190367     -0.28165693632046      0.70446010192435
  H   1.37873684118655     -1.20224507581499      1.25250334142311
  H   1.42173041906513      0.57658805244404      1.35022210492563
  H   2.66110257848712     -0.29943859215709      0.42923905727710
  C   -1.59308180120480     -0.09881556203262     -1.36568213773835
  N   -2.30760834531718     -0.01573549277469     -2.29313325434044
  N   -1.08156062926415      0.82216955957451      0.81152289173989
  H   -1.31565131890004      0.41075763085746      1.70353247960559
  H   -1.85274433833523      1.39945887573392      0.51011344918476
