14
Coordinates from ORCA-job run
  C   0.62100099688900     -0.51043968951569      0.15247408403043
  C   -0.74852976087101      0.03384136206536     -0.26798242381442
  Cl  1.04437077474949     -1.84069361891356     -0.97900115541485
  H   -0.65427672756932      0.39124508414878     -1.30624188316505
  H   0.50645346879446     -0.97606651223661      1.13314417838141
  C   1.72056049034957      0.53156120509557      0.14015184250959
  H   1.51201001832451      1.30846290474757      0.87880117713267
  H   1.80524901765585      0.99349655286306     -0.84603474008877
  H   2.67804340818536      0.07066305806114      0.38471065872024
  C   -1.07695760687396      1.19654665737565      0.56748016004697
  N   -1.33945749093705      2.13134558674693      1.22706865880796
  N   -1.77915121028374     -0.98060970841114     -0.07515748941771
  H   -2.68853629615651     -0.59592934057536     -0.30238872797430
  H   -1.60077908225666     -1.75342354145169     -0.70602433975418
