14
Coordinates from ORCA-job run
  C   0.75395512921238      0.33049430851285     -0.41433084556501
  C   -0.66917808248265     -0.24835855862906     -0.36664544310071
  Cl  0.68780516671558      2.10501380374377     -0.24083968298959
  H   -0.56823629658275     -1.32030266959873     -0.59121129193246
  H   1.17405295196215      0.13687371686734     -1.40506618684487
  C   1.62284991209211     -0.26633447803671      0.67361784613126
  H   2.63826577288701      0.12619740602533      0.61047506690087
  H   1.20895620817891     -0.01770682222935      1.65072618626654
  H   1.66760758487288     -1.35493547679657      0.56492266661585
  C   -1.49413670488804      0.31669019619757     -1.44129627808566
  N   -2.17315748123110      0.75768556739800     -2.29130440713791
  N   -1.28238302053172     -0.04143413753990      0.94167324604633
  H   -1.37773033092399     -0.91734991984825      1.43476702160147
  H   -2.19067080928077      0.39346706393373      0.87251210209390
