14
Coordinates from ORCA-job run
  C   0.65541302397882     -0.51251370878380     -0.39769430254606
  C   -0.83894774271764     -0.16595055831595     -0.54926456044147
  Cl  1.46335137181384     -0.25123919941588     -1.97374133939318
  H   -1.20959596365382     -0.69168534701114     -1.43532099349580
  H   0.71666475213082     -1.58767317231340     -0.20625392485357
  C   1.36929327796287      0.26853549057090      0.68631299575669
  H   2.40948756134132     -0.05088299757373      0.75886572314530
  H   0.89657851033121      0.09540198664111      1.65652546738325
  H   1.35158855235675      1.33737826953027      0.46654010671120
  C   -0.99830131130573      1.27431663694084     -0.79381046158744
  N   -1.10229733870329      2.43307032582525     -0.94666477841963
  N   -1.67926606234664     -0.54734783708310      0.57559088339827
  H   -1.41259145836391     -0.05664792864726      1.41933059162297
  H   -1.62037717282460     -1.54476196036412      0.73958459271946
