14
Coordinates from ORCA-job run
  C   0.73463545709282      0.32153688635143     -0.35950743950720
  C   -0.68683660323156     -0.25116478815650     -0.34476495118331
  Cl  0.67420081971038      2.05890304101371      0.08286285526658
  H   -0.59118284590471     -1.30956583791583     -0.61581367203633
  H   1.10703093249817      0.29433679434365     -1.38597137056995
  C   1.66232905295591     -0.42552309449032      0.57685406333004
  H   2.66302392977543      0.00681207485267      0.54335969338606
  H   1.72746450220878     -1.47313762147007      0.26860268723292
  H   1.28377224749502     -0.38444171826697      1.59666906174715
  C   -1.51182703974668      0.38712504216522     -1.39251952984670
  N   -2.20426024990204      0.88520682573791     -2.20015890081974
  N   -1.26332143833651     -0.18890557266616      0.98740290809764
  H   -1.45611420443690      0.77557792371647      1.23131627666070
  H   -2.13891456017813     -0.69675995521522      1.01066831824214
