13

C	0.0	0.0	0.0
C	-0.479633	-0.218644	-1.434832
F	1.379462	0.0	0.0
H	-1.57718	-0.240459	-1.42622
H	-0.104258	-1.181824	-1.790667
N	-0.496537	1.228428	0.503753
H	-0.234163	1.336924	1.477175
H	-1.519804	1.180835	0.449476
C	-0.346639	-1.203215	0.816319
N	-0.547509	-2.167332	1.456297
C	0.014087	0.839535	-2.312673
N	0.393161	1.666669	-3.054043
Cl	-3.503466	0.0	0.0
