13

C	0.0	0.0	0.0
C	-0.542838	0.359085	-1.378422
F	1.4041	0.0	0.0
H	-0.200331	-0.365267	-2.120321
H	-1.643005	0.317668	-1.276793
N	-0.494397	0.887878	0.965101
H	-0.265008	1.852424	0.776072
H	-0.29225	0.618433	1.915584
C	-0.36486	-1.390891	0.345514
N	-0.518068	-2.518736	0.630539
C	-0.103029	1.695275	-1.763907
N	0.241827	2.77431	-2.0735
Cl	-3.685228	0.0	0.0
