13

C	0.0	0.0	0.0
C	-0.450337	-0.231394	-1.440526
F	1.378822	0.0	0.0
H	-1.545419	-0.283789	-1.459787
H	-0.030801	-1.182349	-1.782131
N	-0.466524	1.251476	0.480478
H	-1.49036	1.22849	0.430556
H	-0.191586	1.367448	1.449112
C	-0.356038	-1.186493	0.83424
N	-0.544005	-2.144669	1.486709
C	0.042809	0.837075	-2.306657
N	0.42154	1.670933	-3.040088
Cl	-3.446702	0.0	0.0
