13

C	0.0	0.0	0.0
C	-0.207868	0.138615	-1.538761
F	1.381617	0.0	0.0
H	0.301816	1.080377	-1.755957
H	0.409797	-0.664594	-1.950339
N	-0.494992	1.107182	0.728372
H	-0.354336	0.938245	1.718869
H	-1.513987	1.103658	0.576455
C	-0.373789	-1.351573	0.503678
N	-0.548905	-2.455488	0.866987
C	-1.470733	0.115307	-2.275923
N	-2.249891	0.030805	-3.154328
Cl	-3.371305	0.0	0.0
