17

C	0.0	0.0	0.0
C	-0.473025	0.026718	-1.457222
Br	2.045795	0.0	0.0
H	-1.570466	-0.027355	-1.346105
N	-0.477212	1.136691	0.653342
H	-0.124999	2.016612	0.306347
H	-0.449057	1.081124	1.65909
C	-0.45406	-1.264086	0.690717
H	-0.086776	-1.282168	1.720146
H	-1.550095	-1.245851	0.685384
H	-0.085412	-2.138653	0.159273
N	-0.000335	-1.116069	-2.219067
H	-0.580738	-1.231127	-3.039849
H	0.957516	-0.966483	-2.512274
C	-0.14816	1.324013	-2.081776
N	0.113242	2.335865	-2.620156
Br	-3.940249	0.0	0.0
