17

C	0.0	0.0	0.0
C	-0.161217	-0.096334	-1.555182
Br	2.108538	0.0	0.0
H	0.639284	-0.758044	-1.905926
N	-0.548882	1.130924	0.566566
H	-1.427214	0.910186	1.031086
H	-0.711604	1.833387	-0.148528
C	-0.388417	-1.280659	0.692993
H	-1.482274	-1.333743	0.662867
H	-0.040797	-1.272382	1.727054
H	0.039938	-2.145516	0.185618
N	-0.060152	1.247877	-2.121214
H	-0.434093	1.257422	-3.061812
H	0.918277	1.509383	-2.15009
C	-1.37873	-0.752134	-2.066186
N	-2.105292	-1.342181	-2.778595
Br	-3.824765	0.0	0.0
