17

C	0.0	0.0	0.0
C	-0.49173	-0.155423	-1.458288
Br	1.966142	0.0	0.0
H	-1.585003	-0.040747	-1.381659
N	-0.459189	1.283025	0.462202
H	-1.482355	1.260577	0.403347
H	-0.21281	1.401949	1.439529
C	-0.437827	-1.180842	0.856597
H	-0.013929	-2.125635	0.51212
H	-0.114269	-1.018582	1.887916
H	-1.531275	-1.21764	0.826611
N	-0.22772	-1.427812	-2.109172
H	-0.857267	-2.122989	-1.729227
H	0.729071	-1.713425	-1.932268
C	0.016686	0.938496	-2.298532
N	0.396813	1.792184	-3.009115
Br	-3.79923	0.0	0.0
