17

C	0.0	0.0	0.0
C	-0.46843	0.029966	-1.460428
Br	2.046584	0.0	0.0
H	-1.565409	-0.026715	-1.351253
N	-0.480734	1.132923	0.653103
H	-0.463535	1.080816	1.658764
H	-0.141695	2.016467	0.302434
C	-0.455711	-1.266821	0.685298
H	-0.083686	-2.139456	0.152951
H	-1.551817	-1.251365	0.67701
H	-0.092353	-1.287112	1.716258
N	0.007878	-1.109783	-2.22369
H	-0.564604	-1.217529	-3.051167
H	0.968945	-0.961278	-2.507048
C	-0.144773	1.32996	-2.079957
N	0.117964	2.343755	-2.614127
Br	-3.942716	0.0	0.0
