17

C	0.0	0.0	0.0
C	-0.475811	0.170386	-1.459355
Br	2.04345	0.0	0.0
H	-1.574778	0.195891	-1.344897
N	-0.47492	1.068387	0.759154
H	-0.395526	0.945891	1.75628
H	-0.168575	1.981563	0.457693
C	-0.456401	-1.318965	0.580574
H	-1.552214	-1.316977	0.538608
H	-0.129928	-1.403624	1.620244
H	-0.043095	-2.161426	0.026596
N	-0.116011	-0.869413	-2.402675
H	-0.704631	-1.675562	-2.238745
H	0.85567	-1.131401	-2.275684
C	-0.052619	1.481277	-1.972776
N	0.262648	2.544163	-2.360686
Br	-3.89994	0.0	0.0
