17

C	0.0	0.0	0.0
C	-0.374813	-0.22488	-1.500523
Br	2.0185	0.0	0.0
H	0.180728	0.534603	-2.06762
N	-0.48895	1.26688	0.385812
H	-0.016761	2.033082	-0.073188
H	-0.498019	1.401085	1.386048
C	-0.531719	-1.076368	0.916989
H	-1.625851	-1.014215	0.89177
H	-0.200895	-2.064929	0.597983
H	-0.189172	-0.908373	1.940322
N	-1.772555	-0.089149	-1.831481
H	-2.100049	0.812878	-1.500378
H	-2.373473	-0.742627	-1.335334
C	0.118261	-1.532641	-1.959068
N	0.494518	-2.578619	-2.336775
Br	-4.546702	0.0	0.0
