19

C	0.0	0.0	0.0
C	-0.42111	0.169389	-1.507564
Cl	1.801126	0.0	0.0
H	0.480137	0.471928	-2.047264
C	-0.390109	1.215456	0.839922
H	0.031897	1.096938	1.844808
H	-1.479979	1.212605	0.886426
H	-0.033763	2.148611	0.40414
N	-0.532926	-1.222614	0.548507
H	-1.554646	-1.046412	0.461264
H	-0.322926	-1.222161	1.543736
N	-1.388937	1.259163	-1.664627
H	-1.632164	1.285998	-2.651241
H	-2.22231	0.943885	-1.133847
C	-0.913988	-1.148497	-2.114074
H	-1.900311	-1.361753	-1.699116
H	-0.241691	-1.987384	-1.91347
H	-1.009426	-1.018048	-3.200109
F	-2.986604	0.0	0.0
