19

C	0.0	0.0	0.0
C	-0.19213	0.003841	-1.574191
Cl	1.825992	0.0	0.0
H	0.372604	-0.89403	-1.885548
C	-0.485184	1.267837	0.663518
H	-0.093368	2.143371	0.14849
H	-0.170627	1.268304	1.710073
H	-1.579096	1.217734	0.593369
N	-0.591287	-1.12818	0.63685
H	-0.431382	-1.950448	0.060094
H	-1.6131	-0.881749	0.566098
N	0.385723	1.222556	-2.168904
H	0.080921	1.273722	-3.134113
H	1.395899	1.169069	-2.163298
C	-1.58794	-0.145166	-2.155474
H	-2.193427	-0.881587	-1.64308
H	-1.466857	-0.398182	-3.218219
H	-2.147948	0.780934	-2.056335
F	-3.025988	0.0	0.0
