12
Coordinates from ORCA-job run
  C   0.75366938314943     -0.12123681295240     -0.36486256383703
  C   -0.80084261150746      0.02932719316120     -0.30841315878080
  Cl  1.15064459254344     -1.23841162488514     -1.69846898919029
  H   -1.11911769879467      0.39227095014625     -1.29373084237347
  C   1.34739613698621      1.18891508636740     -0.63591006152177
  N   1.79538675370832      2.25120114809330     -0.86725831768262
  C   1.25326537474758     -0.66134712377078      0.89924683852805
  N   1.63387015414568     -1.09664655708201      1.92313534722365
  C   -1.17253736825772      1.01224264499328      0.71255531922666
  N   -1.46111170151714      1.81157224037109      1.52373064521792
  C   -1.43369150419235     -1.26527356376349     -0.04707437156064
  N   -1.94693151101132     -2.30161358067869      0.15805015475034
