12
Coordinates from ORCA-job run
  C   0.73983891757704     -0.11224325161911     -0.39551861914758
  C   -0.81300882771313      0.02069583716909     -0.27722866247188
  Cl  1.09697107748318     -1.22287686434976     -1.74534181413295
  H   -1.17463560490320      0.38281849601025     -1.24777804153918
  C   1.30792548625556      1.20498709664797     -0.68654365235238
  N   1.73418507971551      2.27282952981806     -0.93272350321657
  C   1.29349547823075     -0.64822641031470      0.84776954286440
  N   1.71536436271363     -1.08013023728210      1.85672266411671
  C   -1.15294138383902      0.99675369267352      0.76137154325966
  N   -1.41180688688799      1.79211444384646      1.58636612820675
  C   -1.42006081492089     -1.28183282767802      0.00551749718593
  N   -1.91432688371147     -2.32388950492165      0.22738691722708
