12
Coordinates from ORCA-job run
  C   0.74443627991540     -0.15984833234975     -0.18265523894146
  C   -0.72975555857255      0.20939364142116      0.18607043789146
  Cl  0.88460503864954     -1.92189874681745     -0.39730384523383
  H   -0.76716713492332      1.30023478140847      0.30973518475680
  C   1.10209609957173      0.52122585992599     -1.42843821183624
  N   1.36483683743725      1.08712198338626     -2.42503276295290
  C   1.62463112316171      0.27924331197921      0.90185272002908
  N   2.31032200279258      0.65119486747973      1.78165906988563
  C   -1.11171442687897     -0.42089632005082      1.45147131619798
  N   -1.41624252306066     -0.91427252361270      2.47278409923399
  C   -1.63745145196916     -0.17144610309007     -0.89817959427252
  N   -2.36759628612354     -0.45905241968002     -1.77196317475801
