12
Coordinates from ORCA-job run
  C   0.69129245327947     -0.02588122438353     -0.36879420279241
  C   -0.66384099744766      0.03136398907575      0.40969882795279
  Cl  0.37512060765255     -0.25266729082148     -2.10619855931099
  H   -0.41906094086363      0.16947111685507      1.47158852878803
  C   1.40984959840638      1.23181238531120     -0.15532211059819
  N   1.96859262593576      2.24734982346818      0.04235433271734
  C   1.47890453874565     -1.14873034701791      0.14374302157763
  N   2.09202123769388     -2.05024290071492      0.58409126655626
  C   -1.39334417678043     -1.22897113312374      0.25568078282886
  N   -1.97457603304510     -2.24351746526839      0.14557136466586
  C   -1.46376698525611      1.17260066667469     -0.03966956021090
  N   -2.10219192832076      2.09641237994506     -0.38374369217430
