12
Coordinates from ORCA-job run
  C   0.76947131507657     -0.30536479487385     -0.17234284297485
  C   -0.74270638027380     -0.37525746526594      0.21524077173305
  Cl  1.17563578462158     -1.79187072694943     -1.07233475335270
  H   -0.87710343932599     -1.29520355688639      0.79792826954052
  C   1.02115764565817      0.86587636321587     -1.01153908190558
  N   1.20518962322373      1.81204192944995     -1.68516410899233
  C   1.57180623789449     -0.24284289320317      1.05029618680349
  N   2.19405371088030     -0.20151775197892      2.04711105030147
  C   -1.57787505797361     -0.44229467030481     -0.98596269900697
  N   -2.25281199864172     -0.49829453559270     -1.94548967287399
  C   -1.10370481905659      0.77819728131512      1.04331246723750
  N   -1.38511262208315      1.69653082107426      1.71994441349041
