12
Coordinates from ORCA-job run
  C   0.73482134994088     -0.08687558031472     -0.40934509670127
  C   -0.81662438139842      0.03341516738943     -0.26625283189169
  Cl  1.07830711183509     -1.11585408859857     -1.82629452702800
  H   -1.19008511352623      0.44538080434480     -1.21213185008137
  C   1.29736349332333      1.24646795114233     -0.62901704434897
  N   1.72356986934488      2.32690298016590     -0.81215967788964
  C   1.30616567960817     -0.69298646663126      0.79300427019504
  N   1.74789779153226     -1.18124783091770      1.76731110544857
  C   -1.15122948152151      0.95082282751943      0.82595817910427
  N   -1.41464950506136      1.69905990177814      1.69261795858984
  C   -1.41557351498465     -1.28508065731065     -0.04784059398049
  N   -1.90196329909243     -2.34000500856713      0.12515010858371
