12
Coordinates from ORCA-job run
  C   0.75368610604839     -0.16871728914022     -0.34520502048430
  C   -0.79668434858275      0.03057195869096     -0.32197106342687
  Cl  1.13382030833365     -1.38692415492090     -1.59259757545827
  H   -1.09218403997333      0.32947962619552     -1.33541733565418
  C   1.38965563630728      1.10187807170889     -0.69681560406525
  N   1.87007823300067      2.13323291797159     -0.99341037582189
  C   1.22025093107885     -0.63507433032389      0.96034592686217
  N   1.57658987901886     -1.01194448062165      2.01564467419797
  C   -1.14933830893167      1.09589189787140      0.61986380563159
  N   -1.42091610052096      1.96103340179476      1.36672275626945
  C   -1.46953877975918     -1.22333460593498      0.02407898713568
  N   -2.01441951601981     -2.22709301329147      0.29776082481391
