12
Coordinates from ORCA-job run
  C   0.72605790533145      0.03091757205510     -0.29187032820079
  C   -0.70482762674083     -0.02523481097685      0.33669740978412
  Cl  0.60880980297973     -0.11790025619602     -2.06236833306999
  H   -0.58255182529528      0.06971175353067      1.42418198444107
  C   1.34447747201887      1.31106289553828      0.05807370285347
  N   1.82355051352446      2.34114846881765      0.36139304544150
  C   1.51863300969558     -1.07549659211936      0.24790767845183
  N   2.12961106800489     -1.96817294637619      0.70868407685570
  C   -1.33911650770339     -1.31280663843514      0.04637977326866
  N   -1.84499564189159     -2.35060315467882     -0.16903544265138
  C   -1.51706695444898      1.09418404258768     -0.14436555548477
  N   -2.16358121547493      2.00118966625300     -0.51667801168941
