12
Coordinates from ORCA-job run
  C   0.75915265152515     -0.12607504050032     -0.35066137674187
  C   -0.79640223839316      0.02073941144930     -0.32259604170252
  Cl  1.18140244759773     -1.26828769410127     -1.65491817771265
  H   -1.09989266778744      0.36319646815939     -1.31981318841266
  C   1.35472547265051      1.17997384309627     -0.63729107275775
  N   1.80523948141229      2.23824015460082     -0.88171421467269
  C   1.23909204478645     -0.63917209470698      0.93230532816718
  N   1.60367598207280     -1.05161414248087      1.97138884254319
  C   -1.18663899070332      1.02217610233198      0.67315200199023
  N   -1.48709708443564      1.83596115790334      1.46545627542528
  C   -1.42965406453367     -1.27051344496396     -0.04602164434712
  N   -1.94460303419170     -2.30362472078770      0.17071326822138
