12
Coordinates from ORCA-job run
  C   0.77937055434333     -0.25754610814277     -0.20343204683334
  C   -0.71857420679727     -0.42214942101384      0.21043656711461
  Cl  1.23715537966071     -1.67216440462666     -1.19000545725538
  H   -0.79512157016782     -1.37494420512569      0.74909043427428
  C   0.95400176249986      0.96784694824241     -0.98285940342907
  N   1.07249974026224      1.95741531909485     -1.60685890147799
  C   1.60492532480758     -0.22046618242981      1.00474521376149
  N   2.24462072848824     -0.20681748014444      1.99125953949131
  C   -1.57685690981697     -0.47154189616187     -0.97519738379859
  N   -2.27070189329854     -0.51628554878301     -1.92176936596546
  C   -1.11446369114666      0.67144887929829      1.10148398332019
  N   -1.41685521883472      1.54620409979254      1.82510682079794
