12
Coordinates from ORCA-job run
  C   0.75656460576755     -0.27580269676396     -0.25619033629494
  C   -0.71262303344372     -0.40296908660203      0.26114588734118
  Cl  1.11002605164258     -1.70393159697135     -1.26597554919614
  H   -0.77503997435031     -1.35416470745798      0.80446880384545
  C   0.90714315124542      0.94164042031701     -1.05289585191801
  N   1.01149571483900      1.91853921199119     -1.69875473697555
  C   1.66395125833814     -0.25647943859676      0.89209359381269
  N   2.36794215418023     -0.25858386224622      1.83381851617561
  C   -1.65284370292432     -0.42983056763398     -0.86146140476956
  N   -2.41484823671766     -0.45577963435548     -1.75488899596089
  C   -1.01739863783028      0.69911851958269      1.17728972890626
  N   -1.24536935074664      1.57924343873689      1.92135034503390
