12
Coordinates from ORCA-job run
  C   0.76268709900582     -0.25147287504176     -0.26287133517853
  C   -0.70122499868643     -0.42715174231243      0.25616574039065
  Cl  1.15263865349953     -1.65365061921563     -1.29554191484488
  H   -0.73642367402181     -1.38844876540661      0.78379292186441
  C   0.87612418294554      0.98215077959362     -1.04069775930250
  N   0.94820941151185      1.97487996947790     -1.66645396064981
  C   1.67243774196498     -0.22406284797659      0.88346286790865
  N   2.37874950292820     -0.21826495429743      1.82352783260471
  C   -1.64203019413411     -0.46040198431071     -0.86571069617948
  N   -2.39933191157200     -0.49170013754878     -1.76282535399921
  C   -1.03250781551807      0.65074043302357      1.19155158794616
  N   -1.27932799792350      1.50838274401485      1.95560006943985
