12
Coordinates from ORCA-job run
  C   0.75825654948242     -0.28660249369387     -0.24121826635026
  C   -0.71439449813926     -0.39409571028823      0.27124020738348
  Cl  1.11598848342025     -1.74672004724968     -1.20226401797598
  H   -0.78073289340880     -1.32284268108448      0.85153895200618
  C   0.91500063674052      0.90582454739184     -1.07383026931650
  N   1.02156586467190      1.86931567201568     -1.73934121842134
  C   1.65841951240210     -0.23170434901724      0.91180079179494
  N   2.35673549160316     -0.20657671393165      1.85752855608148
  C   -1.64655357251173     -0.46485835291341     -0.85618206181830
  N   -2.39935552209748     -0.52627415615169     -1.75559175504080
  C   -1.02532443106267      0.74492099558567      1.13886084372305
  N   -1.26060562110040      1.65961328933707      1.83745823793407
