12
Coordinates from ORCA-job run
  C   0.76074914903890     -0.13527889519985     -0.34422903352563
  C   -0.79441972356247      0.02092656971611     -0.32688088077064
  Cl  1.18360181952585     -1.30148056777912     -1.62697527525917
  H   -1.09114709366310      0.35144980305605     -1.33010214648897
  C   1.36530074993280      1.16221769333395     -0.65026602993673
  N   1.82258425300203      2.21270363860908     -0.91447988925954
  C   1.22902606153315     -0.63019788931516      0.95009609357070
  N   1.58217382049675     -1.02861852453065      1.99846911252481
  C   -1.18249018315327      1.03787108032985      0.65389456280696
  N   -1.48112058349031      1.86357588880121      1.43437331706729
  C   -1.43580851743129     -1.26311951732599     -0.03561946608061
  N   -1.95844975222904     -2.29004927969548      0.19171963535153
