12
Coordinates from ORCA-job run
  C   0.76663718097568     -0.25348340233210     -0.24936700669135
  C   -0.70070314050574     -0.42611814618394      0.26097528360834
  Cl  1.17654569889420     -1.67804341528959     -1.24211718148742
  H   -0.73296235047976     -1.37074819709889      0.81815149037632
  C   0.87869914465667      0.96231789050124     -1.05504575847191
  N   0.95121892078706      1.94535418994839     -1.69605271705998
  C   1.66586927050187     -0.18940620166671      0.90398069112555
  N   2.36590764546493     -0.15338254789942      1.84810018802565
  C   -1.63043252211452     -0.50260583666452     -0.86801366523008
  N   -2.37933868076302     -0.56943028652153     -1.77030943348955
  C   -1.05029095512037      0.67784671005535      1.15857168540237
  N   -1.31315021229700      1.55869924315172      1.89012642389207
