12
Coordinates from ORCA-job run
  C   0.71916975778721     -0.26594815491084     -0.15886161163205
  C   -0.69761058367683      0.31069156317949      0.16708786157726
  Cl  0.58479353493453     -1.99679088687648     -0.55495926345178
  H   -0.56465564996017      1.37449503819811      0.40627041777154
  C   1.27169764265962      0.46284587475857     -1.30219759505109
  N   1.69313877094979      1.07293206301030     -2.21463792819375
  C   1.57822844269837     -0.09035546096573      1.01368726710669
  N   2.24558347745343      0.07410860245777      1.96769385827945
  C   -1.26631339332180     -0.36605233638531      1.33458354280683
  N   -1.71566284228838     -0.89564142592188      2.28163621814406
  C   -1.57489992281879      0.19743468808066     -0.99995724134848
  N   -2.27446923441698      0.12328043537535     -1.94034552600869
