12
Coordinates from ORCA-job run
  C   0.68861301336330     -0.03117841446955     -0.37184047870030
  C   -0.66161196846642      0.04173636337419      0.41418971554135
  Cl  0.36368513330883     -0.36850625882319     -2.08989132403432
  H   -0.41229573892438      0.25561728914106      1.46239606952058
  C   1.37705824303484      1.25422982313998     -0.23977502993617
  N   1.90878633687661      2.29434820936611     -0.10577014357611
  C   1.50735978935256     -1.10361932764520      0.19649560954850
  N   2.14685241585385     -1.96542809150297      0.67700376819513
  C   -1.35931438657386     -1.24415874307248      0.35034971299255
  N   -1.91271385645523     -2.27934914741236      0.31454821760623
  C   -1.49288402039435      1.13095869435283     -0.10259900868850
  N   -2.15453496097576      2.01434960355157     -0.50410710846894
