12
Coordinates from ORCA-job run
  C   0.75747890306229     -0.30833538596540     -0.21207424134776
  C   -0.73996530437195     -0.37191865708002      0.23110422687158
  Cl  1.10805461560026     -1.76675236934324     -1.17869478195609
  H   -0.86494731236278     -1.30860905055215      0.78858465473754
  C   0.99311411809712      0.88904095588623     -1.01854538784570
  N   1.16306967557498      1.85575930249975     -1.66608404844037
  C   1.60589104434921     -0.30056620052010      0.98067261099786
  N   2.26330337021765     -0.30872142452604      1.95553813302619
  C   -1.62109256769113     -0.38973328152315     -0.93859142042799
  N   -2.33231346175057     -0.41205163671260     -1.87298637074933
  C   -1.05065587297407      0.75941101466387      1.10847163698156
  N   -1.28393720775100      1.66347673317287      1.82160498815251
