12
Coordinates from ORCA-job run
  C   0.72858254299503     -0.22218672364959     -0.18284980840971
  C   -0.70930263466597      0.26785872344225      0.18930766164982
  Cl  0.68776229635861     -1.96003079026657     -0.56822313576160
  H   -0.63515594503449      1.33984883796755      0.41741354954815
  C   1.19569279929912      0.53325501159201     -1.34678248482785
  N   1.54772174204308      1.16298259002802     -2.27521933614708
  C   1.61484463166376      0.01241085283529      0.95865491652502
  N   2.30512773347276      0.22330727888078      1.88684647719773
  C   -1.19396232948987     -0.43370472843731      1.37979731221294
  N   -1.57707046900977     -0.98374196594173      2.34414267876062
  C   -1.61787278288992      0.09133280368096     -0.94558836968790
  N   -2.34636758474234     -0.03233189013165     -1.85849946106014
