12
Coordinates from ORCA-job run
  C   0.70517864823396     -0.00912464788045     -0.33940082037433
  C   -0.68190155001606      0.01215644602350      0.38262909328547
  Cl  0.46309304280693     -0.16523698726190     -2.09654236223188
  H   -0.48287067169244      0.10715544751781      1.45875277117252
  C   1.40795670963764      1.24106550048158     -0.04490782962917
  N   1.95307246237059      2.24960879895937      0.21630944388887
  C   1.47651547670462     -1.14984741321439      0.15809918055293
  N   2.07678277696997     -2.06867014955862      0.57989283765794
  C   -1.39855245424538     -1.24283070967966      0.14672447458926
  N   -1.96822536435164     -2.25502380466816     -0.02715650342052
  C   -1.46539119580489      1.17011855485382     -0.05273724448213
  N   -2.08665788061328      2.11062896442712     -0.38266304100896
