12
Coordinates from ORCA-job run
  C   0.73807774309819      0.01619820473305     -0.26254429633460
  C   -0.71768070127799     -0.01062550480101      0.30828061617797
  Cl  0.69104965857285     -0.17425430574215     -2.03236446806488
  H   -0.63847552650678      0.10851742303901      1.39739319210034
  C   1.35377665650107      1.29906770401405      0.08189416010000
  N   1.82472985804006      2.33390296284941      0.38162382315533
  C   1.49716687007904     -1.08406797166865      0.33470063427559
  N   2.08321530623727     -1.96985293339871      0.83909489672127
  C   -1.35437022869673     -1.29787710078274      0.02185587624569
  N   -1.86199390449959     -2.33530751664276     -0.19132281324793
  C   -1.49730376826271      1.10561402664971     -0.23076222662320
  N   -2.12019196328467      2.00968501175077     -0.64784939450558
