12
Coordinates from ORCA-job run
  C   0.74438401703661     -0.21534932734655     -0.11495688204419
  C   -0.72675530755322      0.25809677980360      0.12479822036637
  Cl  0.76366689650556     -1.96344111010926     -0.45162644687571
  H   -0.68749735106843      1.33529268510593      0.33687994585604
  C   1.29460589209203      0.51562899111361     -1.25792081391429
  N   1.71647489095194      1.12269394267393     -2.17232054778983
  C   1.52888957325575      0.06819598068253      1.08832936431853
  N   2.13371270201792      0.32199535037820      2.06421493113625
  C   -1.29910522283797     -0.42814603352672      1.28503434457160
  N   -1.75275117496806     -0.96513137049236      2.22577967479614
  C   -1.53422143407028      0.04723439025065     -1.07856939627291
  N   -2.18040348136185     -0.09607027853357     -2.04864239414800
