12
Coordinates from ORCA-job run
  C   0.73150282088167     -0.13077578893267     -0.40183278946703
  C   -0.81614155930352      0.04059260215429     -0.26782099586410
  Cl  1.04655630133354     -1.25428546291212     -1.75174031979832
  H   -1.17885173910580      0.40696390724916     -1.23633800255127
  C   1.32974700533591      1.17062160496369     -0.70365587463004
  N   1.78281077729614      2.22524032883275     -0.95895304852570
  C   1.28621870116342     -0.67670066159432      0.83669713919119
  N   1.71427978901414     -1.11898559515329      1.83858666213337
  C   -1.12246737902540      1.02862683730714      0.76968346831613
  N   -1.35656602269652      1.83180647544605      1.59451581479604
  C   -1.45116164561427     -1.24594975880262      0.02616460283487
  N   -1.96592704927932     -2.27615448855807      0.25669334356486
