12
Coordinates from ORCA-job run
  C   0.75510234359430     -0.31123392095572     -0.21592530247419
  C   -0.73681791569151     -0.36873454238248      0.24648810636542
  Cl  1.09823341283397     -1.78577452769517     -1.15975335142717
  H   -0.85241484638738     -1.29171157344850      0.82835778385232
  C   0.98022273829368      0.87293991421240     -1.04471749838168
  N   1.14770700215542      1.83349315032291     -1.70185474300346
  C   1.61659832291871     -0.28050984596963      0.96725901731717
  N   2.28210032727642     -0.27343858688910      1.93664346138734
  C   -1.63215316885195     -0.41714448959975     -0.91142783614985
  N   -2.35455394073250     -0.46617774159995     -1.83618135392811
  C   -1.03900992449874      0.78357566531991      1.09945542490265
  N   -1.26401435091042      1.70571649868508      1.79165629153957
