12
Coordinates from ORCA-job run
  C   0.76702850777255     -0.30069978609985     -0.19091785218542
  C   -0.73222143396894     -0.37766898482881      0.24429639869457
  Cl  1.15922626312120     -1.79333106754786     -1.08625696501365
  H   -0.83999988967462     -1.28659957678413      0.84928272707897
  C   0.98147438460239      0.86377255124500     -1.04977120336708
  N   1.13283268230886      1.80551710031027     -1.73738116980785
  C   1.60464866732271     -0.21888055891451      1.00671276030414
  N   2.25203703463774     -0.17025062139817      1.98708306375006
  C   -1.60292305313888     -0.47728373911273     -0.92911772574508
  N   -2.30466533421618     -0.56694283735373     -1.86664565386782
  C   -1.07677443520701      0.79132931868068      1.05754490584309
  N   -1.33966339355981      1.73003820180383      1.71317071431607
