12
Coordinates from ORCA-job run
  C   0.71473539754448     -0.06851795502904     -0.44639828067135
  C   -0.82981568872336      0.01750492479511     -0.22272030924896
  Cl  1.00891471813991     -1.08942799825851     -1.87978352040511
  H   -1.26062075802172      0.42981038100009     -1.14369101745681
  C   1.23340812462713      1.27758439353527     -0.69462403258668
  N   1.61782313640790      2.36835919015936     -0.90684933829110
  C   1.35963014219450     -0.66085859348110      0.72529434085278
  N   1.85873975521961     -1.13780534147141      1.67714713253394
  C   -1.12303528620914      0.91670335156457      0.89626291159138
  N   -1.34607644585307      1.64395045560250      1.79151956695071
  C   -1.38940059014263     -1.31526353566597      0.01298866151232
  N   -1.84430250518361     -2.38303927275088      0.19285388521888
