12
Coordinates from ORCA-job run
  C   0.76554855606356     -0.28157597829278     -0.22196911547327
  C   -0.72269037002112     -0.40127754886957      0.24062324048135
  Cl  1.15936507152086     -1.72538131014235     -1.19306787460788
  H   -0.80571798217294     -1.34079544858639      0.80118900840824
  C   0.94500741856916      0.92439129133913     -1.03027066822827
  N   1.07014378076600      1.89882147913975     -1.67640361001510
  C   1.62816991210849     -0.24034352341968      0.96001553961997
  N   2.29790158675013     -0.22168268851083      1.92629455759334
  C   -1.61753608070009     -0.45211863870325     -0.91762067141633
  N   -2.33908364293190     -0.49598508468224     -1.84326879581442
  C   -1.06318268427754      0.72014581229393      1.12001303162759
  N   -1.31892556567460      1.61780163843429      1.83346535782477
