12
Coordinates from ORCA-job run
  C   0.77433895123957     -0.28476164474372     -0.18283595470566
  C   -0.73158790876888     -0.39713098819870      0.21868347063732
  Cl  1.20860087277306     -1.75017296820962     -1.10411341652550
  H   -0.83746733115275     -1.32648639126996      0.79213958970573
  C   0.98810071512453      0.90190719918011     -1.01093395522488
  N   1.14242222829706      1.85958375445863     -1.67562699494782
  C   1.58805718901588     -0.21625593476124      1.03195900383650
  N   2.22068157338988     -0.17560205649977      2.02236581113968
  C   -1.57634621558950     -0.47012191209182     -0.97545594895634
  N   -2.25901854461127     -0.52530167485715     -1.92947641364520
  C   -1.11215491140018      0.73860711472123      1.06240247754165
  N   -1.40562661831739      1.64573550227202      1.74889233114452
