12
Coordinates from ORCA-job run
  C   0.72697325251494     -0.01788183851934     -0.29025156056140
  C   -0.70617126553039      0.02209374125974      0.33444023033541
  Cl  0.60558766873872     -0.21404457319265     -2.05601555633439
  H   -0.58087114755494      0.14085866290843      1.41928244698141
  C   1.41177324285418      1.23770347092835      0.02304649288956
  N   1.94070330544140      2.25119501779542      0.29803015871082
  C   1.45869971050237     -1.14800386107158      0.28522200201873
  N   2.02457323011775     -2.05611506484632      0.77267472154669
  C   -1.40901410227239     -1.23668541038423      0.07827459782398
  N   -1.96701953330332     -2.25252012256674     -0.11142940444074
  C   -1.45464553583447      1.17087079653973     -0.17950153573010
  N   -2.05058882567385      2.10252918114919     -0.57477259323997
