12
Coordinates from ORCA-job run
  C   0.76401788663851     -0.25478006019842     -0.25722754973277
  C   -0.69928494464712     -0.42543883103013      0.26473079028846
  Cl  1.15961014263510     -1.67316479731071     -1.26493235455734
  H   -0.73007817732482     -1.37311103605465      0.81643462732370
  C   0.87412937353605      0.96645908755607     -1.05498729952573
  N   0.94379090405950      1.95267362957358     -1.69152968324826
  C   1.67355874693677     -0.20398574255420      0.88871589329948
  N   2.38095226249448     -0.17906962111774      1.82763284485183
  C   -1.64003493794653     -0.49133644631127     -0.85554809444252
  N   -2.39890159073510     -0.54890561678014     -1.75011355775274
  C   -1.03705501029154      0.67487019816047      1.17119561143856
  N   -1.29170465535530      1.55578923606716      1.90562877205734
