12
Coordinates from ORCA-job run
  C   0.73748136137802     -0.18718867874410     -0.36963926858799
  C   -0.80765221598523      0.03389713573984     -0.28939006819020
  Cl  1.05175539462175     -1.44057962183745     -1.60020889931474
  H   -1.13923393570044      0.31701404871839     -1.29617250490651
  C   1.37451583234324      1.06549662444143     -0.77905148206385
  N   1.85539730762971      2.08108758742492     -1.12536528214406
  C   1.25077336139500     -0.62672066923288      0.92761644093720
  N   1.64485740102966     -0.97914859980840      1.97794244846447
  C   -1.10882277456562      1.12266589142955      0.64357859732089
  N   -1.33780454358378      2.00790860902344      1.38116349499271
  C   -1.48424708989283     -1.20265434980243      0.10791598439833
  N   -2.03502009866949     -2.19177797735231      0.42061053909377
