12
Coordinates from ORCA-job run
  C   0.75685281181331     -0.30839645520211     -0.21746436206319
  C   -0.73816812174782     -0.37195300157085      0.23330383869021
  Cl  1.10042263087416     -1.76309256698404     -1.19196648101260
  H   -0.86192276471147     -1.31117209174923      0.78683402440879
  C   0.98986524534611      0.89188584173071     -1.02036915972526
  N   1.15867332280773      1.85983148275359     -1.66619423461024
  C   1.61187599923221     -0.30623915335453      0.97059999214347
  N   2.27589371773538     -0.31673629916259      1.94086961285611
  C   -1.62569328381936     -0.38190746254221     -0.93166674609863
  N   -2.34324903084540     -0.39753399284940     -1.86135007524696
  C   -1.04391670397751      0.75484647294829      1.11846208824079
  N   -1.28063382270735      1.65146722598237      1.83994150241750
