12
Coordinates from ORCA-job run
  C   0.73595758148679     -0.14415880360909     -0.39109077219666
  C   -0.80985770070812      0.05703628793076     -0.28002899281156
  Cl  1.04926976005846     -1.26729936144893     -1.74178976207406
  H   -1.15050688746322      0.43295698277173     -1.25287149936530
  C   1.36403955445546      1.14674883952493     -0.67682217787774
  N   1.84173527419302      2.19391571103853     -0.91706084166766
  C   1.26092221970797     -0.70698981985698      0.85282105209433
  N   1.66531132665815     -1.16224393535007      1.85866805237569
  C   -1.11396502918216      1.04846570539435      0.75496155092781
  N   -1.35229639066947      1.85519362158579      1.57525970944583
  C   -1.47457376420443     -1.21744234378631      0.00056143591090
  N   -2.01503594433244     -2.23718288419472      0.21839224523841
