12
Coordinates from ORCA-job run
  C   0.74516461450153     -0.09882295064810     -0.38675296873090
  C   -0.80950241109716      0.02899718161315     -0.28778397570093
  Cl  1.12399970831072     -1.16810900140941     -1.76434343997739
  H   -1.15741070327986      0.41994257954747     -1.25204201606508
  C   1.31619153198543      1.22677606724221     -0.63074705299694
  N   1.74349058797014      2.30112884176550     -0.84468026065396
  C   1.28127869675379     -0.67198900925951      0.84759010633601
  N   1.69216741127266     -1.13416087972484      1.84763381793960
  C   -1.16592942311205      0.97208082988303      0.77522873809052
  N   -1.44012243106703      1.73809059061657      1.62270872891594
  C   -1.41802784158087     -1.28233625196510     -0.05391273422946
  N   -1.91129974065729     -2.33259799766098      0.12710105707258
