12
Coordinates from ORCA-job run
  C   0.72348750592436     -0.08433059080037     -0.42842716661704
  C   -0.82468303632191      0.02637123219072     -0.24403760599260
  Cl  1.03684777623076     -1.12099380035242     -1.84661867272140
  H   -1.22632371877486      0.43203762761016     -1.18104137768014
  C   1.26895960449822      1.25170108166435     -0.67351725143325
  N   1.67768328027015      2.33452724708793     -0.88106627134677
  C   1.33122515625255     -0.67723233981788      0.76263202169172
  N   1.80237671646004     -1.15558096643869      1.72801049106731
  C   -1.13221253846242      0.94653346585481      0.85380724891181
  N   -1.36620161214695      1.69563743268139      1.72810607164208
  C   -1.40868178515948     -1.29483189255491     -0.00323452447145
  N   -1.88247734877046     -2.35283849712508      0.18538703694974
