12
Coordinates from ORCA-job run
  C   0.76558453017450     -0.29895768653300     -0.19661530742386
  C   -0.72977042989497     -0.38050281374870      0.25063752193909
  Cl  1.15694679520859     -1.79527539847976     -1.08664656677098
  H   -0.82963474480096     -1.29002235242694      0.85603626972384
  C   0.96917346442841      0.86099142952591     -1.06420038376523
  N   1.11537649953450      1.79749624635290     -1.76017857845034
  C   1.61273631807251     -0.20610131073086      0.99350355449659
  N   2.26806417632278     -0.14622463495643      1.96800207557061
  C   -1.60951562525857     -0.48128921754573     -0.91570852305724
  N   -2.31918211715864     -0.56763765493401     -1.84751426067793
  C   -1.07090854661496      0.78604768139211      1.06878138267440
  N   -1.32887032001319      1.71947571208452      1.73390281574105
