12
Coordinates from ORCA-job run
  C   0.76567682748715     -0.30234915009401     -0.19129590446943
  C   -0.73381319673922     -0.37874842114134      0.24299810264591
  Cl  1.15749702883309     -1.79571922043311     -1.08575485609853
  H   -0.84324203545926     -1.29026925778098      0.84383667518019
  C   0.98144227196349      0.86141360080502     -1.05082210326744
  N   1.13564437724096      1.80200110552696     -1.73947904365625
  C   1.60343982732369     -0.21884014001397      1.00611951478002
  N   2.25341357987873     -0.16310397590415      1.98436868338823
  C   -1.60392561199036     -0.47100517374496     -0.93143958883605
  N   -2.30539346241408     -0.55067598245763     -1.87008912414660
  C   -1.07641464726323      0.78662178863669      1.06230665128360
  N   -1.33632495886095      1.71967482660147      1.72725099319635
