12
Coordinates from ORCA-job run
  C   0.74901864841081     -0.10420944056093     -0.37762434959697
  C   -0.80638047315252      0.02883714276018     -0.29857864342351
  Cl  1.14132619968211     -1.18257411323744     -1.74399063810376
  H   -1.14087464418737      0.41288195854762     -1.27037830761291
  C   1.32675475961674      1.21850586696875     -0.62102767194501
  N   1.76160202459979      2.29098271667101     -0.82903624114293
  C   1.26898431214852     -0.67129704304209      0.86645076798667
  N   1.66922437426615     -1.12796433235360      1.87339298568277
  C   -1.17319692471993      0.98185642324542      0.75202169596015
  N   -1.45384745131543      1.75761764391390      1.58845406863946
  C   -1.42179804820509     -1.27884350010665     -0.06187825955935
  N   -1.92081277714377     -2.32579332280617      0.12319459311539
