19

C	0.0	0.0	0.0
C	-0.614945	-0.000532	-1.410733
Cl	1.759611	0.0	0.0
H	-1.711198	-0.070794	-1.1488
C	-0.499496	1.174664	0.817686
H	-0.115724	2.102048	0.389392
H	-0.136992	1.081334	1.839907
H	-1.595935	1.107036	0.753759
N	-0.417552	-1.289009	0.725065
O	-0.373234	-1.268026	1.947942
O	-0.683191	-2.277208	0.053854
C	-0.084817	-0.985178	-2.436284
H	-0.416985	-1.987934	-2.187565
H	-0.486384	-0.718029	-3.417097
H	1.004158	-0.961978	-2.500153
N	-0.396151	1.376175	-1.9718
O	0.70456	1.624165	-2.480325
O	-1.323447	2.182489	-1.914495
F	-2.852617	0.0	0.0
