19

C	0.0	0.0	0.0
C	-0.350765	0.039325	-1.518651
Cl	1.77745	0.0	0.0
H	0.310633	-0.691715	-1.988563
C	-0.43371	1.171193	0.853274
H	-0.009519	2.089517	0.445325
H	-1.528673	1.143309	0.81713
H	-0.052806	1.029033	1.864157
N	-0.374968	-1.325	0.642494
O	-0.206307	-2.324739	-0.045207
O	-0.695673	-1.317506	1.821372
C	-0.110153	1.431243	-2.078475
H	-0.1575	1.403908	-3.167361
H	0.867596	1.810272	-1.780579
H	-0.895871	2.097599	-1.726021
N	-1.716326	-0.432211	-2.032543
O	-2.424265	0.392523	-2.599195
O	-1.889109	-1.643408	-2.074122
F	-2.547604	0.0	0.0
