19

C	0.0	0.0	0.0
C	-0.34976	-0.134471	-1.532856
Cl	1.768443	0.0	0.0
H	-0.194975	0.882646	-1.89633
C	-0.673797	1.218232	0.563751
H	-0.393997	2.093501	-0.025443
H	-0.389716	1.368703	1.603607
H	-1.762287	0.999375	0.478651
N	-0.413828	-1.214439	0.823229
O	-0.432605	-2.302466	0.260577
O	-0.616874	-1.020392	2.017698
C	-1.696613	-0.646401	-1.971921
H	-1.759692	-1.718099	-1.791979
H	-1.786937	-0.453004	-3.048007
H	-2.506607	-0.181082	-1.358504
N	0.694991	-0.887197	-2.34382
O	1.432582	-0.199347	-3.054407
O	0.704947	-2.112571	-2.321094
F	-3.274585	0.0	0.0
