18

C	-0.490187	-0.02487	-1.450065
C	0.0	0.0	0.0
Cl	0.273696	-1.486116	-2.20737
H	1.089335	0.0	0.0
N	-1.919592	-0.252826	-1.524374
H	-2.384391	0.456056	-0.969044
H	-2.228995	-0.196318	-2.485977
C	0.054285	1.182387	-2.196924
H	-0.125764	1.081375	-3.270556
H	1.124502	1.250383	-1.988605
H	-0.445963	2.089149	-1.8436
N	-0.506643	-1.054477	0.82498
H	0.250157	-1.709739	0.962432
H	-1.295339	-1.513945	0.389143
N	-0.480179	1.314954	0.590876
O	-1.690481	1.442436	0.832297
O	0.345272	2.200477	0.794169
F	2.604176	0.0	0.0
