18

C	-0.315764	-0.066096	-1.489733
C	0.0	0.0	0.0
Cl	-2.253573	-0.466765	-1.633564
H	1.094247	0.0	0.0
N	-0.010647	1.06598	-2.228951
H	-0.300174	0.99673	-3.192189
H	-0.267512	1.932686	-1.783367
C	0.38677	-1.276271	-2.07089
H	1.431949	-1.157122	-1.763661
H	0.300021	-1.280285	-3.160556
H	-0.018166	-2.207741	-1.682161
N	-0.364032	-1.150219	0.752424
H	0.432278	-1.767772	0.802951
H	-1.195426	-1.616953	0.419065
N	-0.574973	1.229964	0.641254
O	-0.28311	2.324177	0.138439
O	-1.282428	1.120597	1.636927
F	2.565032	0.0	0.0
