18

C	-0.598412	-0.024903	-1.415356
C	0.0	0.0	0.0
Cl	0.434798	1.042444	-2.523845
H	1.089356	0.0	0.0
N	-0.56977	-1.383398	-1.876781
H	-0.542108	-1.387998	-2.889934
H	0.265143	-1.836475	-1.519241
C	-2.013277	0.525287	-1.52613
H	-2.043204	1.592687	-1.303265
H	-2.38901	0.369546	-2.539961
H	-2.660484	-0.019171	-0.831004
N	-0.352083	-1.165078	0.751697
H	0.330047	-1.254147	1.494403
H	-1.273024	-1.092195	1.16515
N	-0.447716	1.266826	0.694647
O	-1.056501	1.163673	1.768843
O	-0.179506	2.344578	0.168964
F	2.546676	0.0	0.0
