18

C	-0.485263	0.110594	-1.451001
C	0.0	0.0	0.0
Cl	-0.034899	-1.566807	-2.195891
H	1.093437	0.0	0.0
N	-1.886641	0.302956	-1.4751
H	-2.304742	-0.386483	-0.85583
H	-2.262266	0.198731	-2.40842
C	0.31386	1.096403	-2.275548
H	1.365394	0.951525	-2.016757
H	0.012816	2.109475	-2.018029
H	0.149698	0.922352	-3.342437
N	-0.63248	-1.146038	0.646573
H	0.01821	-1.915017	0.523206
H	-0.682578	-0.942979	1.639758
N	-0.416035	1.234457	0.729004
O	-0.015582	2.313017	0.29699
O	-1.089901	1.12395	1.760873
F	2.590623	0.0	0.0
