18

C	-0.501012	-0.053703	-1.447007
C	0.0	0.0	0.0
Cl	0.086401	-1.613847	-2.142086
H	1.090807	0.0	0.0
N	-1.951963	-0.098238	-1.505455
H	-2.325828	0.694072	-0.991145
H	-2.252498	-0.031767	-2.472466
C	0.174463	1.054781	-2.253971
H	0.028017	0.891575	-3.325202
H	-0.254029	2.026744	-1.990283
H	1.240194	1.048064	-2.002882
N	-0.529011	-1.026743	0.824042
H	-1.49366	-0.859088	1.078686
H	0.053802	-1.11121	1.647203
N	-0.431839	1.389081	0.499373
O	-1.57704	1.506289	0.975069
O	0.357229	2.325878	0.398434
F	2.599539	0.0	0.0
