18

C	-0.380176	0.096956	-1.494198
C	0.0	0.0	0.0
Cl	-0.197544	-1.553628	-2.204259
H	1.090825	0.0	0.0
N	-1.789667	0.440559	-1.658217
H	-1.928644	1.381558	-1.30236
H	-1.999316	0.460286	-2.651625
C	0.632296	0.979238	-2.220336
H	0.549765	0.839576	-3.301674
H	0.446613	2.026802	-1.975422
H	1.626266	0.709602	-1.845821
N	-0.58879	-1.090315	0.67785
H	-1.585293	-0.956736	0.79439
H	-0.147941	-1.201275	1.580016
N	-0.433622	1.337738	0.614363
O	-1.42097	1.343305	1.362929
O	0.211076	2.350794	0.341047
F	2.625485	0.0	0.0
