18

C	-0.484159	-0.037558	-1.451531
C	0.0	0.0	0.0
Cl	0.281061	-1.498213	-2.20338
H	1.089289	0.0	0.0
N	-1.916707	-0.26336	-1.526236
H	-2.376959	0.460316	-0.982851
H	-2.221992	-0.21646	-2.491898
C	0.061081	1.171255	-2.198574
H	-0.114722	1.072429	-3.27335
H	1.132343	1.244493	-1.989626
H	-0.441416	2.077606	-1.846627
N	-0.511694	-1.040675	0.837846
H	0.243053	-1.69568	0.988705
H	-1.296691	-1.503959	0.397765
N	-0.482482	1.331012	0.555002
O	0.342924	2.212843	0.771711
O	-1.699495	1.474368	0.747214
F	2.606245	0.0	0.0
