12
Coordinates from ORCA-job run
  C   -0.18834091541882      0.03429819886652     -0.00281081103239
  C   1.24308271409088     -0.12903475996302     -0.45965479288647
  Cl  -1.14354461924824      0.54089428748088     -1.63328166897006
  H   1.84160185514351     -0.41462228039666      0.40692035687595
  H   1.62143530541412      0.80333083407708     -0.87889773681593
  H   1.31568218374022     -0.89831767157087     -1.22852089603770
  N   -0.32227880065138      1.06817438511153      0.94640410671443
  H   -1.28400412941513      1.18979783512187      1.23853216061025
  H   0.01085624404578      1.94482085042263      0.56922463506679
  N   -0.72521862887045     -1.17441125574480      0.48568626123675
  H   -1.68991855654619     -1.06924070475321      0.77437914334733
  H   -0.67935265228429     -1.89668971865196     -0.21998075810897
