12
Coordinates from ORCA-job run
  C   -0.19021572432359      0.09475696728796     -0.29415529255550
  C   1.30250716256082     -0.16292869869923     -0.34503137471566
  Cl  -0.76802871370861      0.53743613421291     -1.94260471374000
  H   1.66281727661749     -0.43301561672783      0.65389991607212
  H   1.82089213488448      0.73702520097819     -0.67110350765660
  H   1.51126950290505     -0.98658759162703     -1.02544903408265
  N   -0.44243097616321      1.26048821939395      0.53325165695666
  H   -0.12962587891152      1.06728173804754      1.47879677106812
  H   -1.43483427058989      1.46597070288707      0.55854690220554
  N   -0.87391847976143     -1.14152668996507      0.03944919858792
  H   -1.87715726128547     -0.99636822688668      0.05236913165840
  H   -0.58027477222412     -1.44153213890178      0.96303034620163
