12
Coordinates from ORCA-job run
  C   -0.28988150557089      0.05172658165072     -0.12231024857443
  C   1.19661825461104     -0.10276286543621     -0.40355859452010
  Cl  -1.05889667462833      0.49679342085480     -1.75946473728855
  H   1.38540215914764     -0.90663498544963     -1.11827676229315
  H   1.70368079206331     -0.33578001142508      0.53600884969781
  H   1.60199480183054      0.82121343044674     -0.81626682922982
  N   -0.66519565388355      1.12309224979479      0.76430072086514
  H   -0.24310164998501      0.94952507109559      1.66948756025278
  H   -0.34699912103711      2.01401625912823      0.40611747284524
  N   -0.82016601209479     -1.13935920401203      0.42703447359143
  H   -1.81459107905800     -1.03242659397434      0.58333733136316
  H   -0.64786431139485     -1.93940335267359     -0.16640923670951
