12
Coordinates from ORCA-job run
  C   -0.37745226603259      0.11351049308927     -0.22243841275779
  C   1.12551591831909     -0.12533580524171     -0.37352429887923
  Cl  -0.98217032628294      0.56091826492964     -1.86908824709850
  H   1.53603377113816     -0.40009740640476      0.60353516426772
  H   1.32788516485419     -0.93382944654480     -1.07923323068846
  H   1.63451875185396      0.77351691127389     -0.72795001654563
  N   -0.71659276936293      1.20155241532927      0.66415552909504
  H   -0.18789465675466      2.02726792298552      0.41091800770791
  H   -0.47732263514139      0.95146107244116      1.61761257307263
  N   -1.12088340454168     -1.04960215460661      0.20103534957726
  H   -0.88177662287750     -1.84074412129133     -0.38409492021468
  H   -0.87886092517170     -1.27861814595953      1.15907250246373
