14

C	0.0	0.0	0.0
C	-0.582237	-0.233944	-1.37334
F	1.347983	0.0	0.0
H	-1.621812	-0.576355	-1.251843
H	-0.589448	0.691985	-1.94564
C	-0.448111	1.27475	0.574645
N	-0.52984	2.366057	1.002491
N	-0.362329	-1.12819	0.990435
O	-0.969113	-2.101461	0.578752
O	0.079733	-0.947552	2.120923
N	0.206757	-1.210252	-2.172464
O	0.805483	-2.112913	-1.594351
O	0.170463	-1.050775	-3.393314
Cl	-3.379784	0.0	0.0
