14

C	0.0	0.0	0.0
C	-0.567601	-0.324234	-1.364824
F	1.347938	0.0	0.0
H	-1.597924	-0.684659	-1.231759
H	-0.602688	0.573605	-1.978297
C	-0.443834	1.316502	0.474553
N	-0.590019	2.433479	0.808531
N	-0.377209	-1.05266	1.057329
O	-0.059451	-0.746021	2.201358
O	-0.859066	-2.106855	0.680631
N	0.240189	-1.318666	-2.1228
O	0.163663	-1.232936	-3.346913
O	0.880723	-2.168177	-1.510615
Cl	-3.348681	0.0	0.0
