14

C	0.0	0.0	0.0
C	-0.576198	-0.241403	-1.376838
F	1.347959	0.0	0.0
H	-0.561075	0.681	-1.955796
H	-1.627722	-0.548113	-1.255593
C	-0.481014	1.272933	0.555014
N	-0.698191	2.351368	0.967206
N	-0.37612	-1.117942	0.991387
O	-0.872026	-2.1412	0.552684
O	-0.048275	-0.885719	2.149776
N	0.1724	-1.247545	-2.179369
O	0.879293	-2.077106	-1.614284
O	-0.01127	-1.182807	-3.393339
Cl	-3.388518	0.0	0.0
