14

C	0.0	0.0	0.0
C	-0.545718	-0.256227	-1.393159
F	1.347592	0.0	0.0
H	-0.611156	0.67845	-1.946203
H	-1.556924	-0.670795	-1.304339
C	-0.449624	1.290284	0.536545
N	-0.604251	2.380042	0.946792
N	-0.381746	-1.102541	0.999027
O	-0.815827	-2.154442	0.562631
O	-0.108357	-0.835949	2.164639
N	0.313143	-1.163357	-2.203122
O	0.923602	-2.071915	-1.647196
O	0.302917	-0.957832	-3.417834
Cl	-3.297694	0.0	0.0
