16

C	-0.370987	0.003938	-1.476492
C	0.0	0.0	0.0
Cl	-0.031946	-1.606583	-2.174281
H	1.093719	0.0	0.0
H	-0.387697	-0.90299	0.47126
N	-1.886064	0.179528	-1.647952
O	-2.610763	-0.429323	-0.862573
O	-2.292714	0.91777	-2.544406
C	0.374667	1.058086	-2.252905
H	0.176114	0.986701	-3.321492
H	1.437841	0.910408	-2.032158
H	0.072644	2.048272	-1.906379
N	-0.434988	1.176673	0.731954
H	0.175994	1.958466	0.533126
H	-1.400156	1.425098	0.554437
H	2.966222	0.0	0.0
