16

C	-0.6241	-0.029574	-1.379511
C	0.0	0.0	0.0
Cl	0.041271	1.311027	-2.35653
H	1.0926	0.0	0.0
H	-0.316948	0.951911	0.441687
N	-0.247613	-1.315662	-2.113056
O	-0.810857	-1.522056	-3.188276
O	0.572567	-2.059375	-1.590646
C	-2.13461	0.058521	-1.371227
H	-2.52054	-0.778392	-0.787762
H	-2.529877	0.03148	-2.384787
H	-2.425828	0.994823	-0.891724
N	-0.533857	-1.125346	0.790867
H	-0.70578	-0.801483	1.73481
H	0.22045	-1.80125	0.852615
H	2.983902	0.0	0.0
