16

C	-0.351312	0.202355	-1.480708
C	0.0	0.0	0.0
Cl	-0.048162	-1.284706	-2.416931
H	1.093314	0.0	0.0
H	-0.343429	0.908161	0.513268
N	-1.846279	0.480661	-1.587993
O	-2.624536	-0.451143	-1.383911
O	-2.19284	1.649969	-1.759274
C	0.462746	1.332707	-2.057526
H	0.23959	1.490088	-3.114615
H	1.51431	1.064922	-1.906106
H	0.259551	2.251177	-1.507379
N	-0.493865	-1.183091	0.66706
H	0.140323	-1.945043	0.462914
H	-1.41676	-1.435173	0.334691
H	2.921983	0.0	0.0
