16

C	-0.440544	0.14695	-1.438577
C	0.0	0.0	0.0
Cl	-0.251987	-1.414936	-2.296998
H	1.098703	0.0	0.0
H	-0.379492	-0.934476	0.419883
N	-1.946186	0.428016	-1.48471
O	-2.646905	-0.137829	-0.649404
O	-2.370654	1.182922	-2.355776
C	0.323566	1.225736	-2.157678
H	0.043643	1.288418	-3.208204
H	0.11797	2.174764	-1.66129
H	1.386081	0.990832	-2.040046
N	-0.428967	1.196652	0.727702
H	-1.195968	0.981702	1.349412
H	0.360438	1.517291	1.277422
H	2.932252	0.0	0.0
