16

C	-0.438629	0.014977	-1.446604
C	0.0	0.0	0.0
Cl	-0.227076	-1.614434	-2.163056
H	1.092977	0.0	0.0
H	-0.378675	-0.893075	0.502122
N	-1.946645	0.272652	-1.523978
O	-2.379214	0.912423	-2.480999
O	-2.642567	-0.198957	-0.627796
C	0.316262	1.034861	-2.255959
H	0.095547	2.021979	-1.84775
H	1.380553	0.824844	-2.112803
H	0.041357	0.998315	-3.308601
N	-0.432104	1.256931	0.615707
H	-1.197125	1.097083	1.256695
H	0.358033	1.629234	1.130864
H	2.93241	0.0	0.0
