13

C	-0.579248	-0.040399	-1.406724
C	0.0	0.0	0.0
Cl	-0.21882	1.44578	-2.30896
H	1.090466	0.0	0.0
H	-1.667799	-0.141425	-1.364465
H	-0.146547	-0.874346	-1.95374
N	-0.386305	-1.371	0.588364
O	0.000927	-2.368579	-0.013721
O	-1.079835	-1.395018	1.607426
N	-0.478875	1.07523	0.789216
H	-1.380656	0.86334	1.194556
H	0.180708	1.263955	1.531191
Cl	3.325364	0.0	0.0
