13

C	-0.59775	0.053554	-1.385543
C	0.0	0.0	0.0
Cl	0.147199	-1.083734	-2.534008
H	1.095744	0.0	0.0
H	-1.666642	-0.148202	-1.342766
H	-0.425993	1.055919	-1.778004
N	-0.462194	-1.215616	0.747475
O	-1.111677	-2.076929	0.156363
O	-0.15887	-1.264038	1.937689
N	-0.517733	1.146096	0.759627
H	0.036744	1.942089	0.458533
H	-0.236303	0.985985	1.722692
Cl	3.339097	0.0	0.0
