13

C	-0.524322	-0.112887	-1.434064
C	0.0	0.0	0.0
Cl	-0.297506	1.409074	-2.332145
H	1.089504	0.0	0.0
H	0.017986	-0.893061	-1.961393
H	-1.595912	-0.329432	-1.433581
N	-0.456158	-1.316674	0.618038
O	-1.305329	-1.300359	1.50472
O	0.01808	-2.335216	0.116765
N	-0.461578	1.091914	0.779155
H	0.242491	1.814902	0.790585
H	-1.347898	1.465217	0.472691
Cl	3.334812	0.0	0.0
