13

C	-0.534158	-0.01108	-1.428364
C	0.0	0.0	0.0
Cl	-0.076304	1.447283	-2.331021
H	1.090458	0.0	0.0
H	-0.116851	-0.866956	-1.954933
H	-1.626187	-0.064505	-1.421641
N	-0.459856	-1.378497	0.515703
O	0.134862	-2.36969	0.105587
O	-1.449789	-1.406998	1.255077
N	-0.511354	1.062906	0.78149
H	-1.471399	0.887689	1.049913
H	0.055012	1.181279	1.610507
Cl	3.335452	0.0	0.0
