13

C	-0.406945	0.042973	-1.452584
C	0.0	0.0	0.0
Cl	-2.186833	0.221284	-1.673736
H	1.095407	0.0	0.0
H	0.059528	0.916335	-1.906384
H	-0.107392	-0.861641	-1.969991
N	-0.420002	-1.345987	0.597403
O	-0.449429	-2.309872	-0.169176
O	-0.644386	-1.406839	1.799632
N	-0.459539	1.065996	0.814174
H	0.297451	1.682136	1.068093
H	-1.247894	1.561929	0.429456
Cl	3.282387	0.0	0.0
