13

C	-0.546639	-0.060947	-1.424751
C	0.0	0.0	0.0
Cl	-0.193791	1.441815	-2.313858
H	1.089502	0.0	0.0
H	-0.080593	-0.883152	-1.96731
H	-1.63258	-0.180265	-1.404062
N	-0.491682	-1.302206	0.598395
O	-1.649523	-1.303833	1.022719
O	0.247479	-2.280637	0.55387
N	-0.463738	1.07365	0.818332
H	-1.386501	1.399225	0.556734
H	0.20611	1.832475	0.777159
Cl	3.383957	0.0	0.0
