13

C	-0.586401	0.06826	-1.388098
C	0.0	0.0	0.0
Cl	0.091754	-1.139525	-2.50301
H	1.095751	0.0	0.0
H	-0.339786	1.046904	-1.800588
H	-1.665449	-0.060899	-1.350233
N	-0.469825	-1.217874	0.739453
O	-1.245131	-1.999827	0.190269
O	-0.056632	-1.330907	1.891673
N	-0.528483	1.130048	0.776137
H	-0.125281	1.034265	1.705368
H	-0.092193	1.962772	0.388189
Cl	3.34344	0.0	0.0
