18
Coordinates from ORCA-job run
  C   0.68664372489505      0.00995917139274      0.46075001795369
  C   -0.82375396746174     -0.08814476115382      0.23326815013789
  F   0.87243406174515      1.06317987440422      1.39803475928285
  H   -1.24987096469026     -0.30584578293579      1.23045156054674
  N   1.14167978161426     -1.22285129908763      1.01828091739916
  H   0.71684821750988     -1.36116259481539      1.92867522385141
  H   2.14767724920958     -1.21209182509371      1.13509543253543
  C   1.48480176651061      0.36902177102062     -0.77048750158954
  H   1.29088092445226     -0.35187955004163     -1.56250181531558
  H   1.21458783936422      1.36659979752517     -1.11510500960137
  H   2.55082208541849      0.37562077702959     -0.52794686096740
  N   -1.06448099249121     -1.14924875197777     -0.73861306079918
  H   -0.66537708389934     -2.01318837862793     -0.39154846893598
  H   -2.06100033929199     -1.28136122736829     -0.86307914951471
  C   -1.43762607058432      1.21050028099980     -0.26353938097099
  H   -1.16499358864003      2.04360362709451      0.38450521275353
  H   -2.52839482448051      1.12869449622624     -0.27195386730591
  H   -1.11187781918010      1.41759437540907     -1.28428615946002
