18
Coordinates from ORCA-job run
  C   0.77383647965300     -0.20648464515035      0.10192891955766
  C   -0.67077676290736      0.29233960673115     -0.07564703135996
  F   0.66421957684398     -1.33352860093765      0.94262513026727
  H   -0.60949250466338      1.21387148059570     -0.66838824367404
  N   1.42778309273926     -0.66302447433943     -1.09149289911527
  H   0.81667068674487     -1.21937120605708     -1.67260036699111
  H   1.79274006923899      0.11211944711131     -1.62693523381918
  C   1.65859380903523      0.79925075423796      0.80554262038196
  H   1.74695108022670      1.71297658956604      0.21141070721445
  H   2.64801567545333      0.35996728561027      0.93849831878537
  H   1.22800323602735      1.05972865875124      1.76895047428068
  N   -1.19249645722003      0.65685048317565      1.24144541312281
  H   -1.25564133304197     -0.18479816945676      1.80361900266475
  H   -2.12928994968526      1.03097037911462      1.14604689583094
  C   -1.54725979115173     -0.71844937249538     -0.82016268081056
  H   -2.58449844570802     -0.37440324826144     -0.82077544795879
  H   -1.51076873396023     -1.68925617782048     -0.32036751747236
  H   -1.25558972762471     -0.84875879037536     -1.86569806090464
