18
Coordinates from ORCA-job run
  C   0.63477464625426     -0.32784048058947      0.01674454106375
  C   -0.72943322963635      0.37766804096808     -0.09517950789640
  F   0.37293332963822     -1.61728819582503      0.53021752027297
  H   -0.53474987286139      1.39412851545815     -0.46299290741588
  N   1.21599129578303     -0.48827216898452     -1.28112321650341
  H   0.95108639765305      0.25039934512577     -1.91609128365363
  H   2.22364389095100     -0.55845714312660     -1.24356144984504
  C   1.57335744061350      0.31252784852520      1.02460388147549
  H   2.50997100220953     -0.25071231289799      1.04919267646860
  H   1.15326943213676      0.29526706386232      2.03022624524295
  H   1.79333638371434      1.34446419593591      0.73986058633978
  N   -1.43287043497885      0.50967065274200      1.17539562755769
  H   -0.92777467817849      1.11502449415701      1.80993199719756
  H   -1.49928689891522     -0.40542657634068      1.60728224425921
  C   -1.64842151674555     -0.34753998187364     -1.07302785810955
  H   -1.81735080426280     -1.36910427780245     -0.72674363266383
  H   -1.23262913108184     -0.40767833306398     -2.07883648830433
  H   -2.60584725229318      0.17316931372993     -1.10689897548592
