18
Coordinates from ORCA-job run
  C   0.72414626892392     -0.17059411293647      0.47990593424448
  C   -0.76829580181425      0.14973128168951      0.32718426583671
  F   0.87441933704555     -0.37348928338118      1.87948722115851
  H   -0.97517820434218      0.99464450643845      1.00232351738940
  N   1.11449197709411     -1.37104660318586     -0.17261963772372
  H   1.61410568810857     -1.21231287771353     -1.03314532772991
  H   0.31677577998571     -1.97944331075356     -0.30750811804571
  C   1.64456528569279      0.97809807408285      0.13206282292352
  H   1.35622030553414      1.87255665231222      0.68653500340050
  H   1.62779720279034      1.20127725621125     -0.93603292978599
  H   2.66053137414198      0.70446263930127      0.42180208065547
  N   -1.50114827403333     -1.06099232291137      0.70007312957489
  H   -2.49710679200488     -0.90602157524119      0.60083643220605
  H   -1.31512664121370     -1.26964975767955      1.67432507490827
  C   -1.13956703821767      0.53876307109173     -1.09374829505896
  H   -0.65822850956845      1.47028233842757     -1.39636381078852
  H   -2.22002159211240      0.68769342693804     -1.17543110307191
  H   -0.85738036601025     -0.25395940269020     -1.78968626009310
