18
Coordinates from ORCA-job run
  C   0.72458898142549      0.04107426062700      0.56225765654287
  C   -0.79315666335830     -0.07472289112705      0.36779191991417
  F   0.92894898277385      1.13965990341281      1.41454505281002
  H   -1.17540058670663     -0.25422354582746      1.37832828765402
  N   1.16713173401301     -1.13232688445624      1.25108446435100
  H   0.68316533296967     -1.92865133512523      0.85307589807043
  H   2.16630309863814     -1.26164794871959      1.15270189828502
  C   1.49625471925445      0.35802563557087     -0.70756933962489
  H   1.18672716939693      1.30863452102340     -1.14503134613038
  H   1.36996424018685     -0.44151395226932     -1.44082110515408
  H   2.55932300445322      0.43410032284978     -0.46461346548847
  N   -1.07504148186312     -1.27993983466400     -0.42009014470210
  H   -1.02844406761429     -1.06046749491233     -1.40930742351201
  H   -2.01792040171443     -1.59837708256625     -0.23391118603395
  C   -1.42307884381045      1.19889149075602     -0.18297114197181
  H   -1.13543350607814      1.36087077370518     -1.22596633643097
  H   -2.51272979803853      1.11936284023155     -0.14816571868634
  H   -1.12220191392772      2.07125122149085      0.39866203010749
