18
Coordinates from ORCA-job run
  C   0.77867186471267      0.03169654269316      0.51651785676655
  C   -0.73788374435401     -0.12381410388039      0.31098428630411
  F   0.93877017331820      1.04980290197156      1.46075381528013
  H   -1.12339468671351     -0.43130648506980      1.29113247479485
  N   1.39566059483832     -1.14333184891433      1.08854874407268
  H   1.10573055950209     -1.93417520497903      0.52196926083154
  H   1.00513222046912     -1.28142566908161      2.01590056818497
  C   1.52714058269213      0.43403615548713     -0.73540460568761
  H   1.44858506947059     -0.34434918953559     -1.49715223295334
  H   1.15087143999707      1.37560309734620     -1.13784048760309
  H   2.57827826369595      0.55388013975638     -0.47398107372911
  N   -0.94903581217143     -1.24838197123726     -0.60818938784839
  H   -0.94338749678398     -0.90950247689819     -1.56413222305137
  H   -1.86118509667236     -1.65791844160787     -0.44933814940512
  C   -1.44009452823834      1.16542995645709     -0.10306746473801
  H   -1.14925545571567      1.46130538563481     -1.11503154120593
  H   -1.19890105993679      1.98376019324259      0.57701470467582
  H   -2.52370288811004      1.01969101861516     -0.09868454468867
