18
Coordinates from ORCA-job run
  C   0.68750404311839     -0.13207203142930      0.36193506165114
  C   -0.80537962242679      0.22113452976563      0.38237713226894
  F   1.01490028140295     -0.38033724344047      1.73508700312318
  H   -0.89643352712991      1.05490307417694      1.08845085701569
  N   0.93242656820454     -1.29628205711780     -0.41408431188246
  H   1.92107346938867     -1.51454674995822     -0.42661588319823
  H   0.43825960059580     -2.08590617858223     -0.01857046626110
  C   1.58449758290940      1.00485808138517     -0.07366779966376
  H   2.62294250378031      0.75324571144103      0.15586210057901
  H   1.49329454284146      1.18454297221225     -1.14424887317338
  H   1.33092396859425      1.91537037512410      0.47207153840041
  N   -1.65326195329670     -0.85199226350181      0.88976181505723
  H   -1.25527542915131     -1.24240988625839      1.73516794493886
  H   -1.75540730370053     -1.58682900780738      0.19989416676250
  C   -1.31454870464907      0.65957468390494     -0.98116260109769
  H   -1.12418259834024     -0.11790942371629     -1.72473996690304
  H   -2.38947314090180      0.83797004578265     -0.91973105375318
  H   -0.83286028123942      1.57868536801916     -1.31778666386411
