18
Coordinates from ORCA-job run
  C   0.64818599151575      0.00158898814003      0.48183423210639
  C   -0.87697407916726     -0.06104445354449      0.29927991231358
  F   0.89517076086513      1.11167028665386      1.33739307833908
  H   -1.27972813316845     -0.19466375756458      1.31370598362422
  N   1.08339032720526     -1.20460372142925      1.10495198920400
  H   2.08842742377294     -1.20278039856966      1.23035284292456
  H   0.64783986823602     -1.29885032194590      2.01568921751500
  C   1.43538735813639      0.25638062205354     -0.78407051770385
  H   1.25554084759542     -0.53004469035129     -1.51698723182710
  H   1.16922764710651      1.22302679878460     -1.21062394847694
  H   2.50333130086094      0.27732525300044     -0.55276395505848
  N   -1.32399022626623     -1.19478176955758     -0.50012815026964
  H   -0.79420364186749     -2.01733321762163     -0.23570341601233
  H   -1.14347126162879     -1.01387305421154     -1.48084894906407
  C   -1.46056808345074      1.22375929669288     -0.26498872648191
  H   -1.16073590039700      1.36790170477068     -1.30738731412693
  H   -2.54978361046469      1.16473503494714     -0.23917506124579
  H   -1.13604658888373      2.08958739975273      0.31147001424022
