18
Coordinates from ORCA-job run
  C   0.66309647337594     -0.21524009095006      0.01520840219755
  C   -0.74335545179770      0.40518117711539     -0.05028681093715
  F   0.47337729885752     -1.55677349685084      0.48074808047913
  H   -0.60346014503307      1.46349912901406     -0.29544519998898
  N   1.28224546890661     -0.21281093827223     -1.26265198566449
  H   0.76053664256600     -0.78041935353680     -1.91722971267633
  H   2.22397120230486     -0.58038657825015     -1.20221520365066
  C   1.56951111400300      0.44764556956985      1.03015690884270
  H   1.14535804810450      0.37083187760119      2.03028141574118
  H   1.72133410281639      1.49736406103292      0.77420331444790
  H   2.53917977693141     -0.05613318767465      1.04363153297698
  N   -1.47210347719349      0.33624255685019      1.21328061919645
  H   -1.04162276965467      0.93081839382576      1.90982885285463
  H   -1.43919390639202     -0.61621526614920      1.55881610394501
  C   -1.59933410521799     -0.24005946865389     -1.13581704032140
  H   -1.64155939798044     -1.32335141663332     -0.99518125137156
  H   -2.61244337607274      0.15385419123664     -1.05760169012788
  H   -1.22553749852413     -0.02504715927486     -2.13872633594309
