18
Coordinates from ORCA-job run
  C   0.66012411077959      0.06429174287993      0.56711450383906
  C   -0.85606761119120     -0.02523978370472      0.30347205201715
  F   0.81073907825494      1.16401068012344      1.43367869571195
  H   -1.30161030328732     -0.15638496301347      1.29990962268058
  N   1.18070324691414     -1.07868505954810      1.25522879880310
  H   1.60098824597022     -1.76006753595244      0.64258350908442
  H   0.50391140167632     -1.51338909741322      1.86790555269654
  C   1.50222177084041      0.35211414945562     -0.65764361982014
  H   2.55493144828382      0.34838012303746     -0.36954070800794
  H   1.34536416033420     -0.39732541002376     -1.43653634201445
  H   1.26130936471220      1.33580698551791     -1.05868733154011
  N   -1.26214414027869     -1.16946666393136     -0.50499637154272
  H   -0.97000080027526     -1.04043814142970     -1.46660271096404
  H   -0.83990655312598     -2.02265613880501     -0.16024658562400
  C   -1.43390058820004      1.24060124184158     -0.30913249917164
  H   -1.14625265391459      2.11958756458310      0.26674143223799
  H   -2.52222246423617      1.16682441262704     -0.33341456672334
  H   -1.08718771325660      1.37203589375568     -1.33883343166243
