13
Coordinates from ORCA-job run
  C   0.67452502080205      0.36422943599566      0.55798084104855
  C   -0.58874003224022     -0.39489522546670      0.17057686929425
  F   0.49053171643935      1.68921985688356      0.42323144799433
  H   -0.34302315246120     -1.45243424799113      0.04055758643065
  H   0.96494217675881      0.12662369212841      1.58390055507187
  N   1.84349422873593     -0.08544365512040     -0.29981497413747
  O   2.51043510970859      0.77201452240347     -0.84860897057763
  O   2.02068441598705     -1.29750421199597     -0.29701128934906
  N   -1.07386315480330      0.09003683988993     -1.18849451917575
  O   -2.26452658702712      0.32854774396691     -1.31643837779686
  O   -0.20157501793338      0.15798547159331     -2.04414188764566
  C   -1.62376071334775     -0.21523244205965      1.17818243026108
  N   -2.41012401061881     -0.08314778022738      2.04008028858170
