13
Coordinates from ORCA-job run
  C   0.77055286013426     -0.49824695282418     -0.04411495699966
  C   -0.60540098907050      0.10153093759736      0.20257920550079
  F   0.87002893464976     -1.64576869506284      0.66365117995396
  H   -0.76304303337145      0.21678639002702      1.27689327882356
  H   0.98263198019514     -0.67233714415114     -1.09738584319919
  N   1.78754513709929      0.48244688774828      0.47925892686987
  O   2.46071900084633      1.06809331741324     -0.36270205762715
  O   1.82265324770776      0.61683101924204      1.69710650534617
  N   -1.63506215709025     -0.89839789439662     -0.28915753986095
  O   -1.49059464866567     -1.29051869578700     -1.44004785582233
  O   -2.50828300174402     -1.21363902090262      0.50683435030714
  C   -0.78076407556394      1.35835788820738     -0.51007123516764
  N   -0.91098325512670      2.37486196288908     -1.08384395812456
