13
Coordinates from ORCA-job run
  C   0.75067747115075     -0.54220401702516      0.51792063359738
  C   -0.72894252893991     -0.24627899216178      0.28311224014947
  F   0.98483195735629     -0.60168358825005      1.84399455830275
  H   -1.29727797584005     -0.96120235882383      0.88658916121667
  H   1.05051064482788     -1.47021312844680      0.03093158870762
  N   1.58226064875457      0.56426240248357     -0.08848355353440
  O   2.45000070689115      1.07765510250401      0.59690884426699
  O   1.28894272540182      0.81311128342056     -1.25338931860204
  N   -1.11342903517644     -0.55884562582366     -1.15486479721163
  O   -0.76519016712071     -1.66769342258759     -1.53852028899622
  O   -1.75730001944305      0.27408120371475     -1.77000244798130
  C   -1.08356123710103      1.11593229906055      0.64940895809727
  N   -1.36052319076126      2.20307884193542      0.99639442198744
