13
Coordinates from ORCA-job run
  C   0.69490186369863      0.30017537618393      0.57253316588663
  C   -0.59418550854040     -0.39636317431098      0.15272482083523
  F   0.53892617780186      1.63538637084131      0.55309967042809
  H   -0.37815092045091     -1.44616079692955     -0.06398409938098
  H   1.00103250225817     -0.02925750220369      1.56815264807637
  N   1.83420006330296     -0.10094133168321     -0.34728578629374
  O   1.98235289980874     -1.31250941505032     -0.44992851294714
  O   2.50681588273662      0.78504447647461     -0.84053459379145
  N   -1.09373163086688      0.20386781311945     -1.15444817012266
  O   -2.28364520757640      0.46355802541934     -1.24284731101364
  O   -0.23446361032459      0.33330774235276     -2.01614820321858
  C   -1.60488283911619     -0.26787731974100      1.19224249846308
  N   -2.37016967273160     -0.16923026447266      2.07742387307878
