13
Coordinates from ORCA-job run
  C   0.75534565408433     -0.65512918512745      0.35732613572333
  C   -0.71438117276364     -0.24189779271752      0.31949491641278
  F   1.10704774962737     -0.92107444855140      1.63102910649281
  H   -1.27400211981945     -1.00332457006821      0.87205755305448
  H   0.93950705644897     -1.51813895902802     -0.28265350859515
  N   1.60496661725885      0.47727158363413     -0.17100222382023
  O   1.22402132887119      0.90895234390927     -1.25428085900348
  O   2.56661418262504      0.83477989755625      0.48760754265963
  N   -1.25292711542841     -0.31725826758220     -1.10083240216351
  O   -1.02510892694799     -1.37735351030423     -1.66856684662766
  O   -1.88747834787451      0.63379910718700     -1.52454531830771
  C   -0.93382429114455      1.06993391752979      0.90813919978124
  N   -1.10978061493721      2.10843988356259      1.42722670439349
