13
Coordinates from ORCA-job run
  C   0.76615410879879      0.25637729077782      0.49977683136995
  C   -0.64973015658228     -0.23651688746833      0.22633920084450
  F   0.86782911812402      1.57150746117869      0.23888595818216
  H   -0.64656542268128     -1.32949260797345      0.19461484233307
  H   1.04896345954988      0.05490307931200      1.53553601269678
  N   1.76506671408338     -0.51669144903124     -0.34200962416776
  O   1.67440083613363     -1.73251644120294     -0.22293484629745
  O   2.57468020013201      0.11806771873505     -0.99221802687549
  N   -1.08453773667492      0.21988839498502     -1.15938673747082
  O   -2.19829924996391      0.70616061586183     -1.27628674648817
  O   -0.26221217983968      0.01409064252822     -2.04209259566090
  C   -1.57072113587862      0.25585259896329      1.24043813101594
  N   -2.28502855520101      0.61736958333406      2.09933760051818
