13
Coordinates from ORCA-job run
  C   0.72757518416168      0.30577854087274      0.57684165149579
  C   -0.63403884977972     -0.27959242792894      0.21105544324578
  F   0.80158804227703      1.63356035517322      0.35465826211424
  H   -0.60843778191290     -1.36319633951540      0.35005374137498
  H   0.95028235139615      0.09841442231198      1.62560767342573
  N   1.83067240819054     -0.35012992685843     -0.21679448380474
  O   1.56448252874890     -0.70505761356404     -1.36186426246180
  O   2.91351368985881     -0.42988140939292      0.35317958566041
  N   -1.03575733483621     -0.06031247566474     -1.23907186914105
  O   -1.03750332760404      1.09698924360197     -1.63070181444598
  O   -1.35680034869742     -1.06476589529374     -1.85695310904894
  C   -1.65396639134288      0.32168077016351      1.06307823037821
  N   -2.46161017045994      0.79651275609477      1.77091095120737
