13
Coordinates from ORCA-job run
  C   0.75420228348314     -0.52238722257703      0.53438843905495
  C   -0.72694996722463     -0.25539216763299      0.27667104929559
  F   0.97163138857406     -0.56180720839758      1.86399237878142
  H   -1.29076595932221     -0.97312426339780      0.88106502950645
  H   1.07656821791913     -1.45064486172448      0.06247775359536
  N   1.57437189437772      0.59141667678257     -0.07448185164126
  O   1.29174998394982      0.82182254978537     -1.24576292292456
  O   2.42422566306890      1.12746810960465      0.61592062439795
  N   -1.08727699678542     -0.59153103807948     -1.16237603989050
  O   -0.71356162681926     -1.69802605757843     -1.52830810405876
  O   -1.73979646662309      0.22150894413437     -1.79459859078455
  C   -1.11071668781321      1.10427912283923      0.62260314409741
  N   -1.42168172678494      2.18841741624161      0.94940909057050
