13
Coordinates from ORCA-job run
  C   0.85537568834395     -0.13411256962993     -0.30285716609781
  C   -0.58935456197123     -0.21009593930466      0.16727531262664
  F   1.29162559512257     -1.38999856261227     -0.54826671053853
  H   -0.65709585963939     -0.88758668751193      1.02072899778064
  H   0.99215976210742      0.50141992009452     -1.17583852778635
  N   1.66612798896019      0.44700020511948      0.82620841672041
  O   2.10392561402044      1.57988887829263      0.65417658416799
  O   1.78718509277107     -0.26367000034988      1.81753536851204
  N   -1.40147156318787     -0.82998285070306     -0.95397853694037
  O   -1.29227133802891     -0.29598013824960     -2.05040701533407
  O   -2.08505992669591     -1.79958122802062     -0.65682898952916
  C   -1.12482795032890      1.10774767737312      0.47498860184776
  N   -1.54531854147343      2.17495129550220      0.72726366457080
