13
Coordinates from ORCA-job run
  C   0.85258265295525     -0.29697087777908     -0.16490486496330
  C   -0.61086782451249     -0.08978494596343      0.19439541518564
  F   1.19167023605455     -1.57027938629816      0.13738319801469
  H   -0.76972017201107     -0.36451264926597      1.23909933184414
  H   1.07702518642163     -0.07223102721222     -1.20595037552091
  N   1.66293869490520      0.63581528414147      0.69708282398746
  O   1.67386912938595      0.38016626403572      1.89599791817772
  O   2.21159297263759      1.57011379558841      0.12181822385043
  N   -1.42849059316687     -1.05315205670268     -0.64485697528131
  O   -1.23286350499014     -1.00674789917005     -1.85265027172874
  O   -2.20254008639010     -1.77950456556207     -0.03754984463457
  C   -1.04379038282720      1.27225652342034     -0.08079312647774
  N   -1.38140630846231      2.37583154076771     -0.29907145245350
