16

C	-0.476863	0.005569	-1.428491
C	0.0	0.0	0.0
Br	0.503684	-1.226539	-2.536826
H	1.092551	0.0	0.0
H	-0.374767	0.994929	-1.862397
N	-1.957623	-0.312837	-1.477179
O	-2.343752	-1.462426	-1.657021
O	-2.682834	0.650395	-1.226334
C	-0.467172	-1.180184	0.818659
H	0.083889	-1.193471	1.757917
H	-1.539457	-1.161354	1.037041
H	-0.228466	-2.094371	0.272553
N	-0.371539	1.288404	0.632474
O	-0.24985	2.319797	-0.030556
O	-0.70361	1.274582	1.820985
F	2.498139	0.0	0.0
