16

C	-0.32203	-0.008704	-1.469227
C	0.0	0.0	0.0
Br	0.071251	-1.715481	-2.301952
H	1.093284	0.0	0.0
H	0.274495	0.72793	-1.997174
N	-1.758144	0.310573	-1.820217
O	-1.950765	0.875913	-2.892624
O	-2.631254	-0.023365	-1.023819
C	-0.481112	-1.115547	0.898132
H	0.027301	-1.015648	1.856374
H	-0.184771	-2.070871	0.465467
H	-1.561394	-1.103993	1.054948
N	-0.39512	1.317201	0.522622
O	-0.526284	2.247504	-0.285319
O	-0.518223	1.451661	1.74022
F	2.500085	0.0	0.0
