16

C	-0.33925	-0.06058	-1.469324
C	0.0	0.0	0.0
Br	0.39437	-1.627649	-2.324406
H	1.103601	0.0	0.0
H	0.063823	0.80762	-1.97941
N	-1.829115	-0.028107	-1.711606
O	-2.287328	1.061402	-2.061356
O	-2.491901	-1.03363	-1.47346
C	-0.5511	-1.089089	0.883253
H	-0.113277	-0.984897	1.876088
H	-1.640052	-1.068597	0.974687
H	-0.244757	-2.054503	0.477821
N	-0.381665	1.348711	0.485024
O	-0.898575	1.448079	1.602298
O	-0.108035	2.317393	-0.228917
F	2.496983	0.0	0.0
