16

C	-0.558423	0.096083	-1.40553
C	0.0	0.0	0.0
Br	0.521198	1.172602	-2.601408
H	1.097994	0.0	0.0
H	-1.563286	0.507777	-1.44518
N	-0.681882	-1.292112	-1.974863
O	-1.811996	-1.781493	-1.900461
O	0.311824	-1.860538	-2.405354
C	-0.355742	-1.275955	0.747455
H	-1.432781	-1.456313	0.834526
H	0.088489	-1.202847	1.737794
H	0.119483	-2.117191	0.241888
N	-0.456294	1.174051	0.763003
O	-0.958809	2.128832	0.155253
O	-0.272651	1.169127	1.981718
F	2.488015	0.0	0.0
