16

C	-0.512867	0.100893	-1.401715
C	0.0	0.0	0.0
Br	-2.472148	0.023661	-1.548808
H	1.104628	0.0	0.0
H	-0.145568	-0.760473	-1.956603
N	0.009445	1.28887	-2.200359
O	-0.734142	2.204565	-2.518471
O	1.196282	1.180118	-2.485048
C	-0.350306	-1.326351	0.643062
H	-1.417216	-1.444685	0.847972
H	0.207442	-1.413408	1.574221
H	-0.010978	-2.127455	-0.01883
N	-0.439142	1.132442	0.823241
O	-0.74209	0.927266	2.001836
O	-0.418397	2.251302	0.302939
F	2.478464	0.0	0.0
