16

C	-0.47728	-0.045838	-1.420893
C	0.0	0.0	0.0
Br	-2.420525	0.141242	-1.635383
H	1.093449	0.0	0.0
H	-0.233454	-1.023779	-1.828162
N	0.229702	0.912435	-2.370097
O	1.337788	0.509877	-2.708154
O	-0.310189	1.946472	-2.733421
C	-0.433654	-1.218238	0.784785
H	-0.056649	-2.106923	0.272146
H	-1.518012	-1.292007	0.906432
H	0.031289	-1.185002	1.769432
N	-0.419118	1.248385	0.658087
O	-0.87518	1.196018	1.803625
O	-0.238048	2.295654	0.035587
F	2.486721	0.0	0.0
