16

C	-0.470434	0.008344	-1.430611
C	0.0	0.0	0.0
Br	0.515937	-1.220267	-2.536601
H	1.09254	0.0	0.0
H	-0.364338	0.998281	-1.86115
N	-1.951362	-0.306319	-1.48926
O	-2.339718	-1.449593	-1.696521
O	-2.675	0.653443	-1.220938
C	-0.474468	-1.180342	0.813302
H	-0.234007	-2.093584	0.267019
H	0.069699	-1.196289	1.75582
H	-1.54822	-1.160062	1.024222
N	-0.370757	1.288161	0.631626
O	-0.712543	1.274557	1.816445
O	-0.235436	2.319602	-0.027864
F	2.497999	0.0	0.0
