16

C	-0.353006	-0.027083	-1.453841
C	0.0	0.0	0.0
Br	-2.26009	-0.305587	-1.892191
H	1.093969	0.0	0.0
H	0.184571	-0.851231	-1.915201
N	0.095341	1.195637	-2.214109
O	1.052414	1.037003	-2.965549
O	-0.518043	2.239538	-2.035174
C	-0.4218	-1.271577	0.704461
H	0.081805	-2.109033	0.215611
H	-0.06017	-1.232625	1.733525
H	-1.499912	-1.434836	0.711709
N	-0.531646	1.193426	0.699819
O	0.125084	2.230051	0.627221
O	-1.584159	1.08315	1.335575
F	2.50735	0.0	0.0
