16

C	-0.482531	0.152043	-1.407766
C	0.0	0.0	0.0
Br	-2.442509	0.146512	-1.597379
H	1.103029	0.0	0.0
H	-0.131061	-0.702975	-1.98098
N	0.085653	1.347125	-2.159791
O	1.236947	1.167231	-2.536458
O	-0.599905	2.338465	-2.355731
C	-0.415539	-1.323743	0.603798
H	0.112065	-1.457102	1.547828
H	-0.093976	-2.12337	-0.06874
H	-1.490453	-1.403814	0.780838
N	-0.413337	1.135549	0.841134
O	-0.922188	0.911046	1.944079
O	-0.157205	2.265172	0.417342
F	2.482196	0.0	0.0
