15

C	-0.644213	-0.140915	-1.342143
C	0.0	0.0	0.0
F	-0.104193	-1.184825	-2.03946
H	1.096715	0.0	0.0
H	-1.73528	-0.245211	-1.321502
N	-0.407049	1.121481	-2.130112
O	0.722247	1.314309	-2.563704
O	-1.386477	1.850093	-2.312448
N	-0.468869	-1.117741	0.87873
O	-1.36412	-1.87288	0.483184
O	0.039954	-1.215547	1.9863
N	-0.289066	1.286037	0.584844
H	0.554839	1.579998	1.077761
H	-1.074482	1.292328	1.23529
F	2.503845	0.0	0.0
