15

C	-0.454978	0.021097	-1.431483
C	0.0	0.0	0.0
F	0.192042	0.972776	-2.139647
H	1.092626	0.0	0.0
H	-0.343177	-0.945447	-1.920943
N	-1.93842	0.355016	-1.508521
O	-2.658039	-0.304748	-0.760035
O	-2.319484	1.210956	-2.296271
N	-0.388894	-1.303081	0.617554
O	-0.223818	-2.325083	-0.051594
O	-0.797143	-1.298075	1.780991
N	-0.466148	1.139132	0.718676
H	0.236889	1.380748	1.405339
H	-1.33392	0.939678	1.199976
F	2.508238	0.0	0.0
