15

C	-0.549352	-0.135765	-1.409962
C	0.0	0.0	0.0
F	0.387192	-0.548395	-2.299736
H	1.097407	0.0	0.0
H	-1.411922	-0.79704	-1.491393
N	-1.056307	1.209284	-1.863275
O	-2.211017	1.466699	-1.529492
O	-0.309929	1.932939	-2.505071
N	-0.399723	-1.226662	0.747859
O	-0.61478	-1.132702	1.958713
O	-0.436925	-2.288979	0.120221
N	-0.350399	1.213455	0.661648
H	-1.216104	1.145197	1.180424
H	0.404748	1.441968	1.293876
F	2.488465	0.0	0.0
