15

C	-0.32343	0.003949	-1.474257
C	0.0	0.0	0.0
F	-0.126373	1.269076	-1.971887
H	1.102149	0.0	0.0
H	0.268581	-0.702846	-2.046816
N	-1.77051	-0.299252	-1.802209
O	-2.624408	0.185017	-1.058597
O	-2.001845	-0.95057	-2.81708
N	-0.435981	-1.308673	0.554751
O	-0.588203	-2.226787	-0.265997
O	-0.546863	-1.444983	1.766276
N	-0.452155	1.094938	0.777178
H	0.301481	1.756389	0.885739
H	-1.287853	1.52989	0.418614
F	2.515743	0.0	0.0
