15

C	-0.439632	0.069373	-1.442867
C	0.0	0.0	0.0
F	-1.740446	0.513401	-1.575066
H	1.089823	0.0	0.0
H	0.222924	0.758391	-1.965588
N	-0.356	-1.228271	-2.204856
O	-1.373707	-1.907845	-2.277584
O	0.730975	-1.482895	-2.709126
N	-0.559522	-1.225014	0.657137
O	-1.374511	-1.113982	1.571039
O	-0.135966	-2.298641	0.225756
N	-0.36252	1.180847	0.711633
H	-1.183301	1.654852	0.36735
H	0.44444	1.785425	0.7629
F	2.525182	0.0	0.0
