13
Coordinates from ORCA-job run
  C   -0.23765315796725      0.18635810121576      0.57552549871556
  C   0.81016920138999     -0.72588218138397     -0.07031688718077
  F   -0.22929161209261     -0.07012599527760      1.93887664896225
  H   0.51232190507660     -1.76224719016942      0.11403199919976
  H   0.82635342154298     -0.56280307056642     -1.15160535268877
  C   0.12474214095865      1.60107633969746      0.37509370159652
  N   0.38824410156670      2.72833866986382      0.17936216682063
  C   -1.63190146429745     -0.08974782063146      0.04533569831161
  H   -2.35164735058602      0.54083369579055      0.56837849366829
  H   -1.69025417038267      0.11864248641475     -1.02438669330540
  H   -1.88339123073910     -1.13645577139972      0.22711444940335
  C   2.14504720167352     -0.50394414623217      0.47994448430023
  N   3.21726101385667     -0.32504311732158      0.92064579219673
