13
Coordinates from ORCA-job run
  C   -0.16896010720463      0.31763641709258      0.69430337735824
  C   1.18800458007641     -0.07582277081235      0.09420097214016
  F   -0.21613780097232     -0.19043973357621      1.98496670507151
  H   1.98042860195698      0.29063706749587      0.75220681095532
  H   1.31367152993526      0.40037151484276     -0.88227818238747
  C   -0.22106431060469      1.78903459831514      0.78487943815987
  N   -0.25593517273485      2.96181018447602      0.82535576698597
  C   -1.35709350762898     -0.21942870596122     -0.07785140982784
  H   -1.35668975732252      0.15949437012542     -1.10170737317418
  H   -1.31099816936325     -1.30941954924372     -0.09441986528022
  H   -2.27952146488001      0.08947134581721      0.41495073860200
  C   1.30431561385616     -1.52496891681444     -0.04618377038199
  N   1.37997996488647     -2.68937582175707     -0.16742320822135
