13
Coordinates from ORCA-job run
  C   -0.29136937784326      0.21839197753728      0.78669865410058
  C   0.92956614823200     -0.70474834252004      0.67671263490666
  F   -0.80815124847217      0.01183389390504      2.06084429914894
  H   1.64224288769294     -0.44874147261438      1.46510111507550
  H   0.58937654391376     -1.73010931987531      0.84845661390029
  C   0.13140623461843      1.62759330989529      0.69635455207570
  N   0.47179472606035      2.74836203287608      0.61518646017929
  C   -1.37045214854912     -0.09320960828638     -0.22971224218587
  H   -1.00910273653136      0.07743407615087     -1.24476281378233
  H   -1.67066925892049     -1.13763628919554     -0.12285267425299
  H   -2.23605956892840      0.54448877648047     -0.04710094311602
  C   1.56750872630835     -0.60274418038774     -0.63128757465966
  N   2.05490907241898     -0.51091485396566     -1.69463808139009
