13
Coordinates from ORCA-job run
  C   -0.22964657081880      0.19040217280236      0.57928474570118
  C   0.78951923900935     -0.74166393090648     -0.08382603554934
  F   -0.20970841154003     -0.07247857414523      1.94143698029397
  H   0.79815325233305     -0.57129507892967     -1.16409328481461
  H   0.46954675115598     -1.77203444310811      0.09641162864743
  C   0.16248802307724      1.59733052456767      0.37995307149738
  N   0.45218689869041      2.71769586267049      0.18135113381590
  C   -1.63634773839852     -0.05168160586605      0.06592441998472
  H   -1.70566788972719      0.17171419449084     -1.00011757574743
  H   -1.90707620862779     -1.09534824585362      0.23786948023662
  H   -2.33482816294539      0.58706717309076      0.60744748345615
  C   2.13523506853290     -0.55470138959043      0.45312718864149
  N   3.21614574925881     -0.40500665922252      0.88323076383655
