13
Coordinates from ORCA-job run
  C   -0.22709635543053      0.18648856908321      0.58330271886907
  C   0.79337859730580     -0.72984451183843     -0.09960391598615
  F   -0.18079389271369     -0.07985587949576      1.94411315733071
  H   0.78098697228527     -0.55709224624428     -1.17940465698903
  H   0.49119424575732     -1.76504289720917      0.08399966040301
  C   0.14267223096789      1.59926206899606      0.38198823790825
  N   0.41712107330601      2.72373967754251      0.18548513058689
  C   -1.63870949459133     -0.07401099063348      0.09300540872530
  H   -2.33673781400336      0.56021629281280      0.64023699498494
  H   -1.89420584424807     -1.11936688785749      0.27678880143392
  H   -1.72674995111706      0.14045671316941     -0.97341224022280
  C   2.14521595807912     -0.52516975441292      0.41513356955220
  N   3.23172427440264     -0.36078015391245      0.82536713340369
