13
Coordinates from ORCA-job run
  C   -0.23488973670911      0.23881422100588      0.54341038792781
  C   0.80002838226730     -0.77427196737148      0.04382318049437
  F   -0.22402023635625      0.19618182721411      1.93025945132319
  H   0.48999894112754     -1.76670585862689      0.38360442730373
  H   0.81552202207126     -0.77767208989531     -1.04970739626627
  C   0.14343811234662      1.60093659903839      0.12574975784557
  N   0.42319694743014      2.67911652493446     -0.24518645195847
  C   -1.63422607121465     -0.09973608790917      0.06563484929415
  H   -2.34462447527627      0.61125077927097      0.48863114719676
  H   -1.69554740795478     -0.05607900352202     -1.02313720671800
  H   -1.89580883503346     -1.10372625975593      0.40531912873535
  C   2.13943048090064     -0.48822751930291      0.55170466074560
  N   3.21650187640101     -0.26088116508012      0.95689406407619
