13
Coordinates from ORCA-job run
  C   -0.27523871285122      0.21144565464099      0.79693354592819
  C   0.92318989563082     -0.73378461537979      0.63763324897025
  F   -0.76563490736048     -0.01244248661380      2.07866290691176
  H   1.65574530875812     -0.51357833275239      1.41855099106323
  H   0.56533295917421     -1.75636914493907      0.78879145371253
  C   0.17469476598232      1.61320159222890      0.72641281652865
  N   0.53496636669374      2.72877245542317      0.66085085973157
  C   -1.38494672133771     -0.05621215002844     -0.19883453400903
  H   -1.70958804077027     -1.09387211537201     -0.09894744327979
  H   -1.04282351361720      0.11946928169568     -1.21970399876541
  H   -2.22913867182806      0.60086894218553      0.01232096323909
  C   1.53931272762654     -0.60921386731948     -0.67873596279164
  N   2.01412854389918     -0.49828521376928     -1.74593484723939
