13
Coordinates from ORCA-job run
  C   -0.30282565966660      0.21044248509974      0.78349838245325
  C   0.92568532661908     -0.70360413658109      0.68494679439144
  F   -0.84052196422150     -0.01443523043324      2.04605161006066
  H   1.62066397543490     -0.45379080870852      1.49085624670479
  H   0.58886339401511     -1.73326032619946      0.83632790471303
  C   0.11167663777597      1.62333355151924      0.71668351515277
  N   0.44287514340240      2.74779333051700      0.65087459959165
  C   -1.36190186735881     -0.09637496065278     -0.25513648479278
  H   -2.23501129321113      0.53329181981762     -0.08046478379385
  H   -0.98406715571891      0.08844680465117     -1.26170902015946
  H   -1.65659133180239     -1.14398652407521     -0.16530486468714
  C   1.58953904511499     -0.58151367192945     -0.60831048470054
  N   2.10061574961688     -0.47634233302501     -1.65931341493382
