13
Coordinates from ORCA-job run
  C   -0.29306209404064      0.20879372897071      0.79001242193476
  C   0.92003188932066     -0.72271885859427      0.66703294474874
  F   -0.82174392701461     -0.02511939007774      2.05476920225814
  H   1.63000132588662     -0.49129463124720      1.46526546705928
  H   0.56851538565385     -1.74799987717921      0.81409343922870
  C   0.14200962901818      1.61596050894598      0.73718890142532
  N   0.49000642056672      2.73593153966959      0.67950968139728
  C   -1.36700339925818     -0.06746425125798     -0.24204669607119
  H   -1.67390577419555     -1.11274214509127     -0.16700811573203
  H   -0.99827097324051      0.13024694055267     -1.24956230079924
  H   -2.22994712492816      0.57010431246835     -0.04647800572366
  C   1.56829481702121     -0.59950013553300     -0.63397861518576
  N   2.06507382521042     -0.49519774162664     -1.69179832454034
