15

C	-0.47475	-0.02709	-1.432698
C	0.0	0.0	0.0
Br	0.266515	1.428665	-2.498892
H	1.092951	0.0	0.0
H	-0.315926	-0.949697	0.448469
C	-0.14509	-1.278988	-2.106981
N	0.104372	-2.284971	-2.661724
N	-2.009517	0.090307	-1.437425
O	-2.520357	1.19882	-1.532043
O	-2.606545	-0.962087	-1.210591
C	-0.507384	1.182158	0.809116
H	-0.278932	2.125324	0.309138
H	-1.583682	1.146471	1.007062
H	0.023702	1.183518	1.764934
H	2.768176	0.0	0.0
