15

C	-0.477057	-0.022321	-1.431075
C	0.0	0.0	0.0
Br	0.275124	1.432297	-2.49129
H	1.092922	0.0	0.0
H	-0.316114	-0.949883	0.447635
C	-0.156656	-1.275297	-2.107166
N	0.091822	-2.282569	-2.659602
N	-2.010632	0.108	-1.433566
O	-2.617933	-0.941473	-1.22164
O	-2.510885	1.222385	-1.51226
C	-0.502625	1.182847	0.811201
H	0.037597	1.186334	1.761816
H	-1.576929	1.146303	1.018836
H	-0.279789	2.125276	0.307029
H	2.76328	0.0	0.0
