15

C	-0.481125	-0.055911	-1.426304
C	0.0	0.0	0.0
Br	0.258501	1.380961	-2.522281
H	1.106379	0.0	0.0
H	-0.310004	-0.941069	0.47008
C	-0.155708	-1.320837	-2.077739
N	0.104353	-2.335087	-2.61366
N	-2.015107	0.068612	-1.427412
O	-2.521432	1.179403	-1.516215
O	-2.616716	-0.980759	-1.198441
C	-0.498781	1.198983	0.788906
H	0.041006	1.216812	1.738885
H	-0.270504	2.130746	0.268642
H	-1.57278	1.172877	0.996388
H	2.745873	0.0	0.0
