15

C	-0.483736	-0.133403	-1.415808
C	0.0	0.0	0.0
Br	0.140741	1.358264	-2.518671
H	1.101268	0.0	0.0
H	-0.338649	0.973119	0.369758
C	-0.068524	-1.373339	-2.062518
N	0.275613	-2.366294	-2.589551
N	-2.018688	-0.093875	-1.418191
O	-2.599245	-1.166728	-1.580692
O	-2.552091	0.972988	-1.141636
C	-0.477329	-1.139596	0.890801
H	0.011712	-1.029169	1.862343
H	-1.561239	-1.156721	1.045025
H	-0.16832	-2.106272	0.485423
H	2.763654	0.0	0.0
