15

C	-0.480163	0.003721	-1.424916
C	0.0	0.0	0.0
Br	0.125849	1.605992	-2.369924
H	1.093717	0.0	0.0
H	-0.343607	0.931034	0.461702
C	-0.046317	-1.160503	-2.189644
N	0.309943	-2.095466	-2.807152
N	-2.014918	0.023682	-1.429243
O	-2.560573	1.044364	-1.028789
O	-2.583081	-1.027861	-1.723924
C	-0.479969	-1.2229	0.771336
H	-1.565119	-1.254988	0.917031
H	-0.166841	-2.144799	0.274683
H	0.002864	-1.208281	1.752365
H	2.776488	0.0	0.0
