18

C	-0.680667	-0.074198	-1.370082
C	0.0	0.0	0.0
Cl	-0.055602	-1.523259	-2.203589
H	1.096365	0.0	0.0
C	-2.184214	-0.168183	-1.291113
H	-2.616816	-0.315138	-2.278173
H	-2.419631	-1.021972	-0.656167
H	-2.592612	0.749468	-0.863675
N	-0.268411	1.085746	-2.278084
O	-1.167429	1.654109	-2.898549
O	0.923896	1.33354	-2.357151
N	-0.332576	-1.173901	0.77676
H	-0.919835	-0.913493	1.560203
H	0.547144	-1.51594	1.151691
N	-0.436857	1.237977	0.694398
O	-0.570207	1.21025	1.921351
O	-0.604751	2.255499	0.015388
F	2.492999	0.0	0.0
