18

C	-0.332711	0.009942	-1.478864
C	0.0	0.0	0.0
Cl	0.218296	1.480213	-2.321147
H	1.091338	0.0	0.0
C	0.392369	-1.163388	-2.11625
H	1.428872	-1.074726	-1.77614
H	0.3197	-1.106088	-3.201473
H	-0.029604	-2.097253	-1.748064
N	-1.830137	-0.124037	-1.744487
O	-2.582314	-0.121215	-0.77051
O	-2.189581	-0.269892	-2.908532
N	-0.372309	-1.250907	0.600253
H	-1.288727	-1.19921	1.024654
H	0.317588	-1.465603	1.307704
N	-0.508498	1.160764	0.793805
O	-0.951937	2.160037	0.230845
O	-0.425012	1.04068	2.018154
F	2.55348	0.0	0.0
