18

C	-0.541999	-0.018992	-1.447933
C	0.0	0.0	0.0
Cl	0.077165	-1.489745	-2.236944
H	1.09003	0.0	0.0
C	-2.05079	-0.000909	-1.579235
H	-2.338855	-0.014128	-2.63113
H	-2.468641	0.885736	-1.107128
H	-2.461785	-0.89044	-1.100745
N	0.034469	1.174304	-2.21951
O	-0.733108	2.125487	-2.381353
O	1.194176	1.117621	-2.590581
N	-0.397022	-1.102582	0.806805
H	0.319026	-1.811941	0.741088
H	-1.317122	-1.477875	0.625905
N	-0.521622	1.269561	0.608254
O	0.071633	2.309649	0.323658
O	-1.524871	1.21384	1.323836
F	2.530143	0.0	0.0
