18

C	-0.360927	-0.012877	-1.470856
C	0.0	0.0	0.0
Cl	0.349384	1.40174	-2.270587
H	1.090981	0.0	0.0
C	0.247149	-1.258928	-2.090495
H	-0.234859	-2.143726	-1.676348
H	1.299463	-1.243073	-1.790653
H	0.148999	-1.227669	-3.178372
N	-1.865532	-0.028218	-1.746613
O	-2.306612	0.511391	-2.752649
O	-2.53536	-0.678808	-0.946236
N	-0.320642	-1.204998	0.705224
H	0.373895	-1.322617	1.430211
H	-1.255708	-1.20905	1.087802
N	-0.53776	1.205301	0.701351
O	-0.143958	1.38335	1.854034
O	-1.364796	1.92394	0.132903
F	2.546118	0.0	0.0
