18

C	-0.654482	0.01923	-1.381258
C	0.0	0.0	0.0
Cl	0.068133	-1.312607	-2.327061
H	1.087558	0.0	0.0
C	-2.152305	-0.161327	-1.353012
H	-2.354947	-1.074063	-0.791689
H	-2.618125	0.697414	-0.867551
H	-2.553197	-0.252387	-2.360334
N	-0.282964	1.274326	-2.170147
O	-1.167048	1.777362	-2.86265
O	0.874073	1.655399	-2.100207
N	-0.314492	-1.243409	0.673117
H	-0.91976	-1.07185	1.466222
H	0.569384	-1.584515	1.033996
N	-0.464963	1.162069	0.792616
O	-0.453515	1.064499	2.022746
O	-0.803617	2.189919	0.193092
F	2.492152	0.0	0.0
