18

C	-0.373727	0.120685	-1.484696
C	0.0	0.0	0.0
Cl	-2.043757	0.727548	-1.725287
H	1.090092	0.0	0.0
C	0.640276	0.925253	-2.274196
H	0.545755	0.72092	-3.343734
H	0.478132	1.983432	-2.08469
H	1.625219	0.642016	-1.884322
N	-0.331206	-1.32535	-2.002806
O	-1.37253	-1.932907	-2.204887
O	0.798467	-1.769796	-2.158929
N	-0.515775	-1.169889	0.611887
H	-1.440243	-1.02653	0.994353
H	0.112688	-1.44947	1.35075
N	-0.398261	1.263548	0.719675
O	-1.008329	1.15296	1.786375
O	-0.06291	2.340259	0.229074
F	2.561679	0.0	0.0
