13
Coordinates from ORCA-job run
  C   0.44306928250063      0.46448027705287     -0.10015038124993
  C   -0.75112652232815     -0.35497299267014      0.33076830029261
  F   0.09900732866695      1.09619204404837     -1.30828672413965
  H   -0.49902381951400     -0.87230524019026      1.26156688352481
  H   0.60877105596854      1.26589598935990      0.62549275077609
  H   -0.92966681792309     -1.11989833392397     -0.44132995936395
  C   1.69546528647004     -0.34702016391592     -0.33288050894862
  H   2.49440624920221      0.29442571020338     -0.70770477913284
  H   1.50878000781334     -1.13097104688264     -1.06981932069728
  H   2.03125400785993     -0.81046888843000      0.59763009416214
  N   -1.88591786561366      0.52918208508448      0.57600487635218
  H   -2.69359460238334     -0.01106933759185      0.85882823778287
  H   -2.12142359071939      0.99552989785577     -0.29111946935845
