13
Coordinates from ORCA-job run
  C   0.58749654230955      0.58179739246516      0.17307464074721
  C   -0.91558632296548      0.42670825657582      0.02129738732991
  F   0.92030617366926      1.86679813063037     -0.27101212775823
  H   -1.39598335529477      1.31330063185662      0.45788317564446
  H   0.85575880515584      0.54341684392945      1.23592512771914
  H   -1.14958768487147      0.42248495826937     -1.04720873692768
  C   1.38231908898192     -0.43003468431140     -0.61382457599124
  H   2.45259009688706     -0.28187055568878     -0.45974396533441
  H   1.16713583032628     -0.31587545971388     -1.67906385515951
  H   1.10558959753387     -1.43744995978353     -0.30387206545891
  N   -1.34174113581574     -0.84442540881966      0.60517421815329
  H   -1.40585572722309     -0.75445230297340      1.61177200635145
  H   -2.26344190869325     -1.09039784243615      0.26959877068453
