11
Coordinates from ORCA-job run
  C   1.07217928914832      0.38727353215849     -0.25735187376201
  C   -0.22591103828555      0.15792014387245     -0.03726674257249
  H   1.36465274245972      1.34841476072896     -0.67147464740050
  C   2.06871219093369     -0.59059990914747      0.00939244854169
  N   2.91860183200360     -1.37923498054764      0.21400840544030
  N   -0.76548280505666     -1.10662517746488      0.45333053097697
  O   -0.45641518441038     -1.44069571560998      1.59088290902425
  O   -1.47498301313219     -1.70604567330087     -0.34797661713259
  N   -1.25021137452168      1.18822923684791     -0.27111905550241
  O   -2.32720284594267      1.00026542833239      0.28423211649977
  O   -0.92493979319621      2.14109835413064     -0.96565747411297
