11
Coordinates from ORCA-job run
  C   1.03947547655467     -0.46760465124351     -0.29749719010083
  C   -0.22297406047983     -0.16331887635710      0.02013889845802
  H   1.28863152593367     -1.50152108649391     -0.51509575073901
  C   2.05245134983840      0.52939347548022     -0.34748775561180
  N   2.90508121297052      1.34071879649859     -0.38789991086473
  N   -1.28820100983277     -1.17852342297168      0.08140751151429
  O   -2.39919266238211     -0.76473165486352      0.39617032073946
  O   -0.96848809037585     -2.32731573397156     -0.18687141335597
  N   -0.68688629909151      1.18346417947296      0.33569331514650
  O   -1.08034894791463      1.84884108226931     -0.61624294572350
  O   -0.64154849522057      1.49959789218022      1.51968492053757
