11
Coordinates from ORCA-job run
  C   1.05318781801585     -0.48370733630062     -0.20725900413172
  C   -0.22247944919100     -0.16194021883089      0.02987946204817
  H   1.31615495200593     -1.53245034659665     -0.30543425587877
  C   2.05969070042822      0.51290710268479     -0.33279602082106
  N   2.90642956338279      1.32408564889241     -0.44053554514154
  N   -0.71073972752979      1.20579391169510      0.16913189552573
  O   -0.60302238796342      1.70666844468719      1.28328763907876
  O   -1.18444446729368      1.70288048175670     -0.84679109039312
  N   -1.27766003963622     -1.17899085551316      0.17764556285423
  O   -0.94612429181451     -2.34335532422681      0.00852734560516
  O   -2.39099267040418     -0.75189150824804      0.46534401125415
