11
Coordinates from ORCA-job run
  C   1.06754301903353      0.37297151097065     -0.30360915030242
  C   -0.22470851748343      0.16404679519765     -0.03216042487558
  H   1.36046338618575      1.32248880281817     -0.74227908778911
  C   2.05802372921324     -0.61795452944516     -0.06041874684586
  N   2.89733226670650     -1.42273795581143      0.12328036060558
  N   -0.75785702362471     -1.08808737132165      0.49745983211227
  O   -0.37795479240140     -1.43091466978927      1.61143226604597
  O   -1.53333487086360     -1.67125457464436     -0.25305672911020
  N   -1.24639859942313      1.20021350511720     -0.23993031710773
  O   -2.28821647319441      1.04955771046351      0.38893611800908
  O   -0.95389212414832      2.12067077644469     -0.99065412074200
