11
Coordinates from ORCA-job run
  C   1.04836838417360     -0.48082329692944     -0.17886996521440
  C   -0.22598304217873     -0.15143323587480      0.05603904585820
  H   1.32037369568778     -1.53197917449387     -0.15403749818514
  C   2.05126437574191      0.49320877148231     -0.43894999694473
  N   2.90774961552542      1.27260299709725     -0.65154113860024
  N   -1.26416940157647     -1.17173861775089      0.27060869169009
  O   -0.88379029516416     -2.28283917253653      0.61267428630377
  O   -2.41437872578086     -0.80956423489372      0.04790381938650
  N   -0.72620913885453      1.21942956861212      0.12037254430128
  O   -0.60705761121644      1.90611105363313     -0.88794926578520
  O   -1.20516785635753      1.53802534165444      1.20374947718986
