11
Coordinates from ORCA-job run
  C   1.04464446790558     -0.50064049265682     -0.14556443536887
  C   -0.23737123820405     -0.16082808391513      0.01999102866416
  H   1.30069841432518     -1.54995277943342     -0.26546032828089
  C   2.07470856376610      0.47902569812425     -0.20543040677049
  N   2.96074498452988      1.25366407371348     -0.25318639804307
  N   -1.31294317738029     -1.15676034031451      0.11477759670746
  O   -1.01512356323667     -2.31290926457460     -0.15165409093443
  O   -2.40201703013815     -0.73300782184292      0.48962994089311
  N   -0.69623204367007      1.22277429285031      0.11609273877344
  O   -1.30334981718639      1.63581695735846     -0.86532356452376
  O   -0.41575956071112      1.82381776069089      1.14712791888334
