11
Coordinates from ORCA-job run
  C   1.04087638323176     -0.49507700335631     -0.24272216305399
  C   -0.22479817951505     -0.15995634427304      0.02716518729904
  H   1.28251710619019     -1.54306849661688     -0.39135042361811
  C   2.06325342499262      0.48841911840670     -0.34171386485338
  N   2.92083988234684      1.29063479998138     -0.42957804108709
  N   -1.30010969853949     -1.16020124141002      0.13613772388053
  O   -0.98901516148054     -2.32529518895853     -0.06334363817268
  O   -2.40893455368836     -0.71952230278332      0.42018718585699
  N   -0.68146510683572      1.20886420935544      0.24267167194313
  O   -0.61734521986594      1.61955846782109      1.39638297727535
  O   -1.08781887683632      1.79664398183350     -0.75383661546980
