11
Coordinates from ORCA-job run
  C   0.95417059845044      0.33696757074726     -0.60338890766222
  C   -0.23119008998440      0.15208881742225     -0.01361121124025
  H   1.08619663333880      1.19926945786408     -1.24973761777366
  C   2.03119184897442     -0.56993534423354     -0.40363943564689
  N   2.93214852353439     -1.31259315710376     -0.25049001585243
  N   -0.54003468933128     -0.96572246706954      0.87168542352175
  O   -1.02860453374099     -1.95219095848266      0.33147838412476
  O   -0.28575923394715     -0.79476375091112      2.05908690718584
  N   -1.36044759835099      1.07797178538157     -0.20385189761985
  O   -1.17647946713042      2.02097766726939     -0.95944583853134
  O   -2.38019199181282      0.80793037911606      0.42191420949429
