11
Coordinates from ORCA-job run
  C   1.05075518408305     -0.45616516045476     -0.22330427386915
  C   -0.23025405372184     -0.15505100466841      0.01369634669259
  H   1.30688053837414     -1.49314751866487     -0.41947945461660
  C   2.07437816483089      0.53067242654413     -0.24520396229114
  N   2.94202975630809      1.32574473469731     -0.28231923528487
  N   -0.73454396988402      1.19895140440759      0.22896665757319
  O   -1.56163980957679      1.57358916760381     -0.59566937020275
  O   -0.27867865522209      1.81982071674528      1.18250772051215
  N   -1.27022166078304     -1.19314060350103      0.08351903707775
  O   -1.02209761480901     -2.26103313268598     -0.45916518204149
  O   -2.27660787959939     -0.89024103002308      0.71545171645032
