11
Coordinates from ORCA-job run
  C   1.01574813502766     -0.47375053018211     -0.29166365992098
  C   -0.22782468484763     -0.14256894773124      0.07460491666390
  H   1.25663245892950     -1.52770864822961     -0.38818210033645
  C   2.03143325686744      0.48761884579323     -0.55182420827259
  N   2.89936718902718      1.24508565771174     -0.79379881940847
  N   -1.26749405686485     -1.16610023424619      0.24281596307817
  O   -0.90024760921829     -2.28551399740681      0.57356204871116
  O   -2.40788226526101     -0.80261769421389     -0.02558513219079
  N   -0.68889175724387      1.22228551600257      0.31718904469417
  O   -1.25639285830369      1.38926202860331      1.39276628614919
  O   -0.45544780811244      2.05500800389899     -0.55088433916730
