11
Coordinates from ORCA-job run
  C   1.02772116448982     -0.44522272148758     -0.32860292231648
  C   -0.22536020452172     -0.15849867217175      0.03907376610120
  H   1.28505272044654     -1.48272519606648     -0.51814669797984
  C   2.02842988596177      0.55553998385638     -0.46589670405085
  N   2.88248927747402      1.35720949942639     -0.58544602889217
  N   -1.26457287503172     -1.19585543042794      0.12772163656684
  O   -0.88197821379125     -2.35299625043006      0.23461868611482
  O   -2.42063112062509     -0.79416976491087      0.05374638268737
  N   -0.69745590387818      1.17948932146184      0.38661791173321
  O   -1.10083273291467      1.29589450626469      1.53893199443582
  O   -0.63086199760953      2.03933472448538     -0.48461802439992
