11
Coordinates from ORCA-job run
  C   0.95523999143132      0.25576458790975     -0.61962947331312
  C   -0.22232102254298      0.16736935632985      0.00736074005756
  H   1.14965929539405      1.13189984615135     -1.23052215455559
  C   1.95660525163261     -0.74688558487175     -0.50326932513893
  N   2.80975470676703     -1.55465131690988     -0.42577544319379
  N   -0.59717005876743     -0.91896341051934      0.90919756803543
  O   -0.82617262756877     -0.56995221857938      2.06240802846760
  O   -0.62979636534535     -2.05021462435905      0.43806632427562
  N   -1.27044080500342      1.18549142160158     -0.16287546122554
  O   -2.41174889994196      0.81734430901238      0.09248186771053
  O   -0.91360946605512      2.28279763423449     -0.56944267111978
