11
Coordinates from ORCA-job run
  C   0.96586435645889     -0.44804536435442     -0.47740821383262
  C   -0.23737060862547     -0.14329028361508      0.01968449655249
  H   1.10883830219287     -1.43332236281270     -0.91114622791433
  C   2.04771625700391      0.47490166005787     -0.47259268194502
  N   2.96322420572373      1.21497408432234     -0.49140145002183
  N   -1.33286446677277     -1.12472516628901      0.05573781404091
  O   -2.21025534654677     -0.90665540527411      0.88420316406938
  O   -1.24865939188475     -2.07432400959108     -0.71070849678098
  N   -0.59557277694674      1.15945280818441      0.57447236829718
  O   -1.49988113242429      1.73724239547449     -0.01969853170798
  O   0.03996060182138      1.54579164389728      1.54885775924281
