11
Coordinates from ORCA-job run
  C   1.00138803109852      0.30843240501354     -0.51129960696137
  C   -0.23377227035096      0.15146278378544     -0.02485390635078
  H   1.20998080334455      1.17805532239763     -1.12742809528464
  C   2.04259485163259     -0.62763975792979     -0.25873094992287
  N   2.92291510230014     -1.38739219356733     -0.08042842005148
  N   -0.66738133093289     -0.99725130338196      0.76455526499794
  O   -1.55231887638282     -1.66952053118249      0.24296898373229
  O   -0.10609145088809     -1.18450810943822      1.83813141266051
  N   -1.28685137023771      1.15603114413507     -0.24120821846899
  O   -2.21230554734160      1.13122165946693      0.56326817210079
  O   -1.12015794224173      1.94010858070120     -1.16597463645139
