11
Coordinates from ORCA-job run
  C   0.96172729155842     -0.43708511882570     -0.49646535721935
  C   -0.23515019527739     -0.14579734098985      0.02349665615888
  H   1.10607829936010     -1.42014135953240     -0.93472364955816
  C   2.03412227562354      0.49674705981324     -0.50786078957670
  N   2.94013264711933      1.24783644052063     -0.54299120367001
  N   -1.31992937874044     -1.13853380899553      0.07644931825786
  O   -1.23939136619372     -2.08583588622988     -0.69315466548258
  O   -2.18499402722225     -0.93102671934948      0.92044746469429
  N   -0.59644449375364      1.15142216545250      0.58902927257165
  O   0.05169313238109      1.54052984403548      1.55389915217253
  O   -1.51684418485504      1.72188472410100      0.01287380165158
