11
Coordinates from ORCA-job run
  C   1.03912294936041     -0.52657880796513     -0.07223390597712
  C   -0.23918106172183     -0.14133673167189      0.00011057101455
  H   1.25247569172617     -1.58914503234173     -0.14109176080452
  C   2.11620997982592      0.40151916582388     -0.04530722503859
  N   3.03195201044398      1.14096611714132     -0.01598570212015
  N   -0.67690187252353      1.24301701335265      0.15871627012528
  O   -1.30893574511224      1.46486285974509      1.18625334478029
  O   -0.36353535107621      2.03290322820136     -0.72464831323760
  N   -1.34602508451352     -1.10737425061905     -0.08173212277532
  O   -1.07945525582842     -2.27480464525074      0.16768550332810
  O   -2.42672626058073     -0.64402891641576     -0.42976665929489
