11
Coordinates from ORCA-job run
  C   0.98264116787988      0.41038040797072     -0.50399815026474
  C   -0.23141694695954      0.15054000022162     -0.00839202918551
  H   1.14231581226808      1.34813091548685     -1.02695662815512
  C   2.05686868644830     -0.50968337002130     -0.35537532301072
  N   2.95793674550220     -1.25901433091109     -0.24030858458730
  N   -0.57714864599831     -1.06459154200950      0.72089224784422
  O   -0.46876309673523     -1.00063399791747      1.94070794406181
  O   -0.94815289284859     -2.01311775698727      0.03781041778697
  N   -1.35943215167828      1.08640414783065     -0.15369292273304
  O   -2.42565323440361      0.71216253179304      0.32348774058084
  O   -1.13019544347490      2.13742299454375     -0.73417471233742
