11
Coordinates from ORCA-job run
  C   1.03883780978674     -0.46750545621184     -0.25247118985506
  C   -0.22452742379059     -0.15470718674397      0.05354490011287
  H   1.30869743356674     -1.51754310358311     -0.31457949217577
  C   2.03484774675469      0.52191860365003     -0.47951331782305
  N   2.88619992861687      1.31313646251543     -0.66755356337669
  N   -1.25701013412750     -1.18719375194957      0.23493203520115
  O   -0.86720350058506     -2.32036982418263      0.48051787943932
  O   -2.41396272463655     -0.80946768134194      0.08502026374740
  N   -0.71742820376862      1.20830492241957      0.23398815432940
  O   -1.15378288070680      1.45019446443889      1.35456335682529
  O   -0.63466805110992      1.96423255098914     -0.72744902642486
