11
Coordinates from ORCA-job run
  C   0.99593508519683     -0.46970515020602     -0.38604382500284
  C   -0.23262095901738     -0.14856991888921      0.03239208575145
  H   1.18793778202235     -1.49777548307760     -0.67838299102488
  C   2.04415946010337      0.48717108741753     -0.47635047479311
  N   2.93342212638945      1.25311853929508     -0.56974305070630
  N   -0.65457506469383      1.20151280408263      0.39646263193422
  O   -1.55980853744702      1.65807696915630     -0.29397491613138
  O   -0.06497670083732      1.73931328816823      1.32693518160116
  N   -1.29361638379466     -1.15860785619038      0.17049957913705
  O   -1.15133431202449     -2.19806832305329     -0.45848875498552
  O   -2.20452249589732     -0.86646595670327      0.93769453422015
