11
Coordinates from ORCA-job run
  C   0.99605602321061      0.23074366524987     -0.56312596212472
  C   -0.22357143513652      0.16381954628268     -0.01939303128677
  H   1.21877641898804      1.06187360064396     -1.22569226446496
  C   1.99403542588931     -0.75232105599479     -0.31851938417807
  N   2.83852039960054     -1.55470450396344     -0.14723081310399
  N   -1.22966438477552      1.21473343067399     -0.23933998277632
  O   -2.11466199584326      1.28405380170099      0.60667007869954
  O   -1.07148462780204      1.93476438468352     -1.21546946291945
  N   -0.68685843271962     -0.92400827789953      0.83824762068363
  O   -1.64295342568968     -1.55254794984919      0.39633795855523
  O   -0.07819396572184     -1.10640664152806      1.88651524291587
