11
Coordinates from ORCA-job run
  C   1.04145175612123     -0.47234661888577     -0.23409842246884
  C   -0.22531868082822     -0.15388327757236      0.05149825840642
  H   1.30844125929537     -1.52382351703453     -0.28398104919475
  C   2.04308574218008      0.51270731882281     -0.45465832116637
  N   2.89896205636664      1.30048404872893     -0.63651910300991
  N   -1.26337658933811     -1.18219795401642      0.22516307344171
  O   -0.88052462329948     -2.31456345650413      0.48491749435430
  O   -2.41686733605952     -0.80221222632040      0.05546204376373
  N   -0.71713901240681      1.21166829127473      0.21481024664643
  O   -0.61917198680999      1.96021589529002     -0.75092526396470
  O   -1.16854258522120      1.46295149621714      1.32733104319197
