11
Coordinates from ORCA-job run
  C   0.98182284071865      0.13863501821635     -0.61524972187907
  C   -0.22051551787687      0.16611176054780     -0.03083600074235
  H   1.20225246906962      0.88390490312197     -1.37370935797821
  C   1.96406986781678     -0.83686914038407     -0.28988425985460
  N   2.79811824667023     -1.63275489838063     -0.05085249107832
  N   -1.20810518506224      1.21267945035581     -0.33845549935760
  O   -1.06589281577659      1.81266060121812     -1.39487121015752
  O   -2.06115103845698      1.40303694798502      0.52166107229870
  N   -0.68151775832180     -0.80608832552056      0.95674577766926
  O   -1.66857116750891     -1.45057673309681      0.61775940682625
  O   -0.04150994127189     -0.89073958406299      1.99869228425347
