11
Coordinates from ORCA-job run
  C   0.96568850812739      0.31632664907754     -0.57575717045033
  C   -0.23507518127202      0.14798241643366     -0.01202610461504
  H   1.11486762649057      1.17617926590873     -1.22204677462865
  C   2.03615149817200     -0.59723043522743     -0.37056877571091
  N   2.93958858635712     -1.33792701760663     -0.22483311120782
  N   -0.60166885909623     -0.99165108805395      0.82484931464109
  O   -1.52431337165873     -1.67149795940038      0.38783070270165
  O   0.04524219335364     -1.16151625390862      1.85206982192788
  N   -1.31849081365065      1.12785997511076     -0.18720551061825
  O   -2.18603611668183      1.11658081478509      0.67940498948604
  O   -1.23495407014127      1.87689363288122     -1.15071738152566
