11
Coordinates from ORCA-job run
  C   1.02820573512960     -0.49890565335447     -0.23286346789292
  C   -0.22954744544460     -0.14819289738866      0.05489824984916
  H   1.27143530938295     -1.55664360259136     -0.26980611155723
  C   2.04958875384220      0.46018277557005     -0.47564975869998
  N   2.92192145887940      1.22558954434187     -0.67418257981435
  N   -1.28865073194591     -1.15028469541171      0.25075470633836
  O   -0.92970587932724     -2.28812955883864      0.52081141269475
  O   -2.43478048838464     -0.74645266274523      0.08431650720049
  N   -0.68774587033286      1.23101429803157      0.20253945723390
  O   -0.57892381129723      1.96320539047206     -0.77428165517981
  O   -1.12179703050168      1.50861706191450      1.31546323982764
