11
Coordinates from ORCA-job run
  C   0.94916989086763     -0.41875677526473     -0.53283005726449
  C   -0.23708313387426     -0.14308899300528      0.01882349345657
  H   1.07959679433837     -1.38279574333160     -1.01556920166715
  C   2.02915554908875      0.50620474058690     -0.52221863114635
  N   2.94480015810883      1.24628449201242     -0.53516742327382
  N   -1.32560588024678     -1.13283438489331      0.04962038995903
  O   -2.16868274142584     -0.96302678136056      0.92377282807917
  O   -1.26811361074356     -2.04226308077867     -0.76631121707651
  N   -0.58086988506060      1.12948095308803      0.64757346305087
  O   -1.51341257651820      1.72598180659677      0.11938227060809
  O   0.09104543546565      1.47481376635003      1.61292408527459
