11
Coordinates from ORCA-job run
  C   1.03054815049664      0.37824397534724     -0.30139015925538
  C   -0.25039941021636      0.10342473940780     -0.01329325413123
  H   1.24205008584299      1.40117891037061     -0.59005916675843
  C   2.12671402613884     -0.51685051853052     -0.17758615727041
  N   3.06472030990590     -1.19044161812684      0.05255781730933
  N   -0.78884733188897     -1.16399235118234      0.53642547716051
  O   -1.97651076463088     -1.17022366474105      0.82862776944170
  O   0.01913832427738     -2.06208167603912      0.70415809396652
  N   -1.25791839748114      1.14261340994077     -0.26195337393093
  O   -2.09282809389390      0.87287544771353     -1.11560102146452
  O   -1.11766689855049      2.20525334583991      0.33811397493283
