11
Coordinates from ORCA-job run
  C   0.89599554230182     -0.41265954997016     -0.62364872491762
  C   -0.21675999610505     -0.15787908961054      0.07251180708117
  H   1.04014530707104     -1.41563377803008     -1.01408326792532
  C   1.87764377783459      0.58367849560848     -0.88081992579697
  N   2.70695888910649      1.38481894337954     -1.11870850355029
  N   -1.19834677800743     -1.21111058366403      0.37725303757700
  O   -1.92289116527071     -0.99437437388441      1.34251635728638
  O   -1.17587738959070     -2.20808432474762     -0.33105674089340
  N   -0.57681613587351      1.15416245571147      0.60324653429502
  O   0.19143719044546      1.65879415630581      1.41430500098989
  O   -1.62148924191201      1.61728764890152      0.15748442585414
