11
Coordinates from ORCA-job run
  C   1.01261521600234      0.21421385287887     -0.53868963274262
  C   -0.22545045407875      0.15793465765735     -0.03694404236473
  H   1.24869845090898      1.01086228866839     -1.23808085994731
  C   2.01475357936574     -0.73686427940736     -0.20240609307123
  N   2.86910539005169     -1.50703881712952      0.04864322174445
  N   -1.23677747791081      1.17926882641271     -0.35101927665244
  O   -2.14958625521029      1.28549619841627      0.46094300131499
  O   -1.05481884870747      1.84387464319994     -1.36170618998939
  N   -0.70575107519120     -0.88899681961351      0.86125470655755
  O   -0.12883840203381     -1.01140085939729      1.93576804714617
  O   -1.64295012319641     -1.54834969168585      0.42323711800457
