11
Coordinates from ORCA-job run
  C   1.03104036094970     -0.45452410922041     -0.30667624548973
  C   -0.22322102010192     -0.15812804920080      0.04923522625507
  H   1.29668679152175     -1.49988707003138     -0.43299890650135
  C   2.02219271714853      0.54621346302950     -0.50264366978367
  N   2.86819563169622      1.34956142071536     -0.66235559029266
  N   -0.70806387870736      1.19350056199944      0.31642968994747
  O   -0.65010466904018      2.00008578248025     -0.60475933340021
  O   -1.11302996010772      1.37489547739748      1.45995301999737
  N   -1.25257857080354     -1.19809258543103      0.20287481486682
  O   -0.85891616809920     -2.34265779907250      0.37903791414868
  O   -2.41220123445629     -0.81196709266591      0.10390308025221
