11
Coordinates from ORCA-job run
  C   1.05765056787094     -0.49339208542394     -0.05841558297525
  C   -0.23351783740570     -0.14963438199272     -0.00763431410115
  H   1.30613555193155     -1.54655205257865     -0.15005543453361
  C   2.10353487627497      0.46694840822823      0.02019432235026
  N   2.98702175787973      1.24358864541642      0.07103338107889
  N   -1.30744573372147     -1.14615218575635     -0.14480776541215
  O   -2.39463445367424     -0.70544889657466     -0.50204880093292
  O   -1.00973861959301     -2.31226750797743      0.07375765116004
  N   -0.71840190785016      1.21536540088587      0.17799651864456
  O   -0.41599143205653      2.03737362735489     -0.67953211556090
  O   -1.37461276965607      1.39017102841833      1.19951214028223
