11
Coordinates from ORCA-job run
  C   1.04822274484546     -0.48862656761385     -0.16106061751662
  C   -0.23305914971632     -0.14628794946809      0.00882245061641
  H   1.28248600844867     -1.54002365844167     -0.30062187903933
  C   2.09796864404660      0.46987214197717     -0.17106676315505
  N   2.99324328479538      1.23384863497994     -0.19258600165079
  N   -1.30276810212731     -1.15618164971701      0.07213644382093
  O   -2.33283491906496     -0.79938348740898      0.63413022816904
  O   -1.05370604660596     -2.25471344376684     -0.40421168699961
  N   -0.71443045281203      1.22593218680102      0.14651054214863
  O   -0.30839741541513      1.86599344883591      1.10977630180649
  O   -1.47672459639439      1.59157034382238     -0.74182901820012
