11
Coordinates from ORCA-job run
  C   1.09954882410851      0.30990858895171     -0.22658854226773
  C   -0.21998061820114      0.14914978136857     -0.08005814788310
  H   1.45296857114172      1.18867888668789     -0.75801700422064
  C   2.04736532787524     -0.60885375187960      0.30263348699881
  N   2.86387682600447     -1.34093117059293      0.73107750925997
  N   -0.84535410778983     -0.94027568575172      0.66608523629845
  O   -1.57755531036865     -0.57820324322374      1.58111419760213
  O   -0.56839151659060     -2.08436751772309      0.32447459349441
  N   -1.18263181430883      1.08133254459032     -0.68581121183285
  O   -0.78464631267507      2.21472679461913     -0.91781806752800
  O   -2.28619986919583      0.60883477295345     -0.93609204992144
