14

C	0.0	0.0	0.0
C	-0.392607	0.018438	-1.51687
Br	1.946215	0.0	0.0
H	0.514601	0.288898	-2.07413
H	-0.279383	0.932164	0.481522
C	-0.565517	-1.115838	0.739758
N	-0.605707	-2.114746	1.378941
C	-1.363241	1.067165	-1.833815
N	-1.963233	1.965464	-2.308809
C	-0.844179	-1.346139	-2.033764
H	-1.763525	-1.633836	-1.523703
H	-0.071306	-2.089591	-1.826745
H	-1.012808	-1.299849	-3.113305
H	-2.105723	0.0	0.0
