11

C	-0.454082	0.024995	-1.448019
C	0.0	0.0	0.0
F	-1.844076	0.081371	-1.534881
H	1.093589	0.0	0.0
H	-0.057232	0.910663	-1.951096
H	-0.34676	-0.915627	0.485644
C	-0.013266	-1.178695	-2.171183
N	0.283597	-2.134637	-2.783773
C	-0.518761	1.160889	0.712797
N	-0.946743	2.096131	1.278016
Br	3.445802	0.0	0.0
