11

C	-0.461497	-0.002403	-1.449438
C	0.0	0.0	0.0
F	-0.140581	1.193006	-2.057863
H	1.097143	0.0	0.0
H	0.060984	-0.801497	-1.982415
H	-0.31757	-0.933114	0.476494
C	-1.919439	-0.200929	-1.57587
N	-3.077077	-0.369743	-1.671474
C	-0.550124	1.130648	0.736187
N	-1.021423	2.032791	1.32008
Br	3.467832	0.0	0.0
