11

C	-0.445547	0.063107	-1.447287
C	0.0	0.0	0.0
F	-1.805598	0.361164	-1.536906
H	1.092878	0.0	0.0
H	0.102628	0.867306	-1.945571
H	-0.316588	0.928069	0.485185
C	-0.215287	-1.19793	-2.170242
N	-0.059956	-2.211853	-2.741587
C	-0.565359	-1.137066	0.712856
N	-1.02364	-2.046128	1.295891
Br	3.453218	0.0	0.0
