13

C	0.0	0.0	0.0
C	-0.399936	-0.184634	-1.448611
F	1.409888	0.0	0.0
H	-1.483291	-0.062407	-1.50993
H	-0.275775	0.997924	0.349324
H	-0.152836	-1.229201	-1.713818
N	-0.502809	-1.002919	0.877023
H	-1.285926	-0.617155	1.388938
H	-0.898099	-1.758757	0.332457
N	0.269628	0.802359	-2.294827
H	1.263371	0.614937	-2.28282
H	-0.059333	0.706327	-3.246514
Cl	-3.772981	0.0	0.0
