18

C	-0.486765	-0.02683	-1.421066
C	0.0	0.0	0.0
Cl	-2.186628	-0.468981	-1.625188
H	1.088661	0.0	0.0
N	-0.186464	1.281509	-2.18782
O	-1.066845	1.796404	-2.85196
O	0.976146	1.636634	-2.082736
N	0.312392	-1.055591	-2.256774
O	0.839858	-1.988859	-1.675997
O	0.302416	-0.861135	-3.467427
C	-0.432307	-1.182504	0.85369
H	-0.231673	-2.111905	0.328975
H	-1.492182	-1.132406	1.122076
H	0.173416	-1.164194	1.75806
N	-0.44596	1.23312	0.678847
O	-1.008358	2.123757	0.03214
O	-0.209848	1.310321	1.883107
F	2.468395	0.0	0.0
