18

C	-0.473785	0.006063	-1.436518
C	0.0	0.0	0.0
Cl	-2.157224	-0.324414	-1.716716
H	1.088627	0.0	0.0
N	-0.07599	1.317969	-2.157319
O	1.08534	1.644076	-1.951024
O	-0.889249	1.859556	-2.884519
N	0.314005	-1.04714	-2.255873
O	1.078982	-1.788714	-1.650935
O	0.122497	-0.998032	-3.470203
C	-0.53494	-1.14699	0.832709
H	-1.614644	-1.07555	0.996192
H	-0.305375	-2.093608	0.345223
H	-0.019287	-1.125159	1.792991
N	-0.416593	1.271329	0.670439
O	0.085647	1.476485	1.770091
O	-1.12938	2.075839	0.045342
F	2.509763	0.0	0.0
