18

C	-0.358742	-0.01499	-1.459468
C	0.0	0.0	0.0
Cl	0.147895	-1.522985	-2.195736
H	1.091627	0.0	0.0
N	-1.851358	0.156417	-1.803435
O	-2.591409	-0.675813	-1.298198
O	-2.178063	1.074631	-2.53996
N	0.343759	1.13987	-2.209341
O	0.5436	0.989181	-3.405385
O	0.596831	2.131938	-1.543021
C	-0.401029	-1.20404	0.838479
H	0.014437	-2.110662	0.403608
H	0.067325	-1.065555	1.813771
H	-1.482693	-1.309353	0.949138
N	-0.539376	1.196353	0.685004
O	0.00412	1.5217	1.734806
O	-1.535852	1.755113	0.214943
F	2.491475	0.0	0.0
