18

C	-0.537651	-0.027915	-1.39701
C	0.0	0.0	0.0
Cl	-2.294907	-0.058732	-1.538302
H	1.090995	0.0	0.0
N	0.009153	1.089326	-2.306018
O	0.92321	1.766739	-1.872964
O	-0.488008	1.140846	-3.425974
N	0.026844	-1.298606	-2.071659
O	1.146921	-1.180162	-2.545244
O	-0.653959	-2.312566	-2.033309
C	-0.314706	-1.255523	0.794493
H	-1.380317	-1.496969	0.837031
H	0.236756	-2.090652	0.365793
H	0.071405	-1.09866	1.799143
N	-0.479027	1.19956	0.709016
O	-0.971064	2.124482	0.055073
O	-0.323217	1.233162	1.929847
F	2.459385	0.0	0.0
