15

C	-0.462538	0.004765	-1.440248
C	0.0	0.0	0.0
Br	-2.400773	-0.178092	-1.614269
H	1.092968	0.0	0.0
N	-0.017001	1.431377	-1.95029
O	-0.849884	2.124029	-2.523806
O	1.207359	1.486412	-2.142545
C	0.166878	-1.019831	-2.267654
N	0.662681	-1.79891	-2.996473
N	-0.383429	-1.266817	0.681306
O	0.109206	-2.29431	0.193057
O	-1.28297	-1.242824	1.520872
C	-0.528022	1.13399	0.714808
N	-0.934561	2.094493	1.261569
Cl	2.86454	0.0	0.0
