15

C	-0.54954	-0.035737	-1.442064
C	0.0	0.0	0.0
Br	-2.480545	-0.212773	-1.486095
H	1.11535	0.0	0.0
N	-0.104243	1.186077	-2.269753
O	-0.654212	1.273823	-3.402665
O	1.091407	1.551506	-2.072449
C	0.257465	-1.102101	-2.216221
N	1.338856	-1.275642	-2.36403
N	-0.299323	-1.20485	0.796545
O	0.058999	-2.292184	0.236264
O	-0.20249	-1.060953	2.052479
C	-0.311857	1.253211	0.798332
N	0.279908	1.707413	1.687523
Cl	2.658929	0.0	0.0
