15

C	-0.510565	-0.021232	-1.450132
C	0.0	0.0	0.0
Br	-0.05708	1.691834	-2.3336
H	1.114236	0.0	0.0
N	0.204744	-0.979126	-2.377946
O	-0.367945	-1.16528	-3.489022
O	1.461431	-0.94918	-2.271001
C	-2.041022	-0.026187	-1.471775
N	-2.77145	0.765086	-1.102207
N	-0.300982	-1.219326	0.767851
O	-0.001354	-2.297313	0.14045
O	-0.132101	-1.128053	2.027093
C	-0.296565	1.233601	0.828285
N	0.293773	1.658438	1.732459
Cl	2.662787	0.0	0.0
