20

C	-0.480075	0.006591	-1.462506
C	0.0	0.0	0.0
Cl	0.215761	-1.486594	-2.235803
H	1.090734	0.0	0.0
C	-1.990411	-0.101884	-1.608223
H	-2.263654	-0.077861	-2.6666
H	-2.476286	0.732159	-1.09427
H	-2.361675	-1.035036	-1.182212
C	0.088473	1.192435	-2.227495
H	-0.388323	2.118171	-1.898865
H	-0.09641	1.063416	-3.297039
H	1.16156	1.262515	-2.035675
C	-0.481716	-1.159485	0.847014
H	-0.027282	-1.069564	1.836565
H	-0.121376	-2.088231	0.403923
H	-1.564753	-1.195076	0.967101
N	-0.432765	1.277623	0.624978
O	0.24902	2.282702	0.413538
O	-1.443501	1.283523	1.345818
H	2.771732	0.0	0.0
