20

C	-0.329359	0.02715	-1.488498
C	0.0	0.0	0.0
Cl	-2.153762	0.014298	-1.757268
H	1.093165	0.0	0.0
C	0.232353	1.246449	-2.201127
H	1.296566	1.313087	-1.947284
H	-0.2594	2.166211	-1.892046
H	0.10841	1.122447	-3.280303
C	0.24615	-1.233262	-2.118158
H	-0.254683	-2.134679	-1.761979
H	1.309934	-1.273954	-1.849216
H	0.139067	-1.186521	-3.204347
C	-0.467807	-1.224628	0.756629
H	-1.539902	-1.402069	0.656483
H	0.092522	-2.091372	0.403061
H	-0.233776	-1.099149	1.814492
N	-0.454206	1.228282	0.689248
O	-1.337336	1.137819	1.551545
O	0.100907	2.290326	0.394613
H	2.721163	0.0	0.0
