17

C	0.0	0.0	0.0
C	-0.563221	-0.118937	-1.447676
F	1.358909	0.0	0.0
H	0.182023	0.456531	-2.01488
C	-0.440802	1.23258	0.664437
N	-0.656734	2.279295	1.152056
N	-0.43131	-1.181628	0.860823
O	-1.546708	-1.10203	1.357299
O	0.353054	-2.120767	0.925249
N	-1.857014	0.448449	-1.684997
H	-2.628228	0.007809	-1.173443
H	-1.896283	1.435412	-1.461376
C	-0.532757	-1.568178	-1.912812
H	-1.317111	-2.136765	-1.406558
H	-0.746934	-1.585708	-2.981099
H	0.430433	-2.044481	-1.722407
Br	-4.788189	0.0	0.0
