17

C	-0.501566	-0.025489	-1.436667
C	0.0	0.0	0.0
F	-0.021949	-1.140616	-2.042545
H	1.094153	0.0	0.0
N	-1.91462	0.022034	-1.698598
H	-2.346947	-0.721049	-1.160281
H	-2.274183	0.91249	-1.37893
N	0.085429	1.172445	-2.18188
O	-0.507494	2.241027	-2.019272
O	1.077624	0.995658	-2.869095
C	-0.533985	-1.184228	0.642465
N	-1.005478	-2.12647	1.167753
C	-0.382081	1.25238	0.790439
H	-0.035319	1.116515	1.816422
H	-1.457652	1.462618	0.808396
H	0.147325	2.112315	0.381609
F	2.517553	0.0	0.0
