17

C	-0.146319	0.159446	-1.521726
C	0.0	0.0	0.0
F	-1.309365	0.81629	-1.898443
H	1.094838	0.0	0.0
N	0.984762	0.810701	-1.994688
H	1.819552	0.548392	-1.42158
H	1.131621	0.678977	-2.984038
N	-0.362354	-1.241665	-2.186877
O	-1.492913	-1.717112	-2.16394
O	0.62806	-1.779048	-2.676054
C	-0.578479	-1.199215	0.567191
N	-1.062182	-2.137906	1.085509
C	-0.479929	1.258353	0.720835
H	-1.560416	1.39704	0.638736
H	-0.204571	1.193887	1.775512
H	0.02886	2.119407	0.28613
F	2.643665	0.0	0.0
