17

C	-0.482709	-0.000788	-1.419515
C	0.0	0.0	0.0
F	-1.869965	-0.30604	-1.488858
H	1.092317	0.0	0.0
N	-0.183934	1.168432	-2.12641
H	-0.576275	1.975435	-1.666629
H	-0.514657	1.088866	-3.077896
N	0.100353	-1.163885	-2.227973
O	0.568189	-2.11515	-1.621816
O	-0.017672	-1.076091	-3.450972
C	-0.552416	-1.109804	0.752428
N	-1.013649	-1.954449	1.428611
C	-0.322163	1.324427	0.705244
H	-0.064156	1.219569	1.759747
H	0.335443	2.096784	0.300277
H	-1.374107	1.626586	0.631053
F	2.522126	0.0	0.0
