17

C	-0.074548	0.038934	-1.523908
C	0.0	0.0	0.0
F	-0.087592	1.393727	-1.936632
H	1.098738	0.0	0.0
N	0.96975	-0.701363	-2.042446
H	1.07844	-0.586037	-3.039127
H	1.825696	-0.518605	-1.471051
N	-1.405309	-0.417423	-2.140114
O	-2.413441	-0.341507	-1.442157
O	-1.383783	-0.761992	-3.31924
C	-0.457648	-1.280665	0.506318
N	-0.816146	-2.299137	0.971053
C	-0.597588	1.183267	0.741535
H	-1.679414	1.252396	0.60017
H	-0.125075	2.100905	0.390347
H	-0.384042	1.078353	1.808921
F	2.645221	0.0	0.0
