17
Coordinates from ORCA-job run
  C   0.81036494852196     -0.07917770200277     -0.50553095935258
  C   -0.64062652212265     -0.45910925060021     -0.18090881167159
  Br  1.44782361042267     -0.95765856752255     -2.12484183485287
  H   -0.75417978158279     -1.52995181471403     -0.33792026468546
  N   1.65128200857435     -0.75464505188357      0.63974165055445
  O   2.43160556559399     -0.02296652227019      1.23653206356040
  O   1.44467418501039     -1.94017548003865      0.85886760346234
  N   1.01294146202760      1.29340029321266     -0.61627575752974
  H   1.98983176635858      1.53749477313412     -0.70354072459192
  H   0.57020044981513      1.82462056052186      0.12055076353405
  N   -1.53464220022089      0.20040324521067     -1.19242310097720
  O   -1.87648679311166      1.35827828752274     -0.96485876854526
  O   -1.85963024616428     -0.47265134227237     -2.16664913517598
  C   -1.07775378206430     -0.06422989307760      1.22067710648420
  H   -0.52026790436619     -0.63735718156545      1.96166481602966
  H   -0.95561062565647      1.00105164857058      1.41225844601163
  H   -2.13652614103543     -0.29932600222526      1.34265690774586
