17
Coordinates from ORCA-job run
  C   0.82953836716029     -0.14651171536738      0.13296175580503
  C   -0.66012320046602      0.09277144252746     -0.16152653962901
  Br  1.12815335989020     -0.98314726595986      1.83993551527730
  H   -0.69428999339632      0.66374547415360     -1.09419848450125
  N   1.50548955589063      1.27619032552114      0.14564487797568
  O   1.61888101858406      1.75057578866841     -0.98124642972129
  O   1.83474948922950      1.79893358521131      1.19577652316560
  N   1.37720281050950     -0.95554808823242     -0.89455862079550
  H   2.32359020824272     -1.23945559103222     -0.67243433167564
  H   1.37392747108579     -0.44036823992108     -1.76891348015959
  N   -1.23442949894076      1.03381632050084      0.86420334641195
  O   -1.02657055269651      2.23163363263712      0.67373032539523
  O   -1.85612667038799      0.54950004510464      1.80456708708426
  C   -1.47637134566265     -1.17626035004154     -0.25120422884563
  H   -1.06996981935282     -1.80959068411909     -1.03825005205533
  H   -1.45945964813683     -1.71790512173833      0.69203165509308
  H   -2.51219155155279     -0.92637955791260     -0.48751891882488
