16

C	-0.531981	0.030641	-1.430911
C	0.0	0.0	0.0
Cl	0.404381	1.106601	-2.48822
H	1.088794	0.0	0.0
N	-0.267962	-1.384074	-2.056534
O	-1.059578	-1.720578	-2.935443
O	0.698584	-2.021701	-1.673509
N	-1.89628	0.373637	-1.492936
H	-2.421303	-0.152186	-0.802895
H	-2.262173	0.200352	-2.420675
C	-0.563823	-1.137374	0.697817
N	-1.033938	-2.075916	1.229617
N	-0.451758	1.258649	0.669039
O	0.11247	2.290876	0.327027
O	-1.349233	1.189557	1.514825
F	2.439352	0.0	0.0
