16

C	-0.15833	-0.208231	-1.522868
C	0.0	0.0	0.0
Cl	-1.774079	-0.817615	-2.015789
H	1.09439	0.0	0.0
N	-0.005694	1.178537	-2.281209
O	1.146792	1.46366	-2.578701
O	-1.002949	1.841891	-2.522402
N	0.85387	-1.103326	-1.863644
H	0.977506	-1.193323	-2.86228
H	1.722967	-0.822343	-1.368973
C	-0.496236	-1.154699	0.716519
N	-0.854023	-2.100928	1.314547
N	-0.522263	1.258036	0.578627
O	-1.202662	1.184241	1.601991
O	-0.170359	2.30386	0.039425
F	2.52324	0.0	0.0
