16

C	-0.163279	-0.185746	-1.523726
C	0.0	0.0	0.0
Cl	-1.755401	-0.871937	-2.021386
H	1.094364	0.0	0.0
N	-0.141015	1.239277	-2.223566
O	0.923824	1.526127	-2.756272
O	-1.14527	1.933268	-2.177892
N	0.89364	-0.996334	-1.911304
H	1.002986	-1.055302	-2.913202
H	1.753081	-0.693457	-1.405267
C	-0.522996	-1.134351	0.726014
N	-0.89422	-2.068189	1.335058
N	-0.49953	1.278694	0.562392
O	-1.412726	1.241691	1.386799
O	0.087882	2.293178	0.197566
F	2.543645	0.0	0.0
