16

C	-0.141022	-0.013629	-1.522992
C	0.0	0.0	0.0
Cl	-0.261954	-1.812796	-2.07399
H	1.0931	0.0	0.0
N	-1.482972	0.509636	-2.035779
O	-1.481642	1.033666	-3.143291
O	-2.457401	0.321391	-1.319581
N	0.918002	0.666033	-2.062416
H	0.97624	0.636602	-3.067286
H	1.787374	0.476359	-1.524146
C	-0.599719	-1.076201	0.748373
N	-1.04812	-1.950792	1.392245
N	-0.404375	1.312007	0.596104
O	-0.412527	1.35719	1.823783
O	-0.644814	2.254103	-0.15324
F	2.536686	0.0	0.0
