16

C	-0.207306	-0.177936	-1.518651
C	0.0	0.0	0.0
Cl	-1.82923	-0.777343	-1.925587
H	1.094152	0.0	0.0
N	0.013462	1.172256	-2.247052
O	-0.936336	1.738112	-2.76621
O	1.176616	1.54258	-2.251046
N	0.800411	-1.053139	-2.036719
H	0.549864	-2.008245	-1.809981
H	1.669362	-0.807308	-1.531254
C	-0.412868	-1.207624	0.684621
N	-0.700551	-2.226896	1.194568
N	-0.56821	1.193342	0.657882
O	-0.955884	1.072121	1.819289
O	-0.551916	2.248524	0.028226
F	2.491978	0.0	0.0
