16

C	-0.213754	-0.056648	-1.521067
C	0.0	0.0	0.0
Cl	-1.79614	-0.694106	-1.992469
H	1.090087	0.0	0.0
N	-0.0486	1.363777	-2.111175
O	0.958749	1.935324	-1.722574
O	-0.840819	1.767163	-2.947423
N	0.84744	-0.813919	-2.119509
H	0.630304	-1.800863	-2.061701
H	1.695495	-0.617623	-1.552977
C	-0.40079	-1.245163	0.61997
N	-0.685499	-2.277049	1.104986
N	-0.60288	1.131281	0.740422
O	-0.404791	1.150589	1.952113
O	-1.244579	1.971282	0.109516
F	2.508538	0.0	0.0
