12

C	-0.472029	0.02697	-1.416995
C	0.0	0.0	0.0
Cl	-2.271686	0.207433	-1.569631
H	1.091887	0.0	0.0
H	-0.364946	-0.90726	0.485373
H	-0.371143	0.883247	0.520389
N	0.098226	1.265425	-2.130931
O	0.000437	2.318875	-1.523382
O	0.569776	1.103136	-3.250215
C	-0.101221	-1.162284	-2.176587
N	0.131814	-2.154605	-2.758487
H	2.841297	0.0	0.0
