14

C	-0.505624	-0.141487	-1.431118
C	0.0	0.0	0.0
Cl	-0.42854	1.453536	-2.275841
H	1.093827	0.0	0.0
H	-1.566122	-0.403045	-1.416762
H	-0.354136	0.941	0.434549
C	0.297192	-1.163414	-2.203844
H	1.345931	-0.864951	-2.223003
H	-0.07442	-1.280549	-3.224424
H	0.221223	-2.118097	-1.68023
N	-0.445012	-1.183511	0.754226
H	-1.202245	-0.942484	1.380319
H	0.329038	-1.51281	1.317119
Br	3.713571	0.0	0.0
