16

C	0.0	0.0	0.0
C	-0.618691	0.0314	-1.376663
F	1.364991	0.0	0.0
H	-1.731913	0.119673	-1.11549
H	-0.393395	-0.874482	-1.92774
C	-0.485963	1.049486	0.959032
H	-0.160769	2.020151	0.588573
H	-0.056222	0.86107	1.942565
H	-1.577797	0.965192	0.958816
N	-0.345684	-1.399483	0.568459
O	-0.306267	-2.350223	-0.211387
O	-0.524104	-1.49769	1.775392
N	-0.136656	1.14366	-2.214019
O	-0.051436	2.277771	-1.736768
O	0.116466	0.880821	-3.395392
F	-2.844199	0.0	0.0
