16

C	0.0	0.0	0.0
C	-0.623678	-0.187677	-1.364774
F	1.365589	0.0	0.0
H	-1.722008	-0.244972	-1.143864
H	-0.375193	0.687334	-1.972122
C	-0.531562	1.25318	0.636065
H	-0.136525	1.341357	1.647283
H	-0.199182	2.107691	0.039491
H	-1.627607	1.139091	0.61411
N	-0.356874	-1.20212	0.877839
O	-0.597575	-2.264683	0.314606
O	-0.273937	-1.047059	2.092775
N	-0.14963	-1.357777	-2.152497
O	-0.999829	-2.005021	-2.757802
O	1.060442	-1.576382	-2.213142
F	-2.895048	0.0	0.0
