16

C	0.0	0.0	0.0
C	-0.682515	-0.431467	-1.271261
F	1.370997	0.0	0.0
H	-0.421724	-1.441366	-1.574302
H	-1.797445	-0.3447	-0.964722
C	-0.498289	1.313875	0.535468
H	-0.061936	1.495906	1.516487
H	-1.589242	1.222591	0.575077
H	-0.184129	2.095893	-0.154834
N	-0.323479	-1.113321	1.020997
O	-0.327273	-2.269491	0.605389
O	-0.434839	-0.797933	2.198376
N	-0.428077	0.434121	-2.436392
O	0.378406	1.363966	-2.365792
O	-1.054189	0.143393	-3.4577
F	-2.916424	0.0	0.0
