18

C	0.0	0.0	0.0
C	-0.321145	-0.047378	-1.533789
Br	1.964233	0.0	0.0
H	0.414614	0.579848	-2.044545
C	-0.381088	1.31927	0.670308
H	0.008916	1.302241	1.693535
H	-1.472373	1.337625	0.67321
H	0.027465	2.185901	0.150163
N	-0.576749	-1.145585	0.628926
H	-0.339953	-1.120858	1.615914
H	-1.61247	-0.879809	0.513572
N	-1.611351	0.687327	-1.99211
O	-1.633205	1.899249	-1.813338
O	-2.397526	0.069833	-2.699351
N	-0.280942	-1.389295	-2.001586
H	-0.598515	-1.980464	-1.239023
H	-0.919705	-1.478377	-2.781483
F	-2.774819	0.0	0.0
