18

C	0.0	0.0	0.0
C	-0.260504	0.087124	-1.553812
Br	1.95861	0.0	0.0
H	0.265044	-0.768518	-1.991263
C	-0.512529	1.171448	0.813636
H	-1.602706	1.154074	0.710313
H	-0.243762	1.002003	1.858927
H	-0.102566	2.11533	0.466296
N	-0.574413	-1.200961	0.530636
H	-1.593068	-1.007139	0.506021
H	-0.386696	-1.97722	-0.097617
N	0.505843	1.256689	-2.215204
O	1.205233	0.971999	-3.190464
O	0.302468	2.400409	-1.820272
N	-1.599193	0.196595	-1.977919
H	-1.818945	-0.534649	-2.637078
H	-2.308343	0.196883	-1.187815
F	-3.143659	0.0	0.0
