18

C	0.0	0.0	0.0
C	-0.31325	-0.003163	-1.549806
Br	1.967984	0.0	0.0
H	0.493484	-0.524793	-2.067854
C	-0.493069	1.237854	0.733913
H	-0.230451	1.139696	1.791901
H	-1.583437	1.219256	0.618592
H	-0.065874	2.166602	0.355971
N	-0.521307	-1.22757	0.541866
H	-1.542222	-1.112063	0.424464
H	-0.339343	-1.211907	1.542578
N	-0.093709	1.456283	-2.079201
O	-1.033485	2.246808	-2.001677
O	0.992442	1.715249	-2.607835
N	-1.563974	-0.515175	-1.888765
H	-2.344293	-0.206934	-1.243044
H	-1.755461	-0.406742	-2.874775
F	-3.118237	0.0	0.0
