16

C	-0.447541	0.124609	-1.45394
C	0.0	0.0	0.0
Br	0.381216	-1.240444	-2.559296
H	1.112626	0.0	0.0
C	-1.892444	0.018641	-1.637362
N	-3.055759	-0.12598	-1.733635
N	-0.009318	1.508257	-1.980906
O	-0.851606	2.393037	-1.84787
O	1.12052	1.628513	-2.415744
C	-0.421785	-1.326209	0.631836
H	-1.503394	-1.499744	0.606821
H	0.096155	-2.143912	0.130879
H	-0.089522	-1.317779	1.671876
C	-0.523049	1.110533	0.770834
N	-0.929795	1.977485	1.456067
F	2.488171	0.0	0.0
