16

C	-0.275488	-0.085073	-1.477671
C	0.0	0.0	0.0
Br	-2.140617	-0.602007	-1.973684
H	1.099583	0.0	0.0
C	-0.020077	1.177596	-2.158035
N	0.174826	2.203028	-2.698664
N	0.629538	-1.160282	-2.112692
O	0.44853	-2.308605	-1.738199
O	1.448098	-0.779877	-2.935527
C	-0.385008	-1.204206	0.855579
H	-0.172635	-0.946261	1.895267
H	0.240328	-2.052972	0.589252
H	-1.439976	-1.477161	0.762817
C	-0.556412	1.222397	0.531811
N	-1.020513	2.196991	1.001455
F	2.457651	0.0	0.0
