16

C	-0.454068	-0.022564	-1.435294
C	0.0	0.0	0.0
Br	-2.424304	0.095473	-1.673962
H	1.113482	0.0	0.0
C	0.119161	1.063479	-2.218794
N	0.535527	1.961753	-2.851922
N	0.008327	-1.35593	-2.054674
O	-0.731164	-2.323479	-1.945047
O	1.130611	-1.33968	-2.542114
C	-0.38511	-1.228936	0.818466
H	0.156477	-2.098771	0.443783
H	-0.046019	-1.058924	1.842098
H	-1.459203	-1.437668	0.820917
C	-0.450988	1.225423	0.622309
N	-0.797088	2.209843	1.165109
F	2.45896	0.0	0.0
