13
Coordinates from ORCA-job run
  C   0.70760290285601      0.06083403289808      0.51290690285070
  C   -0.52607303616838      0.12658886919789     -0.38776951359995
  Br  0.63770601460870      1.66640199136337      1.70673498404453
  H   -0.53651191592065      1.04580084413305     -0.97743837911362
  H   0.61092846272182     -0.78625419519863      1.19015049332416
  N   1.87034869396765     -0.04967703990182     -0.27405018463208
  H   2.06108144868384      0.78678043067674     -0.81080293176666
  H   2.68348718006823     -0.28980693791269      0.27578180295994
  N   -1.78260033452220      0.15787986511620      0.45370171453191
  O   -1.89201384351541     -0.73492922886258      1.28498204801048
  O   -2.57718764677458      1.05989254458933      0.22271396156527
  C   -0.59257217938567     -1.04974677013722     -1.25056998724215
  N   -0.66419574661937     -1.99376440596171     -1.94534091093252
