13
Coordinates from ORCA-job run
  C   0.92167512741272      0.17247422835650     -0.25862649254206
  C   -0.45739647784631     -0.41504068788556     -0.55714074603565
  Br  2.24086083319182     -1.29232494888455     -0.64750385595839
  H   -0.49044490324981     -0.80545078307731     -1.57603657290462
  H   1.14634100835695      0.93168387694703     -1.00513835678635
  N   0.95684602271841      0.71696923053290      1.03432235826911
  H   1.78418641676916      1.27154807700528      1.20398758580089
  H   0.84620540460509      0.02499389001310      1.76562035099032
  N   -1.44233640032753      0.74421299106085     -0.52307514784424
  O   -1.24800631374072      1.59075960279778     -1.38750683111276
  O   -2.30984134155778      0.75237343099085      0.33713215102218
  C   -0.84094199309391     -1.43472272452330      0.40959509112473
  N   -1.10614738323809     -2.25747618333357      1.20437046597682
