13
Coordinates from ORCA-job run
  C   0.92488717247025      0.10299586964114     -0.28235788177655
  C   -0.49444751359805     -0.40611779036262     -0.53067679497151
  Br  2.13999616306297     -1.45827531478946     -0.63667110129211
  H   -0.57388117621584     -0.83349534638403     -1.53201936297238
  H   1.18174543149357      0.81594548676813     -1.06322891481130
  N   1.02287659810269      0.69422424155114      0.98635640025823
  H   0.88261607412935      0.04056196738741      1.74726003170295
  H   1.88831394553555      1.19864570390586      1.11797869109900
  N   -1.40300904868733      0.81464439414705     -0.52562348429780
  O   -2.24810033584053      0.91395612829573      0.35109824356894
  O   -1.17539317842831      1.61085632991881     -1.42889185790875
  C   -0.92184603177814     -1.35999431083757      0.48348113957340
  N   -1.22375810024622     -2.13294735924159      1.31429489182780
