13
Coordinates from ORCA-job run
  C   0.92025427786309      0.18363313782311     -0.25450945073798
  C   -0.45527960346723     -0.40480601550319     -0.56560818031743
  Br  2.24761927548403     -1.26451100809141     -0.67785107200580
  H   -0.48618224073042     -0.77218613064619     -1.59307733699288
  H   1.14022885608215      0.96093715648979     -0.98356937865216
  N   0.95405092084361      0.69880259234022      1.05032706202094
  H   1.78059564724116      1.25091262858162      1.23176980560928
  H   0.84622436578950     -0.00959563870284      1.76616424717487
  N   -1.44679690835002      0.74818232258358     -0.50564223762364
  O   -2.31128103628844      0.73507009863924      0.35763384014997
  O   -1.26034727549995      1.61225966302204     -1.35437175743061
  C   -0.83385847221878     -1.44787151752539      0.37757725297197
  N   -1.09522780674871     -2.29082728901057      1.15215720583348
