13
Coordinates from ORCA-job run
  C   0.70579120846362      0.05330123464288      0.51632895008618
  C   -0.52859708034628      0.13163688263153     -0.38209992657360
  Br  0.59955719028369      1.60355780499202      1.77969082765364
  H   -0.55857835295476      1.07592535871635     -0.93020900635526
  H   0.62789500650163     -0.82368578130901      1.15692005676068
  N   1.87097943822041      0.00291271916263     -0.27273495953940
  H   2.04151799726068      0.86431693191640     -0.77583099046648
  H   2.68953809762412     -0.23912366705750      0.26829028918905
  N   -1.78577544632778      0.09725341729435      0.45762393105156
  O   -2.60006070330257      0.99098314883460      0.26610463591707
  O   -1.87580909879982     -0.83413399273136      1.24799574795443
  C   -0.56789615716869     -1.00569176105736     -1.29736714597880
  N   -0.61856209945422     -1.91825229603552     -2.03471240969900
