13
Coordinates from ORCA-job run
  C   0.75932999714184      0.09324081628579      0.56647528115293
  C   -0.51564874235696      0.21683281371212     -0.29615621215895
  Br  0.82242150274623      1.66640961394828      1.71948729874384
  H   -0.52227264650224      1.15652142532465     -0.85228087121327
  H   0.64134840976136     -0.76853358310992      1.22421975777390
  N   1.97281999310005     -0.02284312350679     -0.16998473415169
  H   2.07621655885253     -0.93991345652003     -0.58506413154623
  H   2.08538075242150      0.70175860119978     -0.86652851112960
  N   -1.74731556194252      0.22821361307522      0.57658490283847
  O   -2.50361449471123      1.18359630734277      0.45595161468274
  O   -1.86947718976078     -0.72543156235337      1.33740215188365
  C   -0.59717253582840     -0.92864825672164     -1.19672944301649
  N   -0.60101604292139     -1.86020320867682     -1.91237710385933
