13
Coordinates from ORCA-job run
  C   0.92285934536322     -0.19362946351948      0.02831887904793
  C   -0.48747168550393     -0.08478260281537     -0.56552571610505
  Br  0.78421773977010     -1.32042676818321      1.68882428457942
  H   -0.45161845492475      0.67621722270574     -1.35249498869424
  H   1.51493820395937     -0.82173931617824     -0.63695464538017
  N   1.53682488313786      1.06274233319257      0.17913962597932
  H   2.50183826519928      0.97462090994031      0.46723697358836
  H   1.03098010322066      1.66338718390083      0.81643044086286
  N   -1.47833562817330      0.44762628811989      0.45151730823799
  O   -2.48944564932873     -0.20004705136765      0.67406453143748
  O   -1.16902788146068      1.52171491949035      0.95805918562579
  C   -0.94983463446285     -1.35410285710170     -1.10770623313339
  N   -1.26592460679626     -2.37158079818403     -1.60090964604628
