13
Coordinates from ORCA-job run
  C   0.97500182252860     -0.17032161378640      0.11717500671569
  C   -0.46371147198019     -0.21141313865920     -0.47077171051002
  Br  0.93318081769780     -1.09477232988914      1.84542679185794
  H   -0.47636716740137      0.43493520474072     -1.35430902269330
  H   1.58824394885493     -0.80122084040036     -0.52900020234693
  N   1.58504694705006      1.10431992651922      0.24221123533564
  H   0.96185214592715      1.79310646339570      0.64037909637652
  H   1.96842860230116      1.42709874736960     -0.63573483191545
  N   -1.45454704309027      0.41193798411772      0.48414639454098
  O   -1.26908150084973      1.60619908811263      0.70685330685663
  O   -2.33076532248676     -0.29208141613483      0.96331279284316
  C   -0.87573869636343     -1.55966632875513     -0.83045341476870
  N   -1.14154308218794     -2.64912174663045     -1.17923544229211
