13
Coordinates from ORCA-job run
  C   0.73514794811529      0.13726777022835      0.45926696840702
  C   -0.55941798891213      0.06734239553261     -0.35069504641977
  Br  0.62086532419235      1.78652790829768      1.58957437194608
  H   -0.68434265810591      0.95617692512078     -0.97312480664857
  H   0.75388462497041     -0.68157957693845      1.17667094904664
  N   1.84537192583966      0.07939091435536     -0.40497068022818
  H   2.71181752070979     -0.06700893164800      0.09416985552341
  H   1.92858704402653      0.89947322337059     -0.99211741925559
  N   -1.75225660160071      0.03768540050663      0.57807893720116
  O   -1.73234411681415     -0.82556342095240      1.44682890334386
  O   -2.63077572059779      0.86491593065631      0.37220193567161
  C   -0.59109994612255     -1.14587795337359     -1.16314160521044
  N   -0.64543735570075     -2.10975058515580     -1.83174236337733
