13
Coordinates from ORCA-job run
  C   0.93593812464508     -0.11284204582855     -0.04149467485917
  C   -0.52611947593488     -0.19763955565398     -0.49826645240052
  Br  1.05317157733749     -1.01883823904025      1.75105083106189
  H   -0.63207314591481      0.45322166705319     -1.37285614899250
  H   1.52166619349466     -0.77369442740563     -0.68009389666954
  N   1.44109358599614      1.19781543036407     -0.10965698758059
  H   2.43185042130355      1.22761217387665      0.08892496669693
  H   0.93971940679224      1.83464056225561      0.49516187596768
  N   -1.46682021388061      0.38219893950896      0.53984133440048
  O   -1.21465605842279      1.53517944687402      0.87620499048641
  O   -2.38954971401726     -0.30978805761983      0.94119823262575
  C   -0.91491213676903     -1.56044782638598     -0.83079107664731
  N   -1.17830856462980     -2.65641806799827     -1.15922299408953
