13
Coordinates from ORCA-job run
  C   0.97966220146562     -0.17232482186738      0.07090849629730
  C   -0.48229499326464     -0.19863792386945     -0.45648626999433
  Br  1.01043680843247     -1.14678447543433      1.77190326367103
  H   -0.53278832548788      0.47180949944020     -1.32056683554144
  H   1.56508678973580     -0.78291231834762     -0.61906960048845
  N   1.59450131261797      1.09873398223200      0.20732053601753
  H   1.94137886654701      1.44719004598257     -0.67594139711732
  H   0.98895133667032      1.77515867617208      0.65117006121766
  N   -1.43254529787525      0.39628184707275      0.55649626090249
  O   -1.23646418589753      1.58316385253625      0.80757815442123
  O   -2.29070706855201     -0.32114296300717      1.04822992656760
  C   -0.90990462492785     -1.53648195452045     -0.83640143730592
  N   -1.19431281946403     -2.61505344638945     -1.20414115864738
