13
Coordinates from ORCA-job run
  C   1.03696096379121      0.06090858416969     -0.25594157182743
  C   -0.39960543352556     -0.40974448583914     -0.54739865169527
  Br  2.17380844110161     -1.50410043806063     -0.57746468188818
  H   -0.47863119248904     -0.83616549159166     -1.55216374920678
  H   1.31537484811510      0.79247657237197     -1.01194840654752
  N   1.27936150498527      0.59866536613807      1.03416769376024
  H   0.93110741106862      1.54372980515446      1.11603253166314
  H   0.94549476428839      0.00983822698834      1.78597942946596
  N   -1.34995450854054      0.78674763844669     -0.55628107043049
  O   -2.53981126805062      0.54355210183270     -0.41497115252992
  O   -0.84765241439603      1.88713695126481     -0.76117610608655
  C   -0.87136156060141     -1.36155440223311      0.44921299449953
  N   -1.19509155574700     -2.11149042864216      1.29295274082330
