13
Coordinates from ORCA-job run
  C   0.92323081562543      0.15727328247294     -0.25903409508334
  C   -0.49007773263504     -0.32212647302990     -0.58765808502233
  Br  2.15714076492920     -1.31415178200788     -0.85042766652259
  H   -0.56420233824612     -0.58958809739388     -1.64343641598139
  H   1.17186247208127      0.98712885279506     -0.91752264284393
  N   1.01316745291027      0.54334442156869      1.08720877507115
  H   0.88279107645233     -0.22400163995839      1.73535682352678
  H   1.87198184478981      1.03201971337146      1.29785222662827
  N   -1.41174699665271      0.87286348130231     -0.39460404189964
  O   -1.19205977249339      1.80374875698014     -1.16067618899496
  O   -2.25908213060639      0.82393949865196      0.48440092915454
  C   -0.90881160026177     -1.42738375448133      0.26349214410792
  N   -1.19319385589289     -2.34106626027116      0.94404823785946
