13
Coordinates from ORCA-job run
  C   0.76018285604200     -0.05569297910207      0.56992866154859
  C   -0.54806453922797      0.25434277319178     -0.18946915553453
  Br  0.66623823028136      0.88830505061951      2.27579124882514
  H   -0.68969122797105      1.33119294837548     -0.30183477217596
  H   0.77127363541347     -1.12029245750410      0.80586447113441
  N   1.95333517311659      0.29899215790576     -0.12165098313309
  H   2.15915447004472     -0.34480767546507     -0.87453866781439
  H   1.95118549374288      1.25383921273456     -0.45486571339400
  N   -1.74228830347293     -0.25517237524944      0.58098591124922
  O   -2.61543927625823      0.55932764595220      0.85224375113941
  O   -1.71952037127260     -1.44579134994200      0.87253545091115
  C   -0.51734346773054     -0.41134679499050     -1.48784839584506
  N   -0.43002267270772     -0.95189615652607     -2.52714180691088
