13
Coordinates from ORCA-job run
  C   0.70390203156649      0.10556497220857      0.51056368659401
  C   -0.52918179217823      0.09228857599083     -0.39316599329385
  Br  0.58263996077033      1.76320095529048      1.62792588170011
  H   -0.56462727481471      0.98281468666674     -1.02461264963129
  H   0.63178576438839     -0.71025522089156      1.22799345538896
  N   1.87115381989500     -0.00665428966804     -0.26890295007941
  H   2.69029659805587     -0.19328254046839      0.29278971510950
  H   2.03660252763695      0.80731288403853     -0.84709706879009
  N   -1.78767819222160      0.12445251637143      0.44440201020351
  O   -1.87382578324922     -0.73464580438835      1.31325136273502
  O   -2.60673409619421      0.99322359689630      0.17406429291126
  C   -0.55754823019542     -1.12346634527702     -1.20176936427459
  N   -0.59578533345962     -2.09955398676953     -1.85344237857312
