13
Coordinates from ORCA-job run
  C   0.67921036310960      0.18665162422477      0.52661884483338
  C   -0.57000364257760      0.17636237366865     -0.36116411599726
  Br  0.57684977213262      1.72442839499544      1.70710590669373
  H   -0.65827658004351      1.12519580579423     -0.89135868361157
  H   0.65577644799540     -0.68853881684875      1.18335733345744
  N   1.83035563200178      0.32001904156272     -0.33508851465079
  H   2.02718099053944     -0.57146955435975     -0.77979887726689
  H   2.64329458079873      0.59017388168071      0.20408101062479
  N   -1.80804325194995      0.01571415366379      0.48390444296803
  O   -2.66173194718143      0.88808397936294      0.38294415462553
  O   -1.84036580701168     -0.97390380308396      1.20731727998741
  C   -0.49632256943408     -0.94467976853457     -1.29335796232516
  N   -0.37892398837928     -1.84903731212619     -2.03356081933864
