13
Coordinates from ORCA-job run
  C   0.69048049619869      0.46661629410195      0.28008831336487
  C   -0.59945381697813     -0.06946065837750     -0.35051585468006
  Br  0.53978023714749      2.39626027563408      0.43127879243959
  H   -0.78320484052542      0.42838045966978     -1.30312720132037
  H   0.76414644996368      0.09725598666480      1.30762671969189
  N   1.78258938185788      0.13905598608014     -0.60632865156989
  H   2.59926190877405      0.69125117114749     -0.37718049167063
  H   2.02354782718394     -0.84176490356571     -0.50090916537367
  N   -1.77691878241184      0.22222583994466      0.54462788427255
  O   -2.69729286468394      0.86427362639778      0.05405405989041
  O   -1.69825558910879     -0.20371987793262      1.69177747926976
  C   -0.49426444911343     -1.51543038162518     -0.52072476954284
  N   -0.35041595830418     -2.67394381813965     -0.65066711477162
