13
Coordinates from ORCA-job run
  C   0.92348043735712      0.19896197732354     -0.22726434439391
  C   -0.46156220284822     -0.31800390404396     -0.61524707877800
  Br  2.22691316362445     -1.20335359997011     -0.83931033128703
  H   -0.49540945551049     -0.54480452903852     -1.68251502663708
  H   1.15969989614506      1.06247410536759     -0.84592475244679
  N   0.96235724180991      0.53478922582001      1.13452798361945
  H   1.79668037788365      1.04520168349495      1.38808648138493
  H   0.84261752938581     -0.26110522080347      1.74961339112097
  N   -1.43126618341226      0.83477813497427     -0.40227533887467
  O   -1.22689446074666      1.80051398976226     -1.12856161486149
  O   -2.29678162705116      0.72391511920339      0.45292671851895
  C   -0.86090061117155     -1.47021310737112      0.18083314652254
  N   -1.13893410546566     -2.40415387471884      0.83611076611212
