13
Coordinates from ORCA-job run
  C   0.91925236005832     -0.20019579804515      0.07326299438021
  C   -0.46538253938564     -0.10298665731214     -0.57935748596346
  Br  0.70200013045876     -1.25751796370472      1.77156051049432
  H   -0.39166663895018      0.62335505519064     -1.39610881885812
  H   1.52924474316163     -0.86182421195077     -0.54140513556273
  N   1.54275531221127      1.05405191461395      0.19702860981510
  H   2.49635926279282      0.96709519018820      0.52112473334366
  H   1.02245297763450      1.68492993394100      0.79189006850997
  N   -1.49191312407988      0.48079997146258      0.37258074289421
  O   -1.18681428483878      1.56547366743249      0.85836054939080
  O   -2.52958613350941     -0.13567639033412      0.55845706303512
  C   -0.91922533608150     -1.38991614854314     -1.08642857254937
  N   -1.22747672947184     -2.42758856293888     -1.54096525892975
