13
Coordinates from ORCA-job run
  C   0.92837416552613     -0.19247879109309      0.15458077680235
  C   -0.44149974199501     -0.24826462063555     -0.53686814155694
  Br  0.97196516311846     -1.26768537880092      1.77584602837076
  H   -0.35628872383228      0.27690086978815     -1.49333040631240
  H   1.63374606878014     -0.69765122575310     -0.51729922918486
  N   1.22555963245611      1.17019029665214      0.49410777523907
  H   2.14615171092510      1.24326506142019      0.90699095481768
  H   1.17029826544509      1.77372643888232     -0.31897336704214
  N   -1.45887470214255      0.54751944238470      0.24686315494520
  O   -1.60827157108981      1.70805496798867     -0.11946228407787
  O   -2.01569594322316     -0.01503348296910      1.17896479850840
  C   -0.91517959425380     -1.60492631813023     -0.76535960629742
  N   -1.28028472971443     -2.69461725973417     -1.00506045421184
