13
Coordinates from ORCA-job run
  C   0.93692665076143     -0.11326886955119      0.00170647570429
  C   -0.50583493572733     -0.22962936574554     -0.50551014969141
  Br  0.98286040315708     -0.90559277860134      1.85116149899949
  H   -0.57822568366051      0.36442048082171     -1.42298242918046
  H   1.54727086213769     -0.81202242971504     -0.56997970476362
  N   1.44523459850372      1.19130509049619     -0.12805872740941
  H   2.42708688125785      1.23535629747733      0.10871132514945
  H   0.92016067877425      1.86412919507762      0.41460994116210
  N   -1.48640015450177      0.41270553713546      0.45672810431762
  O   -2.42441561608518     -0.25455449313771      0.86435658115782
  O   -1.24693747823841      1.58492310569823      0.72967649360638
  C   -0.88255587402971     -1.61135695148879     -0.76628734421372
  N   -1.13417033234910     -2.72641481846691     -1.03413206483856
