13
Coordinates from ORCA-job run
  C   0.99109575139144      0.26025768426225     -0.21692957617702
  C   -0.41000326988917     -0.19171241882305     -0.69664120327854
  Br  2.27618825516076     -0.87259913388722     -1.16818809339203
  H   -0.49330198250917     -0.09956053152988     -1.78091367001769
  H   1.15096992554012      1.27326566100690     -0.58814929987200
  N   1.21291775026333      0.22009862074669      1.18022110944056
  H   0.83206003827415      1.01975383997707      1.66571435986971
  H   0.92868191842935     -0.64766329946706      1.61454688845865
  N   -1.38402858223589      0.80782220130484     -0.11255487739214
  O   -1.37708258108334      1.90605559775272     -0.66060965045703
  O   -2.02977755139743      0.48539729826502      0.87763932475870
  C   -0.73713643344781     -1.53570955084222     -0.24655024853345
  N   -0.96258323849634     -2.62440596876604      0.13141493659226
