13
Coordinates from ORCA-job run
  C   0.97494090863766     -0.17695697971962      0.11025423777354
  C   -0.46930678180449     -0.21245013519476     -0.46447909460245
  Br  0.94138829329856     -1.08394438647798      1.84789113525184
  H   -0.48519913085216      0.42454800770774     -1.35472542020245
  H   1.57691979367583     -0.81918273560547     -0.53538487415355
  N   1.59673231458083      1.09384742815239      0.21728756092805
  H   0.98204775697581      1.79159602721570      0.61307728827276
  H   1.97307892462100      1.40444719754966     -0.66815486931045
  N   -1.44649350997342      0.42904079659223      0.49253115080874
  O   -2.32492455433466     -0.26224803755448      0.98604526246085
  O   -1.24893912873600      1.62387380488305      0.70133820202671
  C   -0.89501715694420     -1.56109253829096     -0.80614502980209
  N   -1.17622772914474     -2.65147844925750     -1.13953554945148
