16

C	-0.546615	-0.019141	-1.423307
C	0.0	0.0	0.0
Cl	0.216885	-1.322033	-2.352038
H	1.094252	0.0	0.0
H	-0.387221	0.910449	0.469817
C	-2.052251	-0.179651	-1.510658
H	-2.387835	-0.194868	-2.55077
H	-2.301188	-1.124911	-1.029414
H	-2.536821	0.643119	-0.982091
N	-0.197304	1.322039	-2.067186
O	0.554511	1.384017	-3.029554
O	-0.747725	2.291501	-1.540766
N	-0.449842	-1.215873	0.69738
H	-0.975811	-0.97153	1.524902
H	0.398106	-1.677792	1.004967
F	2.6547	0.0	0.0
