16

C	-0.214305	0.022014	-1.513628
C	0.0	0.0	0.0
Cl	-0.064297	1.710752	-2.105238
H	1.093809	0.0	0.0
H	-0.460427	0.869949	0.467791
C	0.808734	-0.843207	-2.209573
H	1.770419	-0.568167	-1.748206
H	0.796734	-0.711828	-3.290709
H	0.598448	-1.891594	-1.980227
N	-1.639643	-0.379351	-1.891696
O	-2.547103	0.031878	-1.171154
O	-1.807736	-1.09478	-2.879127
N	-0.423594	-1.23436	0.645
H	-1.328193	-1.563972	0.334237
H	0.279422	-1.945628	0.49738
F	2.716361	0.0	0.0
