16

C	-0.307224	0.099626	-1.480143
C	0.0	0.0	0.0
Cl	-0.138596	1.803979	-2.016419
H	1.098075	0.0	0.0
H	-0.43827	0.83585	0.547129
C	0.633503	-0.775216	-2.267369
H	0.40465	-1.815405	-2.025558
H	0.544625	-0.618475	-3.341002
H	1.632904	-0.537708	-1.881395
N	-1.766469	-0.242017	-1.758911
O	-2.596734	0.152448	-0.941129
O	-2.036861	-0.861979	-2.786526
N	-0.443663	-1.319531	0.457589
H	-1.252361	-1.245237	1.058143
H	0.320988	-1.736274	0.976865
F	2.703525	0.0	0.0
