16

C	-0.599708	0.005735	-1.389349
C	0.0	0.0	0.0
Cl	0.110275	-1.337302	-2.339469
H	1.092995	0.0	0.0
H	-0.338916	-0.93775	0.458654
C	-2.108653	-0.099176	-1.432122
H	-2.51957	0.7374	-0.863066
H	-2.477362	-0.078354	-2.456059
H	-2.402643	-1.038184	-0.958114
N	-0.20173	1.279922	-2.13969
O	0.687824	1.973551	-1.665796
O	-0.807282	1.521502	-3.187175
N	-0.537945	1.161482	0.739456
H	0.247743	1.791335	0.853963
H	-0.811295	0.864302	1.667393
F	2.676722	0.0	0.0
