16

C	-0.269791	-0.016063	-1.48895
C	0.0	0.0	0.0
Cl	-0.037051	1.603365	-2.202016
H	1.093624	0.0	0.0
H	-0.319516	-0.983712	0.373863
C	0.682534	-0.991355	-2.149179
H	1.674343	-0.740539	-1.746554
H	0.633926	-0.927547	-3.235678
H	0.427289	-2.009633	-1.835008
N	-1.714047	-0.389738	-1.830774
O	-2.522708	-0.458568	-0.905786
O	-1.985008	-0.62192	-3.006343
N	-0.581913	1.115112	0.721154
H	0.108839	1.455306	1.374876
H	-1.405311	0.825219	1.229316
F	2.71777	0.0	0.0
