16

C	-0.572093	0.004351	-1.400581
C	0.0	0.0	0.0
Cl	0.179252	-1.318536	-2.343958
H	1.092829	0.0	0.0
H	-0.342561	-0.938892	0.453256
C	-2.076846	-0.122104	-1.47894
H	-2.514564	0.701614	-0.912211
H	-2.422547	-0.097195	-2.510791
H	-2.365987	-1.07028	-1.021012
N	-0.175521	1.295761	-2.121725
O	-0.770705	1.551748	-3.169802
O	0.703596	1.987468	-1.627848
N	-0.552501	1.161719	0.728137
H	0.232706	1.790434	0.858067
H	-0.842357	0.864739	1.650987
F	2.669146	0.0	0.0
