17

C	-0.608499	-0.006707	-1.402122
C	0.0	0.0	0.0
Cl	0.028195	1.300775	-2.407321
H	1.092769	0.0	0.0
N	-0.182122	-1.30442	-2.154189
O	-0.878263	-1.612294	-3.121436
O	0.792188	-1.925101	-1.752156
N	-2.01939	0.061354	-1.322387
H	-2.301411	-0.690159	-0.699085
H	-2.422852	-0.072931	-2.240754
N	-0.534255	-1.213902	0.670855
H	-0.501287	-1.025948	1.66599
H	0.128345	-1.964697	0.500633
N	-0.412134	1.22081	0.639745
H	-1.382083	1.188423	0.922018
H	0.196767	1.420857	1.420601
Br	3.608137	0.0	0.0
