17

C	-0.354328	0.03519	-1.488727
C	0.0	0.0	0.0
Cl	-0.112473	-1.590513	-2.261172
H	1.102972	0.0	0.0
N	-1.84269	0.307714	-1.700813
O	-2.155956	1.087785	-2.596095
O	-2.626362	-0.297429	-0.981691
N	0.38476	1.067886	-2.089579
H	0.206133	1.141763	-3.080494
H	1.374753	0.920421	-1.89882
N	-0.468409	-1.157404	0.702535
H	0.158145	-1.349252	1.474332
H	-1.41019	-0.992937	1.036847
N	-0.53034	1.254284	0.563693
H	-0.122035	2.021486	0.037478
H	-0.150158	1.318349	1.50365
Br	3.533343	0.0	0.0
