17

C	-0.370731	-0.051319	-1.490853
C	0.0	0.0	0.0
Cl	-2.15378	-0.139184	-1.679137
H	1.100765	0.0	0.0
N	0.083728	1.240983	-2.183979
O	1.060503	1.167975	-2.917204
O	-0.537308	2.271046	-1.927674
N	0.226831	-1.142211	-2.180179
H	0.035198	-1.945845	-1.586696
H	1.234709	-0.988335	-2.161069
N	-0.390961	-1.291503	0.561293
H	-1.244766	-1.140964	1.086743
H	0.334529	-1.58086	1.207095
N	-0.566026	1.118607	0.740538
H	-0.899159	1.835865	0.108286
H	0.179057	1.525537	1.29567
Br	3.496648	0.0	0.0
