17

C	-0.468361	0.037682	-1.456935
C	0.0	0.0	0.0
Cl	-2.330886	0.35421	-1.494048
H	1.098809	0.0	0.0
N	0.044103	1.233761	-2.256415
O	0.124232	1.078367	-3.46874
O	0.293716	2.271966	-1.655783
N	-0.092689	-1.112345	-2.114266
H	-0.266095	-1.910145	-1.514815
H	-0.446783	-1.188479	-3.055185
N	-0.405402	-1.298379	0.529399
H	-1.261388	-1.159823	1.05681
H	0.323568	-1.633297	1.148713
N	-0.552463	1.075328	0.820558
H	0.037266	1.10858	1.647383
H	-0.396002	1.952844	0.338105
Br	3.527954	0.0	0.0
