17

C	-0.365395	-0.112366	-1.484862
C	0.0	0.0	0.0
Cl	-2.063943	-0.603786	-1.758163
H	1.100282	0.0	0.0
N	-0.233558	1.31932	-2.093199
O	0.914518	1.618027	-2.405081
O	-1.215392	2.039349	-2.189587
N	0.505654	-1.04092	-2.089358
H	0.405325	-1.061474	-3.095797
H	1.469051	-0.825986	-1.827827
N	-0.491481	-1.198754	0.695696
H	0.13989	-1.338772	1.479471
H	-0.347041	-1.996138	0.082195
N	-0.482141	1.220127	0.587612
H	-1.37862	1.03788	1.022755
H	0.175953	1.533378	1.28854
Br	3.534227	0.0	0.0
