17

C	-0.612892	-0.019531	-1.398625
C	0.0	0.0	0.0
Cl	0.167207	1.293792	-2.419739
H	1.0935	0.0	0.0
N	-0.253498	-1.296451	-2.140376
O	-1.09711	-1.717187	-2.931797
O	0.849654	-1.773532	-1.938497
N	-2.005735	0.07772	-1.31631
H	-2.229318	0.893644	-0.760022
H	-2.444163	0.082254	-2.225768
N	-0.457626	-1.191128	0.668616
H	0.190136	-1.447696	1.401084
H	-1.396176	-1.069833	1.027351
N	-0.502862	1.2403	0.644057
H	0.083694	2.004874	0.318048
H	-0.290796	1.13865	1.63108
Br	3.613111	0.0	0.0
