17

C	-0.354746	0.035597	-1.488608
C	0.0	0.0	0.0
Cl	-0.113665	-1.589935	-2.261571
H	1.102943	0.0	0.0
N	-1.843212	0.308389	-1.699938
O	-2.626591	-0.297984	-0.981568
O	-2.156791	1.089866	-2.593852
N	0.384221	1.06834	-2.089552
H	1.374361	0.9207	-1.899351
H	0.204987	1.142571	-3.080398
N	-0.468329	-1.157574	0.702359
H	-1.409831	-0.992926	1.037322
H	0.158639	-1.349858	1.47369
N	-0.530402	1.254138	0.564045
H	-0.123009	2.021462	0.03729
H	-0.149232	1.318566	1.503496
Br	3.533646	0.0	0.0
