17

C	0.0	0.0	0.0
C	-0.484481	0.009949	-1.439659
F	1.395831	0.0	0.0
H	-1.580528	0.046923	-1.341782
H	-0.272157	0.958505	0.468477
N	-0.52973	-1.132331	0.695058
H	-0.361953	-1.001306	1.68841
H	-1.554243	-1.010557	0.563881
C	-0.067834	-1.261503	-2.170049
H	-0.43918	-2.141596	-1.643962
H	1.023408	-1.336535	-2.232141
H	-0.470938	-1.265523	-3.188768
C	0.004448	1.259905	-2.162695
H	1.097962	1.293046	-2.203078
H	-0.376729	1.285658	-3.188743
H	-0.348658	2.163123	-1.655094
H	-3.170577	0.0	0.0
