17

C	0.0	0.0	0.0
C	-0.551198	-0.044309	-1.406294
F	1.419481	0.0	0.0
H	-1.639338	0.051757	-1.240518
H	-0.311486	0.928676	0.484563
N	-0.443136	-1.099867	0.783882
H	-0.333529	-0.916529	1.769836
H	0.072176	-1.931696	0.532639
C	-0.275583	-1.379097	-2.088701
H	-0.801679	-2.184712	-1.573078
H	0.797323	-1.602558	-2.117217
H	-0.643325	-1.359156	-3.118405
C	-0.029219	1.129095	-2.227077
H	-0.245466	2.078759	-1.72776
H	-0.513126	1.155971	-3.207854
H	1.053093	1.060931	-2.376494
H	-3.767533	0.0	0.0
