17

C	0.0	0.0	0.0
C	-0.448649	-0.026573	-1.455
F	1.418217	0.0	0.0
H	0.260936	0.627829	-1.978671
H	-0.286186	0.94633	0.466558
N	-0.522238	-1.06017	0.769314
H	-0.3391	-0.944837	1.75504
H	-0.183141	-1.957035	0.453725
C	-1.858321	0.539032	-1.607332
H	-2.185484	0.457383	-2.649428
H	-2.621041	0.055697	-0.980847
H	-1.876963	1.601756	-1.343684
C	-0.327559	-1.427355	-2.050543
H	0.660375	-1.861875	-1.862535
H	-1.09944	-2.082957	-1.640382
H	-0.473363	-1.387456	-3.13327
H	-4.767358	0.0	0.0
