17

C	0.0	0.0	0.0
C	-0.477535	0.014663	-1.442141
F	1.396339	0.0	0.0
H	-1.574112	0.041475	-1.351447
H	-0.273009	0.95674	0.471392
N	-0.529923	-1.134699	0.691093
H	-1.554207	-1.014202	0.559824
H	-0.364042	-1.006439	1.685213
C	-0.041475	-1.246592	-2.179196
H	-0.436244	-1.248159	-3.201107
H	1.050871	-1.307689	-2.233292
H	-0.405243	-2.134926	-1.662206
C	0.004028	1.274462	-2.15284
H	1.097448	1.318927	-2.182791
H	-0.362931	2.170672	-1.64265
H	-0.367642	1.30323	-3.182279
H	-3.164313	0.0	0.0
