15

C	0.0	0.0	0.0
C	-0.557805	-0.054444	-1.423725
F	1.383207	0.0	0.0
H	-1.715188	0.059511	-1.107641
C	-0.397609	1.268178	0.664775
N	-0.563575	2.272691	1.247086
N	-0.489154	-1.078621	0.794093
H	-0.281234	-1.952609	0.315187
H	-1.520273	-0.93018	0.770037
C	-0.290709	-1.335495	-2.039793
N	-0.170215	-2.405066	-2.515324
N	-0.067189	1.044924	-2.282402
O	-0.442364	2.180316	-1.987458
O	0.681327	0.773872	-3.225893
H	-2.742316	0.0	0.0
