17

C	-0.496497	-0.101979	-1.434161
C	0.0	0.0	0.0
Cl	-0.1166	1.418077	-2.316888
H	1.091391	0.0	0.0
H	-1.586009	-0.176788	-1.448406
C	0.174624	-1.261681	-2.148681
H	-0.151772	-2.212849	-1.720864
H	1.258296	-1.175624	-2.0411
H	-0.087147	-1.257385	-3.208398
C	-0.482245	-1.166255	0.854783
H	-1.564068	-1.303234	0.777069
H	-0.220162	-0.977249	1.898347
H	0.033884	-2.078429	0.554794
N	-0.541381	1.244084	0.622665
O	-1.767448	1.388865	0.569685
O	0.232818	2.01782	1.174059
Cl	3.414121	0.0	0.0
