17

C	-0.547002	-0.037158	-1.413144
C	0.0	0.0	0.0
Cl	0.071013	1.379377	-2.326648
H	1.091375	0.0	0.0
H	-1.629019	0.091709	-1.38736
C	-0.156559	-1.307826	-2.140509
H	-0.449673	-1.24985	-3.189001
H	0.920767	-1.458991	-2.081881
H	-0.665272	-2.16701	-1.699658
C	-0.519898	-1.148247	0.854203
H	-1.610265	-1.219999	0.805415
H	-0.218594	-0.986566	1.891295
H	-0.070852	-2.086132	0.528487
N	-0.476671	1.261402	0.660484
O	-1.678458	1.526802	0.553129
O	0.328459	1.922839	1.304926
Cl	3.401179	0.0	0.0
