15

C	0.0	0.0	0.0
C	-0.48069	0.012585	-1.45101
Cl	1.798674	0.0	0.0
H	-0.001831	0.851023	-1.966482
H	-1.562462	0.198032	-1.359526
C	-0.310489	1.319498	0.615061
N	-0.47918	2.371606	1.11189
N	-0.587572	-1.101206	0.686753
H	-1.623493	-0.912123	0.541276
H	-0.407208	-1.008775	1.683012
C	-0.234622	-1.301782	-2.176275
H	0.824884	-1.57136	-2.187458
H	-0.789317	-2.105562	-1.693274
H	-0.578486	-1.218103	-3.212136
H	-3.017629	0.0	0.0
