15

C	0.0	0.0	0.0
C	-0.458782	0.005233	-1.461621
Cl	1.802209	0.0	0.0
H	-1.55433	-0.06532	-1.367378
H	-0.07584	-0.920007	-1.911117
C	-0.355871	1.280687	0.646821
N	-0.540191	2.315266	1.171604
N	-0.552977	-1.070797	0.775166
H	-0.417798	-1.924195	0.237537
H	-1.584245	-0.853618	0.72098
C	-0.065343	1.225235	-2.282166
H	-0.414103	1.108839	-3.311949
H	-0.537366	2.121189	-1.87324
H	1.015024	1.382942	-2.304864
H	-3.013307	0.0	0.0
