15

C	0.0	0.0	0.0
C	-0.200137	0.05549	-1.560997
Cl	1.805832	0.0	0.0
H	0.308854	-0.848047	-1.919065
H	0.402709	0.896132	-1.919271
C	-0.376592	1.289595	0.607956
N	-0.546544	2.35037	1.082488
N	-0.625112	-1.062921	0.696736
H	-0.507843	-1.907873	0.142356
H	-1.658808	-0.793011	0.621134
C	-1.572331	0.133195	-2.211595
H	-1.404847	0.148522	-3.2996
H	-2.210267	-0.70265	-1.939968
H	-2.123702	1.019504	-1.911235
H	-3.046327	0.0	0.0
