15

C	0.0	0.0	0.0
C	-0.467564	0.099384	-1.443776
Cl	1.851169	0.0	0.0
H	-1.565881	0.062168	-1.346084
H	-0.124196	-0.814451	-1.937745
C	-0.292131	1.255125	0.736375
N	-0.450121	2.242995	1.354648
N	-0.56767	-1.160374	0.591019
H	-1.605918	-0.974839	0.462289
H	-0.391986	-1.148051	1.59223
C	-0.037151	1.351688	-2.190697
H	-0.440391	1.32828	-3.207208
H	-0.431236	2.245804	-1.7011
H	1.049169	1.445689	-2.258297
H	-2.998885	0.0	0.0
