15

C	0.0	0.0	0.0
C	-0.238686	0.050669	-1.54662
Cl	1.79535	0.0	0.0
H	0.447218	0.816072	-1.919886
H	0.153033	-0.913218	-1.889317
C	-0.339697	1.304457	0.619497
N	-0.50231	2.343074	1.147675
N	-0.631499	-1.125865	0.589427
H	-1.666057	-0.896025	0.429596
H	-0.486768	-1.093114	1.597343
C	-1.600181	0.308251	-2.178207
H	-2.325404	-0.462986	-1.943281
H	-2.04347	1.237506	-1.82568
H	-1.432785	0.370306	-3.263557
H	-3.06405	0.0	0.0
