15

C	0.0	0.0	0.0
C	-0.454273	0.08023	-1.451712
Cl	1.85637	0.0	0.0
H	0.039401	0.932139	-1.927066
H	-1.535351	0.275295	-1.365673
C	-0.278028	1.294268	0.670316
N	-0.450368	2.312338	1.232309
N	-0.591813	-1.118329	0.63491
H	-1.632139	-0.914615	0.475362
H	-0.432674	-1.064416	1.637748
C	-0.216439	-1.20563	-2.229289
H	-0.789209	-2.02063	-1.791196
H	-0.539591	-1.073985	-3.265396
H	0.838683	-1.488444	-2.232581
H	-2.987223	0.0	0.0
