15

C	0.0	0.0	0.0
C	-0.436107	-0.002159	-1.465673
Cl	1.797613	0.0	0.0
H	-1.523471	-0.142565	-1.419246
H	0.032853	-0.887239	-1.907127
C	-0.346163	1.282828	0.660582
N	-0.495608	2.321453	1.191975
N	-0.526148	-1.165553	0.63674
H	-0.285176	-1.143242	1.624418
H	-1.563485	-1.001523	0.552526
C	-0.095021	1.263241	-2.238012
H	-0.638963	2.116667	-1.826962
H	-0.395333	1.150535	-3.283781
H	0.973674	1.491653	-2.217783
H	-2.941311	0.0	0.0
