15

C	0.0	0.0	0.0
C	-0.461143	0.033902	-1.460434
Cl	1.802233	0.0	0.0
H	-0.114124	-0.901504	-1.917888
H	-1.558171	-0.005058	-1.360955
C	-0.350628	1.271434	0.669467
N	-0.520954	2.302148	1.206314
N	-0.559545	-1.080125	0.755475
H	-1.591026	-0.856269	0.700384
H	-0.426358	-1.925883	0.204415
C	-0.026672	1.241464	-2.277063
H	1.058876	1.310946	-2.374134
H	-0.391154	2.16301	-1.817067
H	-0.4562	1.183026	-3.28129
H	-3.006887	0.0	0.0
