15

C	0.0	0.0	0.0
C	-0.2265	-0.00093	-1.549034
Cl	1.795782	0.0	0.0
H	0.394795	0.814115	-1.932797
H	0.256134	-0.932084	-1.863291
C	-0.353973	1.312839	0.590596
N	-0.530184	2.363504	1.088953
N	-0.615344	-1.122831	0.615009
H	-0.460195	-1.073666	1.620044
H	-1.650295	-0.899246	0.461499
C	-1.593112	0.09539	-2.211058
H	-1.408939	0.08072	-3.29647
H	-2.123005	1.004617	-1.940189
H	-2.251303	-0.720163	-1.929292
H	-3.030149	0.0	0.0
