13

C	-0.539651	0.003365	-1.412895
C	0.0	0.0	0.0
F	-0.105666	-1.112449	-2.116122
H	1.093739	0.0	0.0
H	-1.636386	-0.053089	-1.402809
H	-0.328249	0.928435	0.481648
C	-0.168989	1.21072	-2.17297
N	0.124548	2.172334	-2.778274
C	-0.50808	-1.214191	0.769938
H	-0.17409	-2.132663	0.285109
H	-1.602006	-1.234564	0.841514
H	-0.096698	-1.208134	1.780749
Cl	3.521941	0.0	0.0
