12

C	-0.425936	-0.008892	-1.448477
C	0.0	0.0	0.0
Cl	-2.244039	-0.028491	-1.590913
H	1.093753	0.0	0.0
H	-0.127911	0.923906	-1.929914
H	-0.360216	-0.895607	0.512596
H	-0.369054	0.883397	0.52396
C	0.146192	-1.187757	-2.207448
H	-0.209868	-2.125179	-1.773318
H	-0.134749	-1.161983	-3.263293
H	1.235929	-1.152667	-2.114524
Cl	3.608379	0.0	0.0
