14

C	0.0	0.0	0.0
C	-0.578654	0.181088	-1.409739
Cl	1.780503	0.0	0.0
H	-1.683495	0.146334	-1.250855
H	-0.325009	-0.980915	0.349975
C	-0.483388	1.090143	0.937753
H	-0.119451	0.891683	1.947589
H	-0.101873	2.062766	0.617044
H	-1.574957	1.092058	0.938209
C	-0.192273	-0.905403	-2.310313
N	0.090784	-1.789196	-3.030173
C	-0.215781	1.47343	-1.992591
N	0.056043	2.51386	-2.464142
Br	-3.752401	0.0	0.0
