14

C	0.0	0.0	0.0
C	-0.579046	0.152803	-1.412915
Cl	1.780423	0.0	0.0
H	-1.683855	0.121342	-1.252688
H	-0.324733	-0.973727	0.369801
C	-0.483191	1.108857	0.916148
H	-0.117915	0.931285	1.929365
H	-0.102691	2.074918	0.575234
H	-1.574768	1.109973	0.917676
C	-0.192783	-0.950969	-2.29225
N	0.091248	-1.845999	-2.997707
C	-0.216589	1.433382	-2.021424
N	0.053608	2.46496	-2.513021
Br	-3.75196	0.0	0.0
