14

C	0.0	0.0	0.0
C	-0.475697	0.267236	-1.468664
Cl	1.783888	0.0	0.0
H	0.425229	0.383853	-2.082355
H	-0.330984	-0.993777	0.294817
C	-0.457848	1.038846	1.005809
H	-0.093506	0.760557	1.997477
H	-0.056754	2.0217	0.749739
H	-1.548827	1.064431	1.01146
C	-1.197555	1.531215	-1.649602
N	-1.590575	2.610588	-1.891857
C	-1.170579	-0.885738	-2.05103
N	-1.508882	-1.854741	-2.622471
Br	-3.59354	0.0	0.0
