14

C	0.0	0.0	0.0
C	-0.582022	0.150547	-1.411544
Cl	1.782442	0.0	0.0
H	-1.686431	0.120944	-1.248006
H	-0.322834	-0.97349	0.371985
C	-0.481725	1.110339	0.915011
H	-1.573079	1.113105	0.918557
H	-0.101808	2.075904	0.57176
H	-0.115392	0.93486	1.928206
C	-0.199817	-0.957228	-2.287562
N	0.104141	-1.860308	-2.974004
C	-0.21875	1.428803	-2.023318
N	0.071222	2.459643	-2.50538
Br	-3.752702	0.0	0.0
