14

C	0.0	0.0	0.0
C	-0.477023	-0.203191	-1.478713
Cl	1.7844	0.0	0.0
H	0.424884	-0.278905	-2.098837
H	-0.325728	-0.853598	0.59136
C	-0.456271	1.301172	0.631421
H	-0.083466	1.35174	1.656724
H	-0.06112	2.15305	0.073652
H	-1.546894	1.323786	0.634023
C	-1.204329	0.940107	-2.041488
N	-1.567511	1.905966	-2.602889
C	-1.160138	-1.48656	-1.671746
N	-1.488477	-2.588947	-1.91032
Br	-3.586185	0.0	0.0
