14

C	0.0	0.0	0.0
C	-0.5783	0.185692	-1.409337
Cl	1.78047	0.0	0.0
H	-1.683017	0.150536	-1.25042
H	-0.325031	-0.982189	0.346602
C	-0.483214	1.086733	0.94214
H	-1.574913	1.088908	0.942287
H	-0.119831	0.882956	1.950989
H	-0.100957	2.060425	0.626189
C	-0.192197	-0.898192	-2.313201
N	0.090536	-1.778292	-3.037719
C	-0.215076	1.47976	-1.98782
N	0.055504	2.523028	-2.453923
Br	-3.752377	0.0	0.0
