14

C	0.0	0.0	0.0
C	-0.580048	0.101177	-1.417408
Cl	1.780512	0.0	0.0
H	-1.684811	0.074778	-1.255699
H	-0.325663	-0.959389	0.404772
C	-0.482743	1.141969	0.875754
H	-0.096355	2.094014	0.504503
H	-1.574466	1.147141	0.873141
H	-0.122333	0.996715	1.896084
C	-0.194845	-1.034274	-2.255932
N	0.085213	-1.955137	-2.928935
C	-0.216101	1.358768	-2.07119
N	0.074815	2.375307	-2.58227
Br	-3.751022	0.0	0.0
