15

C	-0.413112	-0.030274	-1.458905
C	0.0	0.0	0.0
F	-0.194345	1.184174	-2.031557
H	1.093505	0.0	0.0
H	-0.329019	-0.922622	0.482146
C	0.30432	-1.101214	-2.241091
H	0.014212	-1.039732	-3.292696
H	0.057008	-2.086531	-1.847544
H	1.377203	-0.927161	-2.131394
N	-1.921007	-0.277881	-1.55685
O	-2.320278	-1.315624	-1.032482
O	-2.613679	0.539128	-2.150507
C	-0.558805	1.146259	0.702515
N	-1.040185	2.053293	1.271088
Cl	3.319968	0.0	0.0
