15

C	-0.442866	0.14835	-1.445816
C	0.0	0.0	0.0
F	-1.810038	0.309852	-1.524705
H	1.091185	0.0	0.0
H	-0.378076	-0.937878	0.411951
C	0.25202	1.257363	-2.181176
H	-0.054856	1.26669	-3.227996
H	-0.031165	2.200765	-1.711469
H	1.332057	1.126582	-2.103335
N	-0.18897	-1.201273	-2.124448
O	-0.928485	-2.122149	-1.767812
O	0.717109	-1.274914	-2.954163
C	-0.497154	1.117313	0.792763
N	-0.903211	2.017317	1.42592
Cl	3.301971	0.0	0.0
