15

C	-0.403816	-0.068559	-1.461789
C	0.0	0.0	0.0
F	-0.207783	1.139296	-2.056731
H	1.093455	0.0	0.0
H	-0.328694	-0.911772	0.502754
C	0.345201	-1.137934	-2.216174
H	0.063949	-1.103442	-3.271212
H	1.412694	-0.937786	-2.098338
H	0.117276	-2.121085	-1.805299
N	-1.904103	-0.351728	-1.565302
O	-2.283738	-1.388882	-1.026157
O	-2.610619	0.439907	-2.177058
C	-0.565101	1.161816	0.670879
N	-1.053439	2.080354	1.214481
Cl	3.320443	0.0	0.0
