15

C	-0.423284	0.137	-1.44911
C	0.0	0.0	0.0
F	-1.798553	0.236227	-1.554991
H	1.091239	0.0	0.0
H	-0.372196	-0.939583	0.412733
C	0.239004	1.27909	-2.160397
H	-0.066492	2.205136	-1.670961
H	-0.061594	1.302174	-3.208028
H	1.321681	1.172658	-2.078909
N	-0.113306	-1.193024	-2.144981
O	-0.603604	-2.193912	-1.6298
O	0.536026	-1.172248	-3.183513
C	-0.508276	1.120865	0.77796
N	-0.933126	2.026678	1.392868
Cl	3.299156	0.0	0.0
