15

C	-0.360701	-0.044093	-1.471029
C	0.0	0.0	0.0
F	-0.119511	1.141461	-2.079764
H	1.096576	0.0	0.0
H	0.178728	-0.842081	-1.981512
N	-1.829242	-0.35344	-1.6583
O	-2.620644	0.582631	-1.638381
O	-2.115875	-1.544989	-1.771084
C	-0.439939	-1.256989	0.755114
H	0.00121	-1.232683	1.752105
H	-1.525538	-1.333846	0.845819
H	-0.063239	-2.144344	0.243033
C	-0.520338	1.206487	0.632582
N	-0.953386	2.14471	1.190628
Cl	3.259524	0.0	0.0
