15

C	-0.486669	-0.034449	-1.435993
C	0.0	0.0	0.0
F	-1.847837	0.088396	-1.508476
H	1.095513	0.0	0.0
H	-0.020161	0.736198	-2.049378
N	-0.134391	-1.3473	-2.091775
O	-0.908077	-2.284976	-1.916281
O	0.899742	-1.365186	-2.749587
C	-0.495189	-1.170993	0.852574
H	-1.580504	-1.277314	0.80661
H	-0.029055	-2.097105	0.516726
H	-0.191528	-1.0018	1.886474
C	-0.454422	1.272876	0.560554
N	-0.846406	2.280044	1.020243
Cl	3.275032	0.0	0.0
