15

C	-0.512682	0.00773	-1.432631
C	0.0	0.0	0.0
F	-0.280248	-1.186766	-2.032416
H	1.097118	0.0	0.0
H	-1.581719	0.233159	-1.501117
N	0.163564	1.083905	-2.258885
O	-0.099255	2.22964	-1.906447
O	0.860813	0.744279	-3.201575
C	-0.449956	-1.284136	0.709184
H	-1.539459	-1.390967	0.711434
H	-0.095239	-1.258852	1.74028
H	0.000637	-2.144392	0.216227
C	-0.507723	1.158531	0.728912
N	-0.969104	2.028655	1.370577
Cl	3.276896	0.0	0.0
