15

C	-0.483873	0.097158	-1.433805
C	0.0	0.0	0.0
F	-1.847185	0.198874	-1.498878
H	1.097307	0.0	0.0
H	-0.032744	0.933768	-1.966456
N	-0.103816	-1.135681	-2.216839
O	0.919002	-1.059079	-2.88778
O	-0.847844	-2.108547	-2.122955
C	-0.493822	-1.244263	0.742623
H	-0.189833	-1.169371	1.787527
H	-1.579067	-1.346698	0.687803
H	-0.027552	-2.135481	0.323584
C	-0.456706	1.216135	0.672745
N	-0.851732	2.181914	1.211981
Cl	3.274075	0.0	0.0
