16

C	-0.46131	-0.065939	-1.4539
C	0.0	0.0	0.0
F	0.039112	0.986281	-2.18034
H	1.091712	0.0	0.0
C	0.040054	-1.318731	-2.060736
N	0.390674	-2.309353	-2.584857
C	-1.936243	-0.087108	-1.584356
N	-3.099619	-0.185682	-1.712167
C	-0.486728	-1.168944	0.835749
H	-1.579087	-1.213795	0.886043
H	-0.100619	-2.102353	0.422712
H	-0.08014	-1.058971	1.840499
N	-0.463541	1.273684	0.628766
O	-1.22361	2.008221	-0.004709
O	-0.056452	1.490151	1.763767
Br	3.348056	0.0	0.0
