16

C	-0.480121	0.218342	-1.430944
C	0.0	0.0	0.0
F	-1.872878	0.268047	-1.471852
H	1.109147	0.0	0.0
C	0.04085	1.431572	-2.085729
N	0.427858	2.336128	-2.728559
C	-0.069143	-0.936283	-2.256082
N	0.204904	-1.85764	-2.932926
C	-0.490964	-1.30862	0.589067
H	-0.098495	-1.400818	1.598812
H	-1.581705	-1.357597	0.615311
H	-0.098611	-2.139209	0.001376
N	-0.437314	1.146269	0.856133
O	-0.785595	2.192091	0.307113
O	-0.393876	0.973122	2.07093
Br	3.3295	0.0	0.0
