16

C	-0.461955	0.226514	-1.437674
C	0.0	0.0	0.0
F	0.01673	1.415531	-1.931444
H	1.111347	0.0	0.0
C	0.061401	-0.863989	-2.288357
N	0.415501	-1.729751	-2.99888
C	-1.936699	0.201331	-1.566648
N	-3.100068	0.085197	-1.680669
C	-0.480717	-1.316777	0.584338
H	-1.572545	-1.373734	0.629471
H	-0.094658	-2.145351	-0.011552
H	-0.06765	-1.409859	1.588064
N	-0.468927	1.117002	0.871741
O	-0.060473	1.102388	2.027787
O	-1.236863	1.958705	0.400023
Br	3.361987	0.0	0.0
