16

C	-0.474879	-0.138392	-1.45217
C	0.0	0.0	0.0
F	-0.044819	-1.379467	-1.895548
H	1.111254	0.0	0.0
C	-1.950501	-0.143807	-1.543718
N	-3.119383	-0.248908	-1.59927
C	0.074229	0.873733	-2.370154
N	0.480336	1.62184	-3.179328
C	-0.485181	-1.132286	0.882864
H	-1.574381	-1.138036	0.986112
H	-0.027955	-1.017602	1.864288
H	-0.149764	-2.078194	0.458596
N	-0.451808	1.305418	0.54941
O	-0.263637	1.503178	1.74457
O	-0.973129	2.111954	-0.227852
Br	3.349206	0.0	0.0
