16

C	-0.468449	-0.030575	-1.461981
C	0.0	0.0	0.0
F	-0.166088	-1.28994	-1.956856
H	1.109795	0.0	0.0
C	-1.935302	0.132581	-1.563186
N	-3.104442	0.218576	-1.633917
C	0.193878	0.952346	-2.336107
N	0.689447	1.666775	-3.125836
C	-0.5116	-1.176874	0.803482
H	-1.604052	-1.184591	0.869733
H	-0.162167	-2.098861	0.34019
H	-0.091202	-1.115221	1.805962
N	-0.426623	1.284613	0.619339
O	-0.768825	2.199263	-0.136511
O	-0.382462	1.364385	1.842278
Br	3.338852	0.0	0.0
