13

C	-0.322493	0.036941	-1.495608
C	0.0	0.0	0.0
F	-0.10562	-1.279659	-1.965268
H	1.094754	0.0	0.0
H	-0.3761	-0.925738	0.436601
C	-1.747747	0.306593	-1.798826
N	-2.881532	0.493379	-2.04067
N	0.501784	0.990302	-2.116304
H	0.429763	0.953999	-3.124137
H	1.469038	0.874132	-1.812003
C	-0.519181	1.159552	0.708448
N	-0.963149	2.074649	1.294362
Br	3.467433	0.0	0.0
