13

C	-0.323964	-0.364417	-1.450512
C	0.0	0.0	0.0
F	-0.164021	-1.767926	-1.536732
H	1.091291	0.0	0.0
H	-0.378268	-0.772709	0.668998
C	-1.734107	-0.128562	-1.841544
N	-2.81767	0.000394	-2.2784
N	0.533813	0.348479	-2.305571
H	0.457623	0.037836	-3.265225
H	1.498376	0.291486	-1.972783
C	-0.516477	1.307299	0.373698
N	-0.958234	2.344219	0.701652
Br	3.471662	0.0	0.0
