13

C	-0.539173	-0.015709	-1.427706
C	0.0	0.0	0.0
F	0.012359	1.070603	-2.113829
H	1.091968	0.0	0.0
H	-0.337317	-0.905342	0.511744
C	-0.106751	-1.236549	-2.142246
N	0.161047	-2.209648	-2.740684
N	-1.963868	0.022893	-1.452159
H	-2.286662	0.845914	-0.955162
H	-2.293648	0.062803	-2.409011
C	-0.521522	1.169007	0.6984
N	-0.994838	2.107752	1.2215
Br	3.467865	0.0	0.0
