13

C	-0.337517	-0.22632	-1.483223
C	0.0	0.0	0.0
F	-0.09586	-1.571019	-1.71904
H	1.092596	0.0	0.0
H	-0.389922	-0.807659	0.622251
C	-1.771188	0.012556	-1.780841
N	-2.907326	0.187594	-2.018493
N	0.471535	0.531425	-2.386282
H	0.17055	1.497425	-2.413801
H	1.437425	0.495505	-2.056677
C	-0.48822	1.295047	0.449709
N	-0.894699	2.344553	0.784935
Br	3.456118	0.0	0.0
