13

C	-0.358245	-0.123558	-1.490559
C	0.0	0.0	0.0
F	-0.295996	-1.497553	-1.769658
H	1.09294	0.0	0.0
H	-0.389433	-0.844905	0.569053
C	-1.753414	0.276262	-1.786164
N	-2.857546	0.586359	-2.037707
N	0.531974	0.579087	-2.32652
H	1.45516	0.698549	-1.917362
H	0.166063	1.407309	-2.765787
C	-0.471188	1.263471	0.549944
N	-0.865605	2.280728	0.98373
Br	3.464845	0.0	0.0
