13

C	-0.559256	0.042702	-1.427853
C	0.0	0.0	0.0
F	-0.043256	1.159096	-2.045001
H	1.092911	0.0	0.0
H	-0.325647	-0.928581	0.480137
C	-0.121261	-1.163828	-2.166027
N	0.161814	-2.146255	-2.741446
N	-1.994773	0.133633	-1.553674
H	-2.427105	-0.727263	-1.242178
H	-2.322644	0.893324	-0.964893
C	-0.530553	1.132204	0.749038
N	-1.027646	2.032073	1.316547
Br	3.460872	0.0	0.0
