15

C	-0.488111	-0.006011	-1.447946
C	0.0	0.0	0.0
Br	0.007988	-1.630134	-2.436412
H	1.099443	0.0	0.0
H	0.014502	0.810268	-1.965742
C	-1.936987	0.15738	-1.551307
N	-3.1051	0.288443	-1.570978
C	-0.556215	-1.128623	0.845412
H	-0.289679	-2.105031	0.435536
H	-1.650657	-1.077607	0.944387
H	-0.111906	-1.057275	1.842143
N	-0.373576	1.33613	0.494214
H	0.444379	1.70254	0.966353
H	-1.139066	1.285465	1.157462
F	2.641996	0.0	0.0
