15

C	-0.343948	-0.029535	-1.461896
C	0.0	0.0	0.0
Br	-2.305873	-0.29611	-1.845618
H	1.098096	0.0	0.0
H	0.131635	-0.88373	-1.947363
C	0.034883	1.194075	-2.156914
N	0.351078	2.16538	-2.736928
C	-0.424347	-1.263538	0.726445
H	-1.511295	-1.323922	0.866996
H	-0.095959	-2.157556	0.187157
H	0.063927	-1.274419	1.704405
N	-0.457968	1.236683	0.618632
H	0.308782	1.602085	1.169327
H	-1.250686	1.074675	1.228054
F	2.600433	0.0	0.0
