15

C	-0.340153	-0.029316	-1.463286
C	0.0	0.0	0.0
Br	-2.301447	-0.281756	-1.853422
H	1.098072	0.0	0.0
H	0.131791	-0.8877	-1.945284
C	0.052576	1.190193	-2.158378
N	0.371414	2.160083	-2.73977
C	-0.429559	-1.261558	0.726487
H	0.055332	-1.272883	1.706384
H	-1.517345	-1.319161	0.863552
H	-0.101671	-2.156867	0.188839
N	-0.456382	1.238295	0.616594
H	-1.250485	1.079292	1.224692
H	0.310643	1.60358	1.166876
F	2.601481	0.0	0.0
