15

C	-0.501022	-0.005918	-1.446403
C	0.0	0.0	0.0
Br	0.21663	1.508184	-2.483254
H	1.095195	0.0	0.0
H	-1.588499	0.143222	-1.48762
C	-0.191399	-1.229316	-2.178862
N	0.038571	-2.219724	-2.768431
C	-0.535589	-1.231986	0.715064
H	-1.635322	-1.257935	0.743755
H	-0.170757	-1.191739	1.74241
H	-0.169692	-2.154743	0.25813
N	-0.41059	1.212455	0.706704
H	0.333173	1.888917	0.583734
H	-1.263221	1.611621	0.32606
F	2.634904	0.0	0.0
