15

C	-0.488073	-0.028978	-1.447476
C	0.0	0.0	0.0
Br	0.027346	-1.660012	-2.415334
H	1.09936	0.0	0.0
H	0.006169	0.785793	-1.975771
C	-1.938141	0.118895	-1.553745
N	-3.106438	0.247258	-1.574181
C	-0.557036	-1.115715	0.86098
H	-0.296702	-2.098087	0.46123
H	-1.650957	-1.058802	0.963237
H	-0.109043	-1.03496	1.855017
N	-0.371887	1.343752	0.474966
H	-1.129194	1.301879	1.148289
H	0.450232	1.72346	0.931106
F	2.641272	0.0	0.0
