15

C	-0.20124	-0.051502	-1.496686
C	0.0	0.0	0.0
Br	-2.119827	-0.295338	-2.088657
H	1.099758	0.0	0.0
H	0.319727	-0.912314	-1.917794
C	0.253596	1.168962	-2.151736
N	0.586982	2.174147	-2.660388
C	-0.49916	-1.250115	0.691906
H	-0.117995	-2.148523	0.196169
H	-0.120803	-1.239344	1.715647
H	-1.594334	-1.303069	0.722664
N	-0.489785	1.203736	0.647293
H	-1.399667	1.476563	0.287558
H	0.167365	1.953593	0.468178
F	2.596707	0.0	0.0
