15

C	-0.5853	0.007621	-1.403901
C	0.0	0.0	0.0
Br	0.135637	1.489209	-2.487447
H	1.10114	0.0	0.0
H	-1.658621	0.217136	-1.35392
C	-0.367453	-1.225581	-2.149302
N	-0.211823	-2.226783	-2.743991
C	-0.503782	-1.222449	0.749048
H	-0.188554	-2.14439	0.257379
H	-1.596586	-1.222422	0.861839
H	-0.050026	-1.22301	1.744619
N	-0.514919	1.221834	0.666168
H	0.144338	1.956428	0.419843
H	-0.365979	1.078492	1.661244
F	2.653754	0.0	0.0
