15

C	-0.308414	0.092774	-1.464198
C	0.0	0.0	0.0
Br	-2.274454	-0.055663	-1.90041
H	1.094347	0.0	0.0
H	0.141674	-0.739959	-2.007491
C	0.135995	1.354219	-2.044355
N	0.47825	2.35601	-2.553586
C	-0.445452	-1.311478	0.623504
H	-0.012891	-1.374747	1.62608
H	-0.073194	-2.168659	0.053392
H	-1.537503	-1.390523	0.703327
N	-0.466044	1.192965	0.69007
H	-1.37318	1.040584	1.119201
H	0.206448	1.420896	1.412275
F	2.589561	0.0	0.0
