14

C	0.0	0.0	0.0
C	-0.496896	-0.127463	-1.443864
Cl	1.791766	0.0	0.0
H	-0.053773	-1.002763	-1.914344
H	-1.59101	-0.16043	-1.413825
N	-0.497825	1.198928	0.591092
H	-0.259138	1.216213	1.576444
H	-1.522339	1.157847	0.503584
C	-0.361684	-1.255103	0.700796
N	-0.586765	-2.260815	1.266114
N	-0.087254	1.049687	-2.256879
O	-0.81065	2.04097	-2.228261
O	0.948786	0.943432	-2.918922
Cl	-3.495345	0.0	0.0
