14

C	0.0	0.0	0.0
C	-0.458086	0.069007	-1.471316
Cl	1.801961	0.0	0.0
H	-0.163258	-0.819215	-2.025265
H	-1.548672	0.193269	-1.450372
N	-0.491565	0.996163	0.896811
H	-1.508018	0.850873	0.930433
H	-0.324756	1.903569	0.475941
C	-0.380379	-1.335992	0.492701
N	-0.593144	-2.412803	0.909078
N	0.139284	1.219831	-2.190203
O	0.682104	0.994758	-3.271624
O	0.043972	2.334119	-1.674401
Cl	-3.449316	0.0	0.0
