14

C	0.0	0.0	0.0
C	-0.161348	0.24888	-1.538257
Cl	1.796371	0.0	0.0
H	0.444462	-0.485045	-2.066819
H	0.213548	1.254383	-1.73588
N	-0.561098	0.938418	0.897299
H	-0.411434	1.87677	0.542993
H	-1.58087	0.753406	0.886573
C	-0.394398	-1.369548	0.360134
N	-0.580589	-2.480694	0.688869
N	-1.482474	0.177412	-2.228016
O	-1.996346	1.24539	-2.546379
O	-1.865904	-0.94257	-2.548981
Cl	-3.460562	0.0	0.0
