14

C	0.0	0.0	0.0
C	-0.509982	-0.065637	-1.432934
Cl	1.832835	0.0	0.0
H	-0.287508	0.869162	-1.944092
H	-1.599942	-0.222098	-1.356232
N	-0.510977	1.18791	0.566514
H	-0.720044	1.145914	1.549623
H	-0.003824	2.014497	0.291975
C	-0.385726	-1.152602	0.822125
N	-0.621986	-2.030698	1.564548
N	0.104223	-1.148926	-2.235064
O	0.150393	-2.269807	-1.734153
O	0.508064	-0.857138	-3.362246
Cl	-3.623912	0.0	0.0
