14

C	0.0	0.0	0.0
C	-0.444106	0.078908	-1.479729
Cl	1.802413	0.0	0.0
H	-1.532032	0.220929	-1.483851
H	-0.152887	-0.818453	-2.018524
N	-0.439144	1.011645	0.910725
H	-0.30025	1.917349	0.469025
H	-1.443397	0.882722	1.075377
C	-0.402312	-1.335521	0.48535
N	-0.558338	-2.426923	0.894386
N	0.189311	1.21369	-2.192051
O	0.760606	0.975105	-3.256233
O	0.081181	2.331648	-1.690367
Cl	-3.575735	0.0	0.0
