14

C	0.0	0.0	0.0
C	-0.52082	0.186185	-1.436659
Cl	1.79198	0.0	0.0
H	0.3226	0.134643	-2.136635
H	-0.278204	-1.00895	0.298952
N	-0.471382	1.051436	0.85142
H	-0.183208	0.829488	1.798902
H	-1.504618	0.871367	0.759918
C	-1.209851	1.448793	-1.672585
N	-1.639323	2.494993	-1.986819
N	-1.384153	-0.972499	-1.891691
O	-2.206035	-0.744441	-2.765327
O	-1.070071	-2.082485	-1.480793
F	-2.587114	0.0	0.0
