14

C	0.0	0.0	0.0
C	-0.349876	-0.067529	-1.518985
Cl	1.791811	0.0	0.0
H	0.375303	-0.725928	-2.003925
H	-0.354036	-0.91948	0.457951
N	-0.467962	1.133388	0.723764
H	-0.206156	1.989777	0.241091
H	-1.503443	0.971459	0.64675
C	-0.230997	1.246729	-2.134599
N	-0.05917	2.302555	-2.61279
N	-1.662489	-0.720705	-1.906136
O	-1.707585	-1.914631	-1.650737
O	-2.434266	-0.095062	-2.612265
F	-2.586379	0.0	0.0
