15
Coordinates from ORCA-job run
  C   -0.67948311268624      0.07484431457992     -0.36978320191607
  C   0.83589059742558     -0.18529960989877     -0.39210558403214
  H   -1.02052581276032      0.22437075496147     -1.40355990728361
  H   1.01011076557083     -1.09659883428452     -0.98818198119227
  N   -0.91678385476944      1.29004897470387      0.35485839110553
  H   -1.90031925570556      1.52059547009023      0.39926887463862
  H   -0.52596500622524      1.21512851218073      1.28541695342861
  N   -1.28314691520013     -1.11965020563766      0.25133018335505
  H   -2.21597960644488     -0.89022782838498      0.57233503304039
  H   -1.37473520418164     -1.86195740892582     -0.43543449388237
  N   1.29297797194049     -0.29489789203409      0.98958382102806
  H   2.29168210812819     -0.45582393317260      1.02312139199946
  H   0.81055827207985     -1.08751105986670      1.39807806584948
  C   1.53659830725215      0.91046090206534     -1.07010007301822
  N   2.13912074557637      1.75651784362359     -1.61582747312052
