15
Coordinates from ORCA-job run
  C   -0.59560540086687     -0.26947978023866      0.22394715916608
  C   0.86828642700575     -0.30250617501761     -0.24722825009836
  H   -0.70276336556448     -1.10298991148115      0.93730183928445
  H   1.00738366672442     -1.26380723849459     -0.76310141470693
  N   -1.45122212401043     -0.40947093747106     -0.95212496196903
  H   -2.40714017151323     -0.18299876333521     -0.70582074801085
  H   -1.43904098628438     -1.36265355372320     -1.29899999112192
  N   -0.83098489554028      0.94437641084006      0.96219077993202
  H   -1.75438327461680      0.94301015059357      1.37709742069771
  H   -0.75359180872414      1.74538412807036      0.34429326392963
  N   1.78770491126666     -0.11771750110024      0.86551811458414
  H   1.31734426415328     -0.26843446506700      1.74653928044208
  H   2.58792106993883     -0.72825932827506      0.78645373198982
  C   1.08400648696006      0.75993222825440     -1.24823536130380
  N   1.28108520107162      1.61561473644540     -2.02683086281505
