15
Coordinates from ORCA-job run
  C   -0.77207580446583     -0.02626512294900     -0.23745016233695
  C   0.75408118534463     -0.16518766152802     -0.47517592553691
  H   -1.25579510135840      0.12992909100356     -1.21208107253607
  H   0.92396621623876     -1.03472346857984     -1.13206449181783
  N   -1.12477001063439      1.08345948351130      0.61727028249328
  H   -0.44948707971454      1.13128644954527      1.37332573462508
  H   -1.07741542402343      1.95188143296301      0.09951435450928
  N   -1.19384586706122     -1.25212271956302      0.43332147565892
  H   -2.09196034606102     -1.06815240491463      0.86329502241070
  H   -1.30466055133359     -2.00627714516163     -0.23457475419546
  N   1.39778251517344     -0.26873377259099      0.82736502887117
  H   0.97947551385902     -1.06436108868877      1.29770665092915
  H   2.39327535245868     -0.42139078509153      0.72834107553807
  C   1.23621947711610      1.02413745867748     -1.18523406863815
  N   1.58420992446181      1.98452025336680     -1.76355914997426
