15
Coordinates from ORCA-job run
  C   -0.61505430094070      0.23395766036487      0.26527356654523
  C   0.72358028238990     -0.12561704282006     -0.39381096226284
  H   -0.39854469578644      0.55293101536921      1.29865577211497
  H   0.49378525679713     -0.40856235356616     -1.42683927402125
  N   -1.45625195981402     -0.94975426344198      0.17531066109780
  H   -0.91799988129261     -1.75693511094023      0.47215992915210
  H   -2.26069217570926     -0.85265470731124      0.78348786361497
  N   -1.17488644406728      1.37477523834428     -0.42661744047522
  H   -1.68053840835738      1.03094257349711     -1.23603399868445
  H   -1.82974299308135      1.87168498990407      0.16271637987703
  N   1.31842934341957     -1.28457368829823      0.26983527185775
  H   2.06305788603549     -1.66919901282836     -0.29879157429710
  H   1.73260969820222     -0.99479053519890      1.14930810949093
  C   1.60939741995233      1.05187074298654     -0.41559924333690
  N   2.39285097225238      1.92592449393909     -0.37705506067302
