16

C	0.0	0.0	0.0
C	-0.333824	-0.125677	-1.525681
Cl	1.797123	0.0	0.0
H	0.129148	0.76172	-1.979491
N	-0.551956	1.142163	0.651374
H	-0.441617	1.966664	0.070871
H	-1.547093	0.989934	0.823458
C	-0.416538	-1.220454	0.702928
N	-0.715691	-2.225599	1.232504
C	-1.821938	-0.163357	-1.845517
H	-1.952941	-0.226	-2.928199
H	-2.315159	-1.016478	-1.383237
H	-2.344406	0.715511	-1.476021
C	0.328854	-1.292944	-2.116232
N	0.830921	-2.220555	-2.633073
Br	-4.600176	0.0	0.0
