16

C	0.0	0.0	0.0
C	-0.497272	-0.095459	-1.455955
Cl	1.787518	0.0	0.0
H	-1.589528	0.032224	-1.381917
N	-0.472857	1.224983	0.57361
H	-1.499065	1.174454	0.559568
H	-0.16535	1.292095	1.538218
C	-0.374656	-1.223331	0.745294
N	-0.613962	-2.201512	1.351785
C	-0.189997	-1.432534	-2.12853
H	-0.713358	-2.234777	-1.606558
H	-0.542373	-1.40875	-3.161447
H	0.882331	-1.639295	-2.132215
C	0.05703	1.014147	-2.230649
N	0.471644	1.859901	-2.932313
Br	-3.643492	0.0	0.0
