16

C	0.0	0.0	0.0
C	-0.57695	-0.135088	-1.414858
Cl	1.838036	0.0	0.0
H	-1.672307	-0.058233	-1.233312
N	-0.497015	1.159782	0.61841
H	-0.156668	1.292989	1.558929
H	-0.390843	1.9908	0.053758
C	-0.343352	-1.182394	0.805032
N	-0.538705	-2.120739	1.483714
C	-0.249182	-1.456577	-2.101768
H	-0.670067	-2.278337	-1.520406
H	-0.709308	-1.473768	-3.091299
H	0.828703	-1.59748	-2.207723
C	-0.149381	1.007903	-2.216749
N	0.196596	1.922359	-2.868662
Br	-3.820303	0.0	0.0
