16

C	0.0	0.0	0.0
C	-0.578576	-0.096197	-1.417894
Cl	1.838394	0.0	0.0
H	-1.673821	-0.024452	-1.233074
N	-0.503492	1.135513	0.652147
H	-0.467207	1.975501	0.093542
H	-0.135356	1.272942	1.580859
C	-0.336345	-1.20935	0.769218
N	-0.530833	-2.166058	1.422326
C	-0.253004	-1.399359	-2.140633
H	-0.708556	-1.386477	-3.132334
H	-0.679404	-2.235867	-1.584534
H	0.824341	-1.54171	-2.246421
C	-0.150143	1.066697	-2.189818
N	0.192376	1.998906	-2.81821
Br	-3.810556	0.0	0.0
