16

C	0.0	0.0	0.0
C	-0.495724	0.047233	-1.470284
Cl	1.793122	0.0	0.0
H	-1.593582	0.089722	-1.360889
N	-0.481577	1.059877	0.836649
H	-0.268633	1.947404	0.390697
H	-1.50291	0.953144	0.872288
C	-0.383767	-1.294962	0.590684
N	-0.607904	-2.33782	1.081598
C	-0.112812	-1.158905	-2.324901
H	-0.546431	-1.05221	-3.321277
H	-0.519202	-2.065749	-1.873649
H	0.970112	-1.255843	-2.419938
C	-0.049364	1.297341	-2.078351
N	0.309583	2.299474	-2.576532
Br	-3.649636	0.0	0.0
