16

C	0.0	0.0	0.0
C	-0.363289	0.041436	-1.548705
Cl	1.850153	0.0	0.0
H	0.573168	-0.122892	-2.088129
N	-0.475769	1.031115	0.853267
H	-1.494219	0.895963	0.922519
H	-0.29933	1.934259	0.429528
C	-0.341408	-1.306507	0.580546
N	-0.502028	-2.368999	1.055593
C	-0.916164	1.399023	-1.976737
H	-1.85913	1.592059	-1.465398
H	-1.097725	1.389098	-3.054434
H	-0.187111	2.188104	-1.767946
C	-1.206876	-1.068721	-1.9977
N	-1.668119	-2.010797	-2.52992
Br	-3.538047	0.0	0.0
