16

C	0.0	0.0	0.0
C	-0.365877	0.254545	-1.48303
Cl	1.83444	0.0	0.0
H	0.103204	1.215171	-1.716592
N	-0.527915	1.042531	0.823925
H	-0.307657	0.854399	1.796054
H	-1.546223	1.029103	0.736336
C	-0.368082	-1.367008	0.409721
N	-0.660757	-2.453085	0.752574
C	-1.865433	0.307666	-1.759294
H	-2.387368	-0.574085	-1.38881
H	-2.027472	0.381392	-2.836839
H	-2.341523	1.165463	-1.288645
C	0.254541	-0.764008	-2.333896
N	0.699341	-1.578143	-3.053336
Br	-4.696722	0.0	0.0
