16

C	0.0	0.0	0.0
C	-0.367051	0.105229	-1.54401
Cl	1.850142	0.0	0.0
H	0.568177	-0.034007	-2.092278
N	-0.477246	0.990396	0.897325
H	-1.494243	0.844587	0.969333
H	-0.315725	1.911029	0.504022
C	-0.336485	-1.331916	0.52419
N	-0.501635	-2.415109	0.947642
C	-0.929865	1.474437	-1.913425
H	-1.869137	1.644743	-1.388235
H	-1.119073	1.505198	-2.988961
H	-0.201315	2.257488	-1.68043
C	-1.204556	-0.99254	-2.038462
N	-1.658781	-1.914277	-2.610294
Br	-3.550597	0.0	0.0
