19

C	0.0	0.0	0.0
C	-0.554088	0.022406	-1.420875
Br	1.973443	0.0	0.0
H	-1.660314	0.057617	-1.254381
C	-0.47045	1.188188	0.818037
H	-1.569834	1.179504	0.754341
H	-0.076957	2.135758	0.452458
H	-0.158992	1.053174	1.857096
C	-0.481632	-1.283524	0.653787
H	-1.582216	-1.228392	0.629723
H	-0.133397	-1.323343	1.689293
H	-0.137459	-2.162269	0.111013
N	-0.153277	-1.105498	-2.190155
H	0.832797	-1.028054	-2.413073
H	-0.675173	-1.133281	-3.056767
N	-0.192255	1.332253	-2.122999
O	-0.814767	2.345547	-1.809659
O	0.690702	1.297299	-2.986177
H	-3.250105	0.0	0.0
