19

C	0.0	0.0	0.0
C	-0.382446	0.047949	-1.499723
Br	1.969958	0.0	0.0
H	0.151491	0.893298	-1.944827
C	-0.488342	1.291036	0.638219
H	-1.583983	1.255258	0.653333
H	-0.112294	1.368918	1.661718
H	-0.150929	2.165897	0.07527
C	-0.518793	-1.196091	0.775028
H	-1.61503	-1.167172	0.726643
H	-0.207764	-1.106429	1.820436
H	-0.156649	-2.137216	0.368237
N	-1.760579	0.050868	-1.781994
H	-2.469763	-0.060158	-0.980317
H	-2.02105	0.874356	-2.305021
N	0.265626	-1.131416	-2.265326
O	-0.056023	-2.276834	-1.960279
O	1.010792	-0.842779	-3.205495
H	-3.549586	0.0	0.0
