19

C	0.0	0.0	0.0
C	-0.595871	0.083885	-1.399143
Br	1.97361	0.0	0.0
H	-1.699477	0.126134	-1.183588
C	-0.464633	1.14857	0.877265
H	-0.085503	2.113955	0.545987
H	-0.136384	0.972381	1.904648
H	-1.564746	1.136349	0.828942
C	-0.475746	-1.310408	0.604477
H	-0.124876	-1.390695	1.636584
H	-0.13186	-2.165141	0.02498
H	-1.576944	-1.259913	0.586604
N	-0.257514	-1.024014	-2.226303
H	0.698169	-0.928973	-2.549002
H	-0.869334	-1.043868	-3.031887
N	-0.238414	1.40704	-2.064979
O	0.613871	1.390574	-2.95977
O	-0.831458	2.419639	-1.695227
H	-3.229964	0.0	0.0
