16

C	-0.632002	-0.023471	-1.390437
C	0.0	0.0	0.0
Cl	0.265356	-1.113763	-2.491077
H	1.086837	0.0	0.0
H	-0.360572	0.887484	0.522097
C	-2.082104	-0.500636	-1.359796
H	-2.158055	-1.540885	-1.040486
H	-2.511225	-0.413826	-2.360337
H	-2.658032	0.122425	-0.667558
N	-0.473954	1.322754	-1.92006
H	-0.719903	1.329067	-2.90297
H	-1.103355	1.946014	-1.424994
N	-0.48038	-1.143433	0.815377
O	-1.249763	-0.894601	1.750246
O	-0.116251	-2.270975	0.492558
Br	3.553631	0.0	0.0
