16

C	-0.362582	-0.06425	-1.474386
C	0.0	0.0	0.0
Cl	-2.196703	-0.031603	-1.652268
H	1.090978	0.0	0.0
H	-0.413506	0.892131	0.462488
C	0.160972	1.20886	-2.126673
H	-0.287141	2.102261	-1.687827
H	-0.071275	1.195988	-3.194779
H	1.245353	1.236192	-1.98575
N	0.132176	-1.267297	-2.066469
H	0.986014	-1.560619	-1.602802
H	0.312533	-1.124177	-3.051679
N	-0.495384	-1.152605	0.784659
O	0.025295	-2.247583	0.584395
O	-1.396459	-0.937271	1.598943
Br	3.488373	0.0	0.0
