14

C	-0.409209	0.041199	-1.467093
C	0.0	0.0	0.0
F	-0.037265	-1.258116	-1.969155
H	1.093314	0.0	0.0
H	-0.341387	-0.936323	0.447986
N	-1.815109	0.200778	-1.651376
H	-2.026583	0.300699	-2.638752
H	-2.279551	-0.634694	-1.315353
N	0.318375	1.051643	-2.136911
H	0.20343	0.962443	-3.139415
H	1.30567	0.96054	-1.908027
C	-0.518456	1.134168	0.751851
N	-0.919009	2.034633	1.388733
Br	3.553328	0.0	0.0
