14

C	-0.274269	-0.004741	-1.497399
C	0.0	0.0	0.0
F	-1.631709	0.007851	-1.789324
H	1.094251	0.0	0.0
H	-0.357197	0.936528	0.429581
N	0.255085	1.240062	-2.014681
H	1.236081	1.294771	-1.745966
H	0.212295	1.214602	-3.028234
N	0.236361	-1.239567	-2.041467
H	0.171225	-1.213981	-3.052929
H	1.217577	-1.319039	-1.784608
C	-0.561	-1.140442	0.703318
N	-1.006214	-2.047413	1.300456
Br	3.485455	0.0	0.0
