14

C	-0.425487	-0.162218	-1.454905
C	0.0	0.0	0.0
F	-1.794656	-0.538965	-1.486
H	1.090923	0.0	0.0
H	-0.33638	-0.886532	0.541201
N	-0.267722	1.058758	-2.181186
H	-0.781777	1.810817	-1.733986
H	-0.628961	0.937294	-3.121357
N	0.309925	-1.264182	-1.993394
H	1.296162	-1.114843	-1.788032
H	0.1953	-1.298865	-2.999421
C	-0.555039	1.194695	0.615549
N	-1.035214	2.161585	1.077636
Br	3.516596	0.0	0.0
