14

C	-0.434672	-0.080305	-1.465931
C	0.0	0.0	0.0
F	-1.794421	-0.509492	-1.461433
H	1.094128	0.0	0.0
H	-0.332301	-0.915165	0.498261
N	-0.279415	1.155668	-2.12312
H	-0.565276	1.058745	-3.087843
H	-0.788626	1.897523	-1.662831
N	0.277807	-1.078766	-2.213903
H	1.271205	-0.874399	-2.123464
H	0.112641	-1.981774	-1.784411
C	-0.553475	1.152492	0.695743
N	-1.009472	2.105	1.209965
Br	3.523555	0.0	0.0
