17
Coordinates from ORCA-job run
  C   0.71499745559355      0.45695684912852     -0.14094193942708
  C   -0.59728137852619     -0.23496240094914      0.29589685493990
  Br  0.49623239899066      1.43850129950383     -1.82856161554025
  H   -0.38183494887485     -0.69055952415635      1.26661777254857
  C   1.02425159510786      1.44842339377402      0.88736706283873
  N   1.27322528649432      2.20883236526244      1.74899879044388
  C   1.88133248901049     -0.51696925231267     -0.29739052355807
  H   2.00214260151977     -1.09787153878955      0.62057821488101
  H   2.79845399884133      0.03753093367782     -0.49708242193971
  H   1.69801615539970     -1.20134399870074     -1.12557341688303
  N   -0.85109233632071     -1.40985061486483     -0.60529201234924
  O   -0.39082571739999     -2.49118595806902     -0.23836478343337
  O   -1.47517252651745     -1.20884287586020     -1.64329638393456
  C   -1.81906786476356      0.65401806839319      0.36867234200099
  H   -2.07955584812738      1.03893317376995     -0.61489766044126
  H   -2.66479249531503      0.08206157434590      0.75563706773634
  H   -1.62902886511250      1.48832850584683      1.04663265211717
