17
Coordinates from ORCA-job run
  C   0.67015154086681      0.53360806549098     -0.07761277260187
  C   -0.49805227929143     -0.41239628833488      0.28533833857945
  Br  0.03032484709042      2.21653844197121     -0.86328637890904
  H   -0.03730459890322     -1.27855601784922      0.76881527080810
  C   1.33159700107188      0.87860809596077      1.17916509988012
  N   1.87270117017967      1.10756631572952      2.19768648345724
  C   1.67285071631237     -0.09780286045744     -1.04165280663130
  H   2.52722666162928      0.56676079618090     -1.17085347563097
  H   1.21106021025571     -0.26805540402677     -2.01400912211195
  H   2.01625320027142     -1.05506686812867     -0.64150631032843
  N   -1.08048606188420     -0.97383741843469     -0.98063284240639
  O   -0.60373742721572     -2.03687774709535     -1.37867828385863
  O   -1.96695625167204     -0.33065344986414     -1.53552942460832
  C   -1.58465012138496      0.18363311780195      1.15271938463028
  H   -1.15083794469408      0.56147011028484      2.08055926596736
  H   -2.31599405409492     -0.58726298927813      1.40368609856921
  H   -2.09514660853695      0.99332410004911      0.63579147519514
