17
Coordinates from ORCA-job run
  C   0.68115062662461      0.52403180741927      0.04025810980347
  C   -0.48226845186475     -0.48557694041323      0.17597609095123
  Br  0.03570650949198      2.37849323402556     -0.01883579171618
  H   -0.01125559749452     -1.46870427064907      0.26439826874990
  C   1.48635865318395      0.39539357905752      1.25319097146794
  N   2.14118206592895      0.24340542981909      2.21791251552501
  C   1.54753591677422      0.27563629485403     -1.19305257635830
  H   2.41081367707491      0.94101604897063     -1.17580240492161
  H   0.97794508911486      0.46391881838666     -2.10287783510251
  H   1.89044938228465     -0.76203218302930     -1.19953284149223
  N   -1.21974394101852     -0.55661403492814     -1.13143532795548
  O   -2.13152969152554      0.24437043378293     -1.31705010538786
  O   -0.83489011606483     -1.40948645999321     -1.93155500799113
  C   -1.44396674519848     -0.23475599286168      1.31626578956980
  H   -1.97281715105431      0.70594199585683      1.17919228871147
  H   -2.17539230343845     -1.04405670445051      1.36246890464036
  H   -0.89827792281873     -0.20998105584739      2.26147895150620
