17
Coordinates from ORCA-job run
  C   0.72171755926563      0.38586999545131     -0.41651373593845
  C   -0.56737152937397     -0.44165831078607     -0.31053710905749
  Br  1.11792757806570      0.68441992610409     -2.31935160523249
  H   -0.38684176284504     -1.40679527818688     -0.78740393167481
  C   0.60944821545624      1.68984121466123      0.23105767300091
  N   0.59812976377592      2.70461641864663      0.82462972222011
  C   1.89938767854697     -0.38020421619596      0.18970518238286
  H   1.75518399178252     -0.50548909456006      1.26468485100886
  H   1.99148017135409     -1.35854073883996     -0.28597174184694
  H   2.82276179692005      0.17644887116963      0.02977563414452
  N   -1.67061590662389      0.17691588691650     -1.11889456109207
  O   -2.21008938663509     -0.53868925893295     -1.95844822915330
  O   -1.97012951254867      1.33635861598159     -0.85038764292605
  C   -1.07615690701464     -0.59623559460712      1.11454272793058
  H   -0.36321531158048     -1.15135568606472      1.72451851975087
  H   -1.25662573292954      0.38041184981855      1.56611008005299
  H   -2.01399070561587     -1.15591460057582      1.10248416642984
