16

C	-0.430966	0.073872	-1.456517
C	0.0	0.0	0.0
Br	-2.364647	0.248263	-1.67762
H	1.096028	0.0	0.0
H	0.009977	0.948922	-1.924719
N	0.025994	-1.105534	-2.270514
O	-0.516986	-2.191711	-2.086975
O	0.943533	-0.884567	-3.056761
C	-0.495994	-1.213408	0.768983
H	-0.108925	-1.144924	1.788405
H	-1.589922	-1.244251	0.804503
H	-0.137694	-2.146329	0.334692
N	-0.390329	1.283129	0.593194
H	-1.201579	1.165948	1.187052
H	0.382223	1.607738	1.160716
Cl	3.368386	0.0	0.0
