16

C	-0.543476	-0.036074	-1.429731
C	0.0	0.0	0.0
Br	0.250309	-1.401205	-2.546103
H	1.093537	0.0	0.0
H	-1.620672	-0.204305	-1.443682
N	-0.366897	1.300345	-2.093348
O	-1.410417	1.918705	-2.33129
O	0.767559	1.704258	-2.298564
C	-0.491178	-1.224727	0.75885
H	-0.160324	-2.152149	0.288733
H	-1.586098	-1.22925	0.828975
H	-0.080982	-1.180383	1.767659
N	-0.434501	1.212495	0.687493
H	-1.391419	1.459685	0.459429
H	0.176087	1.981798	0.442899
Cl	3.48936	0.0	0.0
