16

C	-0.596087	0.02089	-1.393199
C	0.0	0.0	0.0
Br	0.151005	-1.31531	-2.581169
H	1.096544	0.0	0.0
H	-1.674274	-0.133703	-1.363339
N	-0.431303	1.357183	-2.069995
O	-1.340858	1.691826	-2.829245
O	0.580623	2.004933	-1.832224
C	-0.476103	-1.245636	0.732125
H	-1.567569	-1.242215	0.838249
H	-0.16632	-2.15423	0.215594
H	-0.023651	-1.264935	1.726972
N	-0.54988	1.200507	0.658242
H	-0.639496	1.009061	1.649588
H	0.144252	1.934132	0.567269
Cl	3.492939	0.0	0.0
