16

C	-0.420464	0.014578	-1.458665
C	0.0	0.0	0.0
Br	-2.36394	0.028761	-1.700118
H	1.095971	0.0	0.0
H	-0.053796	0.918757	-1.934336
N	0.114612	-1.124596	-2.27999
O	-0.163269	-2.270996	-1.941149
O	0.795602	-0.809977	-3.253221
C	-0.490658	-1.169944	0.83727
H	-1.583989	-1.181445	0.901012
H	-0.155177	-2.125459	0.438038
H	-0.079485	-1.055206	1.843285
N	-0.398566	1.309213	0.529279
H	-1.22978	1.217527	1.101924
H	0.356922	1.654005	1.108411
Cl	3.368781	0.0	0.0
