14
Coordinates from ORCA-job run
  C   0.39869288753283     -0.77339318891357      0.22351825054183
  C   -0.44543098617020      0.36301211258202     -0.36238152440185
  F   0.53460127879872     -0.54975223571261      1.58007957385092
  H   -0.51727473236067      0.22779467569646     -1.44425532324124
  H   -0.11226663226058     -1.73827905125402      0.11601257530246
  N   1.71746654398287     -0.70166075048547     -0.35307068304990
  H   1.69554341137381     -1.04268177048044     -1.30731001931608
  H   2.34046162827289     -1.30021644680787      0.17658645674683
  N   -0.01067255526891      1.68795960641456     -0.04842313455697
  H   0.93997554062693      1.78603836279834     -0.38609519491724
  H   0.00272712754485      1.80002458528223      0.95852237924607
  N   -1.84435265176354      0.15263273248947      0.14882354159084
  O   -2.46470983653671     -0.77376404128046     -0.36943418996384
  O   -2.23576102377229      0.86328540967137      1.06642729216818
