14
Coordinates from ORCA-job run
  C   0.91439160715960     -0.36832152258804     -0.07495394433065
  C   -0.45661984696185      0.23992065222216     -0.32991042866492
  F   1.54598911033310     -0.38955017383818     -1.31517992445271
  H   -1.03919191663754     -0.47416676292066     -0.92535614597360
  H   1.50717766377451      0.30149853317379      0.55834141695892
  N   0.80597763065393     -1.72962647851116      0.36426154687309
  H   0.49838044399347     -1.73903240129101      1.32854174004793
  H   1.72301004773173     -2.15767063023058      0.31854901174099
  N   -0.32655203385856      1.56725991437152     -0.87025795854507
  H   -1.22048538215735      1.88828221351466     -1.21921298575089
  H   0.33416058940179      1.54348444719871     -1.63618954203151
  N   -1.23011450839126      0.38995486257832      0.95411755091380
  O   -2.36485325315550      0.83643188904529      0.82936072286494
  O   -0.69127015188608      0.09153545727518      2.01888894034967
