14
Coordinates from ORCA-job run
  C   0.86387652879521     -0.32643903936980      0.02326021093692
  C   -0.49766761425800      0.22574541295275     -0.39194393069909
  F   1.57875696483004     -0.45691248026229     -1.19138695910702
  H   -1.02232172044439     -0.51811554158047     -0.99434476787590
  H   1.40772502995579      0.41178403747721      0.61620165233727
  N   0.73878250531477     -1.52649824814231      0.74124923173782
  H   1.62508409434770     -1.87008196676037      1.08242378653569
  H   0.26596729563713     -2.24694733378353      0.21205038780369
  N   -0.48944155425739      1.48559201060104     -1.07860579157180
  H   -0.07280444722218      1.36393276505978     -1.99216569707001
  H   0.05699397441897      2.16055610105679     -0.55721115577284
  N   -1.29814551318352      0.38890389236045      0.86217324648921
  O   -2.22507580142688     -0.38683890677841      1.06345663418985
  O   -0.93172974250724      1.29631929716914      1.60584315206622
