14
Coordinates from ORCA-job run
  C   0.64919431716210     -0.71746905311063     -0.35709963451632
  C   -0.49115749819034      0.28300780164199     -0.53737980253064
  F   0.06963576271080     -1.99756271150392     -0.39066797364422
  H   -0.96128994759045      0.12678820768942     -1.50807123924539
  H   1.29785784282860     -0.65511611260029     -1.23477122379544
  N   1.41207174256830     -0.46599234294753      0.80208502547368
  H   2.22869218435719     -1.05866446623759      0.84690990565594
  H   0.85085401785322     -0.56405858645514      1.63807217224892
  N   -0.10362808043387      1.63210751663837     -0.32620889930834
  H   0.77945928212631      1.69540516782563      0.15915962303021
  H   -0.12752890845119      2.19308642460690     -1.16120736632464
  N   -1.59662031065094     -0.07838068295077      0.44615101942872
  O   -1.30103679772876     -0.07429063508123      1.63905529077458
  O   -2.70650360656097     -0.31886052751521     -0.01602689724706
