14
Coordinates from ORCA-job run
  C   0.48574745279210     -0.70395146521647     -0.57659121290804
  C   -0.49781227651950      0.45112309933138     -0.39793072574131
  F   -0.28574465115825     -1.86155783780530     -0.77703967790874
  H   -1.09062723586001      0.56683730402922     -1.30501760394036
  H   1.03482488970549     -0.54030198466751     -1.50758644970368
  N   1.40188444357746     -0.80552165597454      0.49061986835044
  H   0.92890137937572     -1.00673439077514      1.36189947296139
  H   2.11838692038486     -1.49238418614575      0.30392694776828
  N   0.11513446989469      1.66397337950751      0.01302510526299
  H   0.09224007001567      2.38405039492438     -0.68948993314340
  H   1.04378059344171      1.50707014528180      0.37712108968105
  N   -1.53001754113514      0.03775429808883      0.64261529502230
  O   -1.10613024893477     -0.25290747917036      1.75897858218115
  O   -2.70856826558003      0.05255037859195      0.30546924211793
