14
Coordinates from ORCA-job run
  C   0.46323683076384     -0.72924031856342      0.24828170655905
  C   -0.49968143790213      0.30507615439538     -0.34413726027270
  F   0.72055128232717     -0.37243166367659      1.55825208971104
  H   -0.67114218315582      0.06575583417053     -1.39641521977775
  H   0.00025713469813     -1.72333775212352      0.28168889899921
  N   1.71120032889471     -0.64852156401107     -0.46672122094552
  H   1.61340806445494     -1.07243413300790     -1.38210606695488
  H   2.41709981031882     -1.16696189753686      0.04288356734465
  N   -0.11244271706361      1.67294949576697     -0.19582507251864
  H   -0.00613370683532      1.87999661001324      0.79029986880493
  H   0.79281235827486      1.78472958175089     -0.63776582118437
  N   -1.82561930107228      0.07638817776632      0.32772598729162
  O   -2.44087026310439     -0.92292525728952     -0.03866855003155
  O   -2.16267620059891      0.84995673234555      1.21550709297492
