14
Coordinates from ORCA-job run
  C   0.89080370937021     -0.40678231312784     -0.10135807194681
  C   -0.46041623601923      0.23656233238830     -0.42386220590948
  F   1.51929758700170     -0.51425540242338     -1.35509576744415
  H   -1.05653458293604     -0.47222414340558     -1.00145102004706
  H   1.50631757453496      0.28812625367646      0.47754514732891
  N   0.77455750538000     -1.65596484322562      0.52635181442248
  H   1.29868848850788     -1.77059177818406      1.37532043447386
  H   -0.15203518951996     -2.04597663206250      0.58477457756335
  N   -0.43287598123967      1.50464049906599     -1.08948891797540
  H   0.19804481918502      2.13745931011095     -0.61291403887650
  H   -0.10342075315840      1.37051018444038     -2.03629741146787
  N   -1.16891344880598      0.40706365005108      0.88507665550794
  O   -0.78794051289107      1.34229790941017      1.58436822033689
  O   -2.02757297940943     -0.41886502671433      1.18703058403385
