14
Coordinates from ORCA-job run
  C   0.35711540740103     -0.87155172394446      0.05164359434184
  C   -0.47017459892433      0.34286368782755     -0.36203474282570
  F   0.38408483527722     -0.86232803527436      1.46345871704384
  H   -0.60783113502274      0.31933097932573     -1.44285319532979
  H   -0.13886043808230     -1.79717955951003     -0.24183798894348
  N   1.64469895942444     -0.80073342317740     -0.51995170763460
  H   2.17939494565350     -1.63698704819080     -0.32897218217558
  H   2.14982921581306      0.00264036825703     -0.16960303989508
  N   0.01586289580101      1.61020653771342      0.05544269504802
  H   0.67451510169412      2.00962354260155     -0.59404176646226
  H   0.36540849377895      1.60260837674836      1.00230737321097
  N   -1.85391276291431      0.10571859599409      0.21910826087680
  O   -2.20528475063787      0.77339634715082      1.18077249124937
  O   -2.49384616926178     -0.79860864552149     -0.31443850850433
