14
Coordinates from ORCA-job run
  C   0.41790227945888     -0.85955803660978      0.32480652743098
  C   -0.36246773417437      0.18082145468615     -0.46262889419449
  F   0.44164608249782     -0.37643298813070      1.66002576737741
  H   -0.47980018859082     -0.15755460440068     -1.49284633527503
  H   -0.11543429459082     -1.80822536120522      0.36446706345696
  N   1.69364465583327     -1.01788353564665     -0.23771341035070
  H   2.16698416160100     -0.12740184522400     -0.31419780348247
  H   2.25403443608994     -1.68534500082201      0.27278608492267
  N   0.28348940278374      1.43821271875913     -0.39332951719427
  H   -0.16641178491224      2.12555265756348     -0.98122531207156
  H   0.28195620020873      1.77397105515729      0.56118942337287
  N   -1.79270542810256      0.17826645974063      0.10108162557028
  O   -2.40855393287569     -0.87715758544300     -0.00943663427325
  O   -2.21328385522690      1.21273461157535      0.60702141471059
