14
Coordinates from ORCA-job run
  C   0.93323996972664     -0.52925838502981     -0.18028440656896
  C   -0.36603626595365      0.21378394306559     -0.51414618178768
  F   1.47275811805956     -0.88632673581628     -1.40855457832446
  H   -1.03447338610973     -0.45479674827018     -1.05946622359127
  H   1.63808194653284      0.16579434320572      0.28674865110975
  N   0.75473947389650     -1.66284716025718      0.64016911739037
  H   -0.17288768750281     -2.05648282942458      0.64638936721425
  H   1.13300145139139     -1.57811099535404      1.56732832133003
  N   -0.13497728695824      1.40657624929805     -1.23584923604332
  H   0.40690024069065      2.06664591810857     -0.69424435937839
  H   -0.99366513937821      1.84147828547041     -1.54347281003573
  N   -1.05587321062394      0.44004140118891      0.83029996599556
  O   -1.96245566876403     -0.32701086966546      1.14812234759617
  O   -0.61835255500699      1.36151358348028      1.51696002509367
