14
Coordinates from ORCA-job run
  C   0.36941807637332     -0.91864613804838      0.19654096945970
  C   -0.34727759306422      0.26532187481600     -0.43264091973177
  F   0.40198636152597     -0.63838189322078      1.58843426555992
  H   -0.46908953234036      0.08899250195037     -1.50204426864374
  H   -0.21225378966650     -1.83364226911648      0.09418551672563
  N   1.64220492353190     -1.05928425915062     -0.37755397340433
  H   2.16179631259621     -1.82167596278047      0.03360353789350
  H   2.16050759927636     -0.19269395168360     -0.31952320570682
  N   0.36078806725745      1.46349340713949     -0.17607110614811
  H   0.36500185937634      1.65638820406640      0.81716347667403
  H   -0.04478159280309      2.25192786909137     -0.66008908595832
  N   -1.78243591660421      0.25464857712684      0.11801954430848
  O   -2.44924934702350     -0.74016301881080     -0.14848004583721
  O   -2.15661542843567      1.22471505862065      0.76745529480904
