14
Coordinates from ORCA-job run
  C   0.86682042879122     -0.38757570564148     -0.01678120908566
  C   -0.45248266068815      0.31561406300927     -0.29486117260025
  F   1.54086258144207     -0.44656259953210     -1.26203719219140
  H   -1.12327107582184     -0.34782555014456     -0.85276683238413
  H   1.48264458970433      0.23443668339478      0.63281855228476
  N   0.65038466174461     -1.64529527869011      0.56678771085126
  H   1.50630379081002     -2.07893918869050      0.88076260177718
  H   0.14389026913216     -2.27260404086437     -0.04318294905773
  N   -0.23669221244471      1.60499120984835     -0.86677160810288
  H   -1.03480927533620      1.91363283776109     -1.40375848403694
  H   0.57869947216650      1.59047676742909     -1.46268593318200
  N   -1.13756663772007      0.47047559480835      1.04847207471054
  O   -0.53903035685670      1.09768063897161      1.91256369720652
  O   -2.24575357492324     -0.04950543165942      1.16244074381074
