14
Coordinates from ORCA-job run
  C   0.90684387786925     -0.46000334761352     -0.05280493345757
  C   -0.37038701341207      0.26251607564154     -0.47503724342774
  F   1.55760748978455     -0.81846466012257     -1.23932431975551
  H   -0.96699903772930     -0.39063055367302     -1.11410260694725
  H   1.57149050375644      0.23285908610420      0.46977148717526
  N   0.61901879131764     -1.55625071468702      0.78522861100579
  H   0.03802749270580     -2.24504746830491      0.32505067254874
  H   1.46069512458262     -1.99540071661884      1.13009212217300
  N   -0.08309159602062      1.48615505952078     -1.12959809535519
  H   -0.91345812547552      1.90354023703421     -1.52711007050460
  H   0.34896506333895      2.14124203326083     -0.49061763879360
  N   -1.19604023681966      0.43449956007392      0.79425405013964
  O   -2.15293555546084     -0.31399926806230      0.96142051609485
  O   -0.82073677843723      1.31898467744671      1.56077744910418
