14
Coordinates from ORCA-job run
  C   0.62966347077588     -0.72093908182280     -0.38580910720974
  C   -0.49364705744433      0.30541323285036     -0.52205930726281
  F   0.02562738966869     -1.98837955013813     -0.44291645135602
  H   -0.98206553104857      0.18400074276470     -1.48870148688339
  H   1.26537937069700     -0.64702873270600     -1.27205021054866
  N   1.41495801006894     -0.51360913206308      0.76731739674106
  H   0.86418341158171     -0.62277785039610      1.60886176380126
  H   2.22080422649601     -1.12222535096737      0.78435463071878
  N   -0.07732971507686      1.64108304827761     -0.28405620452828
  H   0.81237394613965      1.67659920435664      0.19184070214423
  H   -0.10200143545731      2.22369624946819     -1.10399738309426
  N   -1.59054837434447     -0.05936967397693      0.46972719971565
  O   -1.27547937637448     -0.09387536519192      1.65715280202614
  O   -2.71291833568186     -0.26258774045517      0.02033565573605
