14
Coordinates from ORCA-job run
  C   0.59587661593116     -0.68498091507847     -0.48936799503860
  C   -0.54763244631594      0.32716643831699     -0.45051726877757
  F   0.00371077979279     -1.95727766546793     -0.56536554009405
  H   -1.12838962649753      0.25454428734666     -1.36977942470558
  H   1.13929372468897     -0.54615149863709     -1.42771476012205
  N   1.49006098316719     -0.53424757453082      0.59059619386132
  H   2.30208845884214     -1.12599404214018      0.48861021036060
  H   1.02891755947368     -0.70522307437636      1.47456905761485
  N   -0.12689898388300      1.65483025305088     -0.17389143593675
  H   0.80397260737821      1.67557398632139      0.21703207870389
  H   -0.22958378991765      2.27906055634813     -0.95654661554669
  N   -1.53527018185080     -0.11414741274686      0.62108887053619
  O   -2.69579995808817     -0.30459371444486      0.27497361993076
  O   -1.10134574272104     -0.21755962396148      1.76631300921367
