14
Coordinates from ORCA-job run
  C   0.42244819281326     -0.89560550279590      0.29313716364060
  C   -0.34715336589885      0.24621485990194     -0.36207817797032
  F   0.39524015487323     -0.59516972223181      1.67064260010417
  H   -0.50249654237463      0.02151476447264     -1.41911030838373
  H   -0.11604147022040     -1.83624569704380      0.17997212052688
  N   1.73987697276781     -0.98448001310815     -0.17660537027861
  H   1.98449379053304     -1.84071945113862     -0.64000209163768
  H   2.08209358427266     -0.15073073689862     -0.62589727815389
  N   0.34414683261943      1.46846428201787     -0.18942749860749
  H   -0.13285171812544      2.23988323242930     -0.63455236824569
  H   0.44562195504703      1.67189443129146      0.79676143648483
  N   -1.76393232950822      0.23029946426466      0.23022830702599
  O   -2.41797871734826     -0.78528847826909      0.01225821478044
  O   -2.13646733945066      1.21096856710812      0.86367325071450
