14
Coordinates from ORCA-job run
  C   0.52244594462382     -0.90721284046171     -0.42115358145720
  C   -0.41864424868085      0.29436880629921     -0.51119594202708
  F   -0.14996486122880     -2.06153482092014     -0.76561520278581
  H   -0.99110418471384      0.23263239857737     -1.44143736060414
  H   1.28970585490735     -0.76824906483400     -1.19774354567883
  N   1.00926012381688     -1.02777759180970      0.91199849523522
  H   1.30016873836131     -0.11467476788486      1.24136669972173
  H   1.80395216902356     -1.65258847717168      0.94792851729476
  N   0.35422679003797      1.50419663476523     -0.33060812302269
  H   -0.15691611152870      2.15970466220477      0.24622358464745
  H   0.54449666709502      1.93020586498058     -1.22783836742159
  N   -1.45079811743698      0.17419109717259      0.58168594381578
  O   -2.31039558530494     -0.68001869516353      0.41237120347697
  O   -1.34743317897181      0.91675679424589      1.55501767880543
