14
Coordinates from ORCA-job run
  C   0.92637437022568     -0.51945385445262     -0.23477091715471
  C   -0.39047054956508      0.22263217984720     -0.49248472600588
  F   1.41136676591730     -0.84585733159598     -1.49424052080092
  H   -1.07978676956543     -0.43732892845345     -1.02206215151220
  H   1.64838316740292      0.16964620552005      0.21450761321412
  N   0.79141898260404     -1.67184876727707      0.56735058543665
  H   1.21551294598297     -1.60690789309265      1.47606688757786
  H   -0.13323421764324     -2.07003747958948      0.61030729222311
  N   -0.19824616894434      1.43293315038743     -1.19648869458788
  H   0.36434868944009      2.08315725480551     -0.66405060954602
  H   -1.07238440154748      1.87026273384246     -1.45311420341002
  N   -1.01977771329122      0.41470075265301      0.88685646676044
  O   -1.90655181173017     -0.36511246542310      1.22831245199742
  O   -0.55695328928606      1.32421444282869      1.57281052580804
