14
Coordinates from ORCA-job run
  C   0.89240802160659     -0.39004805566017     -0.14613526020789
  C   -0.46287092534522      0.27693506488413     -0.39617039995652
  F   1.51562391972074     -0.36531624457191     -1.40703650338894
  H   -1.05722956340317     -0.37035872261515     -1.04351773090200
  H   1.50714501971016      0.24500207919352      0.49854738325091
  N   0.78640563343617     -1.69794901165257      0.35071728550279
  H   -0.13767156881876     -2.09808708931581      0.36767178967748
  H   1.30770914659952     -1.89061777603789      1.18733666102219
  N   -0.44296577812067      1.60800569295834     -0.92449306434621
  H   0.19067292388605      2.18933307729676     -0.38962194783508
  H   -0.12271745899794      1.57566480975029     -1.88329758725061
  N   -1.16785031282146      0.30530296440624      0.92541756716808
  O   -2.02236841847200     -0.55132389442192      1.14139453861167
  O   -0.78829063898001      1.16345710578614      1.71818726865411
