14
Coordinates from ORCA-job run
  C   0.54971808906997     -0.85127905757343     -0.35426739946479
  C   -0.43266039961938      0.29804081291129     -0.59713321875888
  F   -0.14918832784692     -2.02999991904682     -0.21371369497222
  H   -0.88276775935735      0.20847992464989     -1.58636414615425
  H   1.17504338037772     -0.94297680148724     -1.25003226997730
  N   1.30389887326531     -0.62279350256312      0.85488556132103
  H   2.23004517706323     -0.28223072145334      0.63648410313110
  H   1.38903248924158     -1.49551068489851      1.35853135143937
  N   0.27107950837506      1.51755050716347     -0.44007949597281
  H   0.52385018572680      1.61891858327439      0.53620906287640
  H   -0.28780999555542      2.30979174768457     -0.72632930955403
  N   -1.61182635695297      0.13479835593680      0.36185176309483
  O   -2.54185254672001     -0.56643528190165     -0.02632567871568
  O   -1.53656231706760      0.70264603730370      1.44828337170723
