15

C	0.0	0.0	0.0
C	-0.580899	-0.129732	-1.397076
Cl	1.762943	0.0	0.0
H	-0.38988	-1.151731	-1.738694
H	-1.6723	-0.004193	-1.285957
N	-0.379715	1.370993	0.58228
O	-0.825053	2.210262	-0.187943
O	-0.153099	1.533381	1.776471
C	-0.512563	-1.071475	0.935517
H	-0.213612	-2.049782	0.553805
H	-1.603127	-1.000207	0.975143
H	-0.083088	-0.923962	1.92533
C	-0.030147	0.795982	-2.381449
N	0.418818	1.491057	-3.214088
Cl	-3.703851	0.0	0.0
