15

C	0.0	0.0	0.0
C	-0.466768	-0.127252	-1.480657
Cl	1.857131	0.0	0.0
H	0.394966	-0.057525	-2.152975
H	-1.171555	0.707313	-1.679739
N	-0.47219	1.226557	0.514324
H	-0.107268	2.031873	0.025248
H	-0.313012	1.306583	1.511555
C	-0.473687	-1.145102	0.871202
H	-1.568588	-1.093719	0.86508
H	-0.122672	-2.106093	0.483351
H	-0.095724	-1.019365	1.888905
C	-1.164311	-1.370074	-1.821319
N	-1.594552	-2.308387	-2.379461
Cl	-3.801992	0.0	0.0
