15

C	0.0	0.0	0.0
C	-0.485322	0.357569	-1.406776
Cl	1.797545	0.0	0.0
H	-0.142691	-0.400256	-2.116479
H	-1.583602	0.33527	-1.372717
N	-0.471586	1.015949	0.905407
H	-0.241948	0.74435	1.855809
H	-1.492663	1.01331	0.826405
C	-0.440537	-1.417695	0.34754
H	-0.078444	-1.678127	1.345632
H	-0.044664	-2.146765	-0.36455
H	-1.532881	-1.436971	0.339389
C	-0.031166	1.668258	-1.862225
N	0.311034	2.709432	-2.281898
Cl	-3.675698	0.0	0.0
