15

C	0.0	0.0	0.0
C	-0.491976	-0.053634	-1.445459
Cl	1.852044	0.0	0.0
H	-1.591038	-0.07317	-1.373784
H	-0.129568	-0.960234	-1.93661
N	-0.481665	1.177287	0.604176
H	-0.147345	2.022265	0.16157
H	-0.328875	1.202712	1.600965
C	-0.480647	-1.216786	0.75921
H	-1.574958	-1.196494	0.736135
H	-0.098421	-2.133116	0.306625
H	-0.13227	-1.174122	1.794543
C	-0.072652	1.111139	-2.22071
N	0.24933	2.053771	-2.841831
Cl	-3.851532	0.0	0.0
