15

C	0.0	0.0	0.0
C	-0.206819	-0.14833	-1.545066
Cl	1.803415	0.0	0.0
H	0.319866	-1.054511	-1.858118
H	0.340705	0.683247	-2.00211
N	-0.515912	1.193904	0.586716
H	-1.530294	1.049559	0.661801
H	-0.367455	1.981198	-0.034724
C	-0.480504	-1.210633	0.770151
H	-0.032805	-2.122944	0.372235
H	-1.569665	-1.254168	0.687784
H	-0.19714	-1.100843	1.818426
C	-1.504143	-0.178146	-2.231362
N	-2.294648	-0.228634	-3.099569
Cl	-3.631333	0.0	0.0
