15

C	0.0	0.0	0.0
C	-0.485402	0.339386	-1.411358
Cl	1.797566	0.0	0.0
H	-0.142175	-0.427466	-2.111277
H	-1.584089	0.316515	-1.37939
N	-0.472241	1.026637	0.89312
H	-1.493734	1.023885	0.812843
H	-0.244288	0.764753	1.847225
C	-0.441665	-1.412608	0.36629
H	-0.051472	-2.151588	-0.339206
H	-1.534227	-1.429243	0.365299
H	-0.073771	-1.662316	1.365684
C	-0.031967	1.643427	-1.884182
N	0.31232	2.677332	-2.319492
Cl	-3.680578	0.0	0.0
