15

C	0.0	0.0	0.0
C	-0.479108	0.023452	-1.451536
Cl	1.85205	0.0	0.0
H	-1.577434	-0.047317	-1.393144
H	-0.069104	-0.828865	-1.999645
N	-0.495631	1.12766	0.670369
H	-0.3857	1.090522	1.671054
H	-0.193551	2.010214	0.285148
C	-0.460386	-1.270753	0.683854
H	-0.100074	-1.289979	1.715901
H	-1.555141	-1.263784	0.669651
H	-0.06743	-2.14916	0.168663
C	-0.105116	1.256885	-2.136748
N	0.190963	2.249091	-2.690285
Cl	-3.825117	0.0	0.0
