16

C	-0.399058	0.003394	-1.418647
C	0.0	0.0	0.0
F	0.09963	-1.017378	-2.124546
H	1.09271	0.0	0.0
H	-0.36327	0.918005	0.463284
N	-1.927048	-0.063475	-1.601508
O	-2.411924	-1.139654	-1.92804
O	-2.547291	0.957081	-1.316332
N	-0.027507	1.284362	-2.166641
O	-0.004584	1.18919	-3.390776
O	0.171873	2.295638	-1.511695
C	-0.493278	-1.250018	0.717388
H	-1.581758	-1.296457	0.84401
H	-0.028362	-1.278738	1.70489
H	-0.167953	-2.144966	0.183376
F	2.584624	0.0	0.0
