16

C	-0.419457	-0.028774	-1.415179
C	0.0	0.0	0.0
F	-0.132379	1.119245	-2.052702
H	1.092545	0.0	0.0
H	-0.326664	0.980618	0.366561
N	0.17643	-1.147188	-2.269317
O	0.787552	-2.045831	-1.715002
O	-0.020327	-1.031005	-3.47659
N	-1.930003	-0.240273	-1.580893
O	-2.632565	0.763607	-1.57108
O	-2.327661	-1.402629	-1.604055
C	-0.53525	-1.116783	0.88523
H	-0.270654	-2.093569	0.483919
H	-0.05404	-1.024999	1.861557
H	-1.62064	-1.080228	1.029925
F	2.589852	0.0	0.0
