16

C	-0.452325	0.06269	-1.400208
C	0.0	0.0	0.0
F	0.02662	1.105578	-2.083704
H	1.098897	0.0	0.0
H	-0.358967	-0.934268	0.432962
N	-0.125429	-1.194085	-2.210416
O	-0.07484	-2.257422	-1.607941
O	0.022611	-1.030775	-3.417677
N	-1.990706	0.160611	-1.5054
O	-2.620038	-0.839841	-1.176675
O	-2.46652	1.245969	-1.818777
C	-0.471342	1.214942	0.791402
H	0.052997	1.213543	1.748931
H	-0.193024	2.136385	0.275833
H	-1.550842	1.235036	0.983811
F	2.588016	0.0	0.0
