16

C	-0.525908	0.009355	-1.374696
C	0.0	0.0	0.0
F	-1.888783	-0.044744	-1.47695
H	1.088304	0.0	0.0
H	-0.350309	-0.928331	0.460971
N	-0.084079	1.257196	-2.118771
O	1.080449	1.273974	-2.488096
O	-0.911919	2.156172	-2.229153
N	-0.064144	-1.158608	-2.239453
O	-0.252434	-1.031738	-3.447249
O	0.356912	-2.155824	-1.670086
C	-0.459033	1.228399	0.781279
H	-0.143484	1.105577	1.819265
H	0.047466	2.120725	0.405978
H	-1.539795	1.400437	0.757681
F	2.588243	0.0	0.0
