16

C	-0.552175	-0.079851	-1.364184
C	0.0	0.0	0.0
F	-1.913611	-0.086144	-1.429308
H	1.088457	0.0	0.0
H	-0.331501	0.977537	0.372408
N	-0.093074	1.11918	-2.187836
O	0.948059	0.9992	-2.81773
O	-0.792747	2.12058	-2.093649
N	-0.123886	-1.288876	-2.187558
O	0.732079	-2.032913	-1.731896
O	-0.704521	-1.41249	-3.264627
C	-0.504614	-1.108159	0.917345
H	-1.595607	-1.148728	1.002028
H	-0.131948	-2.077061	0.583972
H	-0.085985	-0.933373	1.910626
F	2.58665	0.0	0.0
