16

C	-0.370074	0.024705	-1.432948
C	0.0	0.0	0.0
F	-0.124976	1.218727	-1.995225
H	1.098713	0.0	0.0
H	-0.340235	0.968678	0.383609
N	0.326312	-1.018286	-2.30499
O	0.682199	-2.05871	-1.773088
O	0.432006	-0.731135	-3.493229
N	-1.865159	-0.24753	-1.664917
O	-2.207138	-1.40332	-1.897828
O	-2.612891	0.7093	-1.49783
C	-0.574035	-1.139685	0.82652
H	-0.25223	-2.10411	0.438304
H	-0.183068	-1.047035	1.842441
H	-1.669869	-1.130558	0.883174
F	2.580428	0.0	0.0
