16

C	-0.411431	0.014079	-1.414193
C	0.0	0.0	0.0
F	0.10014	1.055177	-2.094121
H	1.094274	0.0	0.0
H	-0.338389	0.957215	0.409289
N	-0.03891	-1.252471	-2.165629
O	-0.702126	-2.241191	-1.866282
O	0.867891	-1.194406	-2.978318
N	-1.931654	0.129222	-1.695121
O	-2.666244	0.435701	-0.761974
O	-2.277584	-0.024879	-2.863541
C	-0.479213	-1.171196	0.846538
H	-1.559811	-1.335369	0.821856
H	0.025105	-2.089252	0.543284
H	-0.180168	-0.973421	1.878994
F	2.586342	0.0	0.0
