15

C	0.0	0.0	0.0
C	-0.592009	0.113224	-1.404238
Br	1.954641	0.0	0.0
H	-1.690099	0.168636	-1.114959
H	-0.29342	0.890665	0.555927
C	-0.49891	-1.237423	0.720159
H	-0.134258	-2.147411	0.235985
H	-0.154715	-1.242416	1.75709
H	-1.594437	-1.142949	0.662966
N	-0.35817	-1.017608	-2.294218
H	-0.950649	-1.778948	-1.987864
H	0.610329	-1.315966	-2.219209
C	-0.172124	1.351675	-2.059473
N	0.162695	2.350777	-2.58045
F	-2.881674	0.0	0.0
