15

C	0.0	0.0	0.0
C	-0.48763	-0.116334	-1.470864
Br	1.953044	0.0	0.0
H	0.367398	0.042023	-2.135235
H	-0.270066	1.011603	0.301807
C	-0.575189	-1.008247	0.964715
H	-1.667224	-0.888631	0.855976
H	-0.260571	-0.779087	1.986275
H	-0.264228	-2.025452	0.715758
N	-1.47567	0.917304	-1.72939
H	-1.795011	0.809591	-2.687857
H	-2.282708	0.673178	-1.076768
C	-0.943611	-1.498604	-1.762245
N	-1.265038	-2.579996	-2.092612
F	-3.087138	0.0	0.0
