17

C	-0.548584	0.013728	-1.401885
C	0.0	0.0	0.0
Br	0.262771	1.505123	-2.416186
H	1.090281	0.0	0.0
N	-0.149476	-1.23363	-2.207395
O	-0.897882	-1.541479	-3.127934
O	0.913899	-1.749807	-1.913001
C	-1.992106	0.182369	-1.476095
N	-3.148099	0.402635	-1.471851
N	-0.46698	-1.186917	0.676844
O	-0.139724	-1.321516	1.865606
O	-1.102733	-2.047165	0.028843
C	-0.323203	1.238487	0.815874
H	0.147053	2.108274	0.354343
H	-1.400224	1.405431	0.923221
H	0.12695	1.098432	1.797852
H	2.417473	0.0	0.0
