17

C	-0.380393	-0.007558	-1.484038
C	0.0	0.0	0.0
Br	0.000506	-1.714278	-2.323442
H	1.091987	0.0	0.0
N	-1.865706	0.251935	-1.843444
O	-2.683005	-0.212538	-1.078313
O	-2.046065	1.098048	-2.715556
C	0.411116	1.028101	-2.133812
N	1.117829	1.872249	-2.547312
N	-0.344777	-1.267112	0.740377
O	-1.504063	-1.473042	1.034431
O	0.633558	-1.935436	1.086476
C	-0.551343	1.185662	0.76383
H	-1.64081	1.190137	0.766355
H	-0.201539	1.124646	1.796764
H	-0.171164	2.115944	0.336558
H	2.556506	0.0	0.0
