17

C	-0.448637	-0.001585	-1.46223
C	0.0	0.0	0.0
Br	-2.350582	-0.334746	-1.737541
H	1.093192	0.0	0.0
N	-0.130573	1.421633	-2.014016
O	1.071091	1.652828	-2.067381
O	-1.055122	2.187722	-2.25041
C	0.280839	-0.915061	-2.330726
N	0.834084	-1.609339	-3.102348
N	-0.404896	-1.311247	0.568831
O	-0.973463	-1.316816	1.680067
O	0.069551	-2.300028	0.007101
C	-0.546442	1.153725	0.802144
H	-0.141435	2.090977	0.415282
H	-1.637551	1.191358	0.802944
H	-0.203264	1.047932	1.831396
H	2.578662	0.0	0.0
