19

C	0.0	0.0	0.0
C	-0.659932	0.302211	-1.368602
Cl	1.771487	0.0	0.0
H	-1.467666	0.980618	-1.092671
N	-0.289797	1.215735	0.912474
O	-0.37779	1.024197	2.120111
O	-0.311764	2.322627	0.380938
C	-0.513607	-1.236545	0.685193
H	-0.299879	-2.088983	0.043128
H	-0.039824	-1.355306	1.658509
H	-1.597947	-1.081947	0.765414
N	-1.269062	-0.930547	-1.879729
H	-1.540548	-0.738229	-2.83884
H	-2.142623	-0.93321	-1.321885
C	0.260389	0.944489	-2.39051
H	-0.342944	1.267533	-3.246088
H	1.014087	0.237325	-2.746024
H	0.756461	1.823036	-1.978199
F	-2.973905	0.0	0.0
