19

C	0.0	0.0	0.0
C	-0.401067	0.045236	-1.528555
Cl	1.786211	0.0	0.0
H	0.394773	0.631947	-1.99714
N	-0.322677	1.371281	0.614901
O	-0.118973	2.356447	-0.092641
O	-0.700478	1.414762	1.779114
C	-0.648062	-1.06758	0.825039
H	-0.3462	-0.9913	1.86931
H	-0.372242	-2.048299	0.438184
H	-1.736296	-0.879812	0.711383
N	-1.659798	0.644056	-1.875255
H	-2.425743	0.302492	-1.226203
H	-1.591546	1.640675	-1.724241
C	-0.364036	-1.376714	-2.084399
H	0.543727	-1.923391	-1.813257
H	-0.432728	-1.310988	-3.171621
H	-1.241403	-1.920133	-1.726984
F	-3.264714	0.0	0.0
