19

C	0.0	0.0	0.0
C	-0.275567	-0.057642	-1.586486
Cl	1.786246	0.0	0.0
H	0.572797	0.50344	-1.980466
N	-0.407344	1.332975	0.575476
O	-0.428285	2.285597	-0.201414
O	-0.605602	1.410695	1.775499
C	-0.410823	-1.139609	0.910244
H	0.068845	-2.055064	0.559025
H	-1.49938	-1.183651	0.883905
H	-0.054527	-0.925933	1.919963
N	-1.464841	0.506372	-2.201258
H	-1.834428	1.191625	-1.54808
H	-2.196877	-0.211319	-2.107673
C	-0.143542	-1.50511	-2.04953
H	-0.196416	-1.510367	-3.141661
H	0.789087	-1.982357	-1.744532
H	-0.985243	-2.084083	-1.660462
F	-2.535289	0.0	0.0
