19

C	0.0	0.0	0.0
C	-0.601857	0.120013	-1.407026
Cl	1.77739	0.0	0.0
H	-1.687293	0.049626	-1.148343
N	-0.369872	1.213007	0.867318
O	-0.823882	1.009444	1.985021
O	-0.117982	2.327818	0.413399
C	-0.507456	-1.245374	0.686199
H	-0.200772	-2.099111	0.084958
H	-0.102355	-1.32423	1.694898
H	-1.601512	-1.120079	0.685353
N	-0.181181	-1.080312	-2.144103
H	0.612962	-0.856845	-2.734563
H	-0.944837	-1.362275	-2.744824
C	-0.31535	1.392859	-2.19393
H	-0.812991	2.260522	-1.76801
H	-0.696838	1.242292	-3.209803
H	0.758313	1.605119	-2.256589
F	-2.934341	0.0	0.0
