19

C	0.0	0.0	0.0
C	-0.285747	-0.142295	-1.545134
Cl	1.789056	0.0	0.0
H	0.148238	-1.134685	-1.725832
N	-0.405792	1.366769	0.531694
O	-0.387264	1.512107	1.74893
O	-0.686424	2.24605	-0.27708
C	-0.694916	-1.044252	0.817258
H	-0.465379	-2.03225	0.411733
H	-1.779643	-0.813	0.704984
H	-0.38333	-0.992151	1.860151
N	0.5398	0.788673	-2.341583
H	0.491286	0.454633	-3.299194
H	0.05713	1.679323	-2.325838
C	-1.724479	-0.156212	-2.039616
H	-2.465719	-0.560621	-1.333993
H	-1.718068	-0.654041	-3.019047
H	-2.062635	0.87319	-2.175956
F	-3.319345	0.0	0.0
