19

C	0.0	0.0	0.0
C	-0.244266	-0.035019	-1.576144
Cl	1.795183	0.0	0.0
H	0.429069	-0.852657	-1.858697
N	-0.44199	1.268392	0.70681
O	-0.82658	2.223837	0.044091
O	-0.341311	1.261099	1.930055
C	-0.612844	-1.170646	0.705367
H	-0.331705	-2.088603	0.182642
H	-0.280805	-1.220048	1.742764
H	-1.70861	-0.969465	0.6194
N	0.220875	1.136653	-2.31723
H	-0.430186	1.886701	-2.123742
H	1.124157	1.434079	-1.968267
C	-1.622069	-0.40674	-2.094737
H	-1.563288	-0.33011	-3.185186
H	-1.875801	-1.431019	-1.819733
H	-2.409706	0.192494	-1.630809
F	-3.069536	0.0	0.0
