19

C	0.0	0.0	0.0
C	-0.446631	0.098239	-1.518676
Cl	1.785964	0.0	0.0
H	0.404464	0.566795	-2.022931
N	-0.309894	1.361997	0.646759
O	0.044928	2.358396	0.021825
O	-0.854869	1.382899	1.743017
C	-0.630953	-1.079217	0.823236
H	-1.719286	-0.889821	0.734802
H	-0.305313	-1.018616	1.861567
H	-0.365728	-2.054892	0.416333
N	-1.623478	0.869703	-1.819585
H	-2.400063	0.55324	-1.175768
H	-1.431879	1.844585	-1.626924
C	-0.652925	-1.310859	-2.061955
H	-1.575733	-1.704851	-1.630123
H	0.182347	-1.984539	-1.846953
H	-0.786864	-1.238125	-3.142884
F	-3.191497	0.0	0.0
