19

C	0.0	0.0	0.0
C	-0.635344	0.33923	-1.378641
Cl	1.793273	0.0	0.0
H	-1.397237	1.074728	-1.122519
N	-0.295494	1.184093	0.939577
O	-0.496545	0.948821	2.123355
O	-0.233456	2.308905	0.452119
C	-0.506688	-1.263429	0.637099
H	-1.590902	-1.113596	0.725137
H	-0.294976	-2.08847	-0.040772
H	-0.032042	-1.420465	1.6043
N	-1.30491	-0.85687	-1.894874
H	-2.167536	-0.830338	-1.315078
H	-1.588235	-0.634795	-2.845528
C	0.327232	0.920527	-2.399702
H	-0.253134	1.270913	-3.259388
H	0.874608	1.770891	-1.995401
H	1.034507	0.164149	-2.745544
F	-2.962003	0.0	0.0
