19

C	0.0	0.0	0.0
C	-0.617703	0.33363	-1.409249
Cl	1.795726	0.0	0.0
H	-1.375117	1.074673	-1.16673
N	-0.310332	1.182199	0.93439
O	-0.515261	0.949689	2.11934
O	-0.25968	2.304827	0.440682
C	-0.514271	-1.259822	0.637126
H	-0.235938	-2.115741	0.020195
H	-0.089732	-1.383426	1.632024
H	-1.605706	-1.117776	0.66392
N	-1.385325	-0.743454	-2.003206
H	-2.202039	-0.789968	-1.367542
H	-0.867076	-1.614739	-1.992274
C	0.371352	0.919068	-2.406041
H	0.9141	1.769047	-1.990389
H	-0.206433	1.249766	-3.271282
H	1.093186	0.171406	-2.747606
F	-2.938449	0.0	0.0
