18

C	0.0	0.0	0.0
C	-0.338386	0.005314	-1.503214
F	1.401822	0.0	0.0
H	-0.042598	-1.005836	-1.837066
C	-0.374412	1.281841	0.630283
N	-0.594034	2.293481	1.183389
C	-0.573856	-1.169101	0.75719
H	-0.300501	-2.101051	0.256034
H	-0.185599	-1.181429	1.778201
H	-1.666867	-1.066675	0.781412
N	0.47887	1.04988	-2.130019
H	1.449585	0.768199	-2.170044
H	0.142836	1.194298	-3.07393
C	-1.792791	0.259979	-1.841793
H	-1.990091	1.332879	-1.772875
H	-1.981542	-0.061847	-2.873668
H	-2.546255	-0.190743	-1.175127
H	-4.087828	0.0	0.0
