18

C	0.0	0.0	0.0
C	-0.496309	-0.02535	-1.441577
F	1.401054	0.0	0.0
H	-1.591278	-0.120118	-1.330373
C	-0.342415	1.286787	0.650631
N	-0.434849	2.346388	1.149507
C	-0.516534	-1.163251	0.80766
H	-0.111444	-1.124966	1.822737
H	-1.612871	-1.062038	0.815101
H	-0.219766	-2.087221	0.311847
N	0.051019	-1.231247	-2.070924
H	1.016151	-1.053919	-2.330165
H	-0.468067	-1.412548	-2.921679
C	-0.154045	1.261755	-2.189492
H	-0.430693	1.158162	-3.243152
H	0.920216	1.471187	-2.13413
H	-0.698074	2.115211	-1.779169
H	-3.249749	0.0	0.0
