18

C	0.0	0.0	0.0
C	-0.336625	0.122112	-1.515018
F	1.401122	0.0	0.0
H	0.41632	-0.538574	-1.967046
C	-0.390701	1.212985	0.740923
N	-0.578685	2.231893	1.293811
C	-0.537333	-1.246331	0.65779
H	-1.631019	-1.168627	0.702493
H	-0.251	-2.121629	0.069117
H	-0.127975	-1.344714	1.66652
N	-0.085219	1.462497	-2.040846
H	-0.834467	2.073913	-1.729757
H	0.780896	1.823421	-1.653074
C	-1.72341	-0.347314	-1.909719
H	-1.898369	-0.047829	-2.947328
H	-1.794614	-1.437019	-1.853336
H	-2.534915	0.029276	-1.260411
H	-3.958744	0.0	0.0
