18

C	0.0	0.0	0.0
C	-0.608205	0.082701	-1.399715
F	1.39277	0.0	0.0
H	-1.62957	0.456224	-1.197452
C	-0.338616	1.258917	0.716929
N	-0.48886	2.271899	1.291999
C	-0.507376	-1.187438	0.784288
H	-1.60524	-1.112158	0.794879
H	-0.104846	-1.163308	1.800493
H	-0.185604	-2.097063	0.275806
N	-0.684174	-1.261895	-1.993891
H	-0.751552	-1.151524	-2.998344
H	-1.58286	-1.642143	-1.696667
C	0.178539	1.03082	-2.2872
H	1.168376	0.618835	-2.506595
H	0.302971	2.008703	-1.812444
H	-0.35699	1.185634	-3.229808
H	-3.305998	0.0	0.0
