18

C	0.0	0.0	0.0
C	-0.486508	-0.013354	-1.44362
F	1.410059	0.0	0.0
H	-1.583104	-0.099299	-1.339306
C	-0.355371	1.266805	0.678644
N	-0.468186	2.278475	1.265306
C	-0.505157	-1.179072	0.792577
H	-1.602437	-1.088379	0.803026
H	-0.199713	-2.092828	0.283548
H	-0.097838	-1.14921	1.806824
N	0.053447	-1.220076	-2.07718
H	-0.451427	-1.383763	-2.940183
H	1.026294	-1.055203	-2.315442
C	-0.122722	1.274158	-2.179985
H	-0.401261	1.185364	-3.23445
H	-0.650477	2.134379	-1.761737
H	0.95542	1.462142	-2.123717
H	-3.240128	0.0	0.0
