18

C	0.0	0.0	0.0
C	-0.429105	-0.233775	-1.483136
F	1.396024	0.0	0.0
H	0.368543	0.271527	-2.045042
C	-0.347376	1.393792	0.36516
N	-0.467018	2.53313	0.62537
C	-0.560867	-0.962763	1.015995
H	-0.231123	-1.978665	0.793368
H	-1.656753	-0.894349	0.960282
H	-0.221117	-0.688243	2.017892
N	-1.698758	0.324717	-1.888161
H	-1.641529	1.337419	-1.863148
H	-2.459953	0.086962	-1.205102
C	-0.394912	-1.717821	-1.826075
H	-0.493327	-1.820852	-2.908378
H	-1.245105	-2.224684	-1.364157
H	0.536144	-2.19504	-1.502606
H	-3.585726	0.0	0.0
