16

C	0.0	0.0	0.0
C	-0.450203	0.049607	-1.516122
Br	1.951737	0.0	0.0
H	0.45676	-0.038118	-2.123963
N	-0.478846	1.176042	0.663352
H	-1.504663	1.127821	0.589432
H	-0.240844	1.111191	1.648434
C	-0.3925	-1.32291	0.658723
H	0.023381	-2.183584	0.131548
H	-1.483313	-1.377403	0.67219
H	-0.012173	-1.327066	1.68355
C	-1.040271	1.331881	-1.912884
N	-1.397609	2.360608	-2.351488
C	-1.274179	-1.089639	-1.940525
N	-1.703883	-2.078707	-2.406315
Cl	-3.460823	0.0	0.0
