16

C	0.0	0.0	0.0
C	-0.439855	0.14976	-1.511991
Br	1.952512	0.0	0.0
H	0.471411	0.109096	-2.118922
N	-0.481925	1.128251	0.739204
H	-1.507524	1.080851	0.651647
H	-0.25705	0.99026	1.71938
C	-0.392043	-1.363543	0.565451
H	0.021523	-2.186948	-0.02087
H	-0.009914	-1.441222	1.586567
H	-1.482408	-1.420767	0.576903
C	-1.040804	1.449843	-1.828682
N	-1.410401	2.499814	-2.201923
C	-1.25186	-0.96549	-2.014566
N	-1.695966	-1.917896	-2.539644
Cl	-3.444281	0.0	0.0
