16

C	0.0	0.0	0.0
C	-0.49971	-0.273032	-1.391709
F	1.402882	0.0	0.0
H	0.064212	-1.128056	-1.766644
H	-1.552169	-0.558495	-1.313573
N	-0.516258	1.142988	0.594063
H	-1.533081	1.119617	0.45351
H	-0.328426	1.126716	1.590192
N	-0.224227	-1.276956	0.888275
O	-0.274874	-1.089385	2.101439
O	-0.238422	-2.373453	0.340064
C	-0.342562	0.938442	-2.301553
H	-0.536735	0.646297	-3.337066
H	-1.05435	1.719017	-2.031483
H	0.666942	1.349606	-2.243541
Br	-3.776791	0.0	0.0
