16

C	0.0	0.0	0.0
C	-0.509842	-0.235617	-1.40473
F	1.389496	0.0	0.0
H	-0.516359	0.754016	-1.869972
H	-1.552183	-0.550195	-1.319824
N	-0.516952	1.157569	0.57668
H	-1.53064	1.152962	0.423829
H	-0.337053	1.151304	1.574629
N	-0.255832	-1.241494	0.913208
O	-0.046164	-1.061957	2.112616
O	-0.586808	-2.306827	0.406424
C	0.322019	-1.195882	-2.248909
H	1.35205	-0.848382	-2.350524
H	-0.115296	-1.262858	-3.248027
H	0.330896	-2.195724	-1.818014
Br	-3.784884	0.0	0.0
