18

C	-0.255061	0.062347	-1.486864
C	0.0	0.0	0.0
Br	-2.376017	0.801419	-1.753084
H	1.092219	0.0	0.0
C	0.566201	1.1897	-2.073371
H	0.239867	2.158935	-1.697088
H	1.590936	0.986241	-1.733369
H	0.496165	1.19324	-3.165652
N	-0.109041	-1.098872	-2.192609
H	-0.622689	-1.880233	-1.813691
H	-0.18267	-0.985518	-3.190907
N	-0.511923	-1.221255	0.70498
O	-1.091626	-2.116722	0.073584
O	-0.294762	-1.280955	1.906007
N	-0.368401	1.154024	0.753757
H	-1.111099	1.677382	0.312206
H	0.452889	1.716229	0.913836
F	2.56455	0.0	0.0
