18

C	-0.125583	-0.014597	-1.521195
C	0.0	0.0	0.0
Br	-2.044423	-0.299743	-2.110147
H	1.094219	0.0	0.0
C	0.299798	1.351673	-2.03736
H	1.31392	1.488583	-1.646479
H	-0.345661	2.152383	-1.682951
H	0.318204	1.339328	-3.131598
N	0.683773	-1.08735	-2.02428
H	0.893074	-0.90777	-3.000026
H	1.557203	-1.036483	-1.480786
N	-0.481022	-1.30022	0.599198
O	0.203391	-2.306368	0.442522
O	-1.538177	-1.2746	1.242791
N	-0.590029	1.136075	0.619594
H	-0.137995	1.286364	1.512577
H	-1.574718	0.961611	0.782198
F	2.62298	0.0	0.0
