18

C	-0.511976	0.027334	-1.454993
C	0.0	0.0	0.0
Br	0.225069	-1.464991	-2.514489
H	1.090917	0.0	0.0
C	-2.022423	-0.050299	-1.551624
H	-2.464108	0.743296	-0.941154
H	-2.333426	0.077148	-2.589443
H	-2.383482	-1.013521	-1.186963
N	-0.000953	1.235315	-2.081285
H	-0.328966	1.986936	-1.47672
H	1.01012	1.202711	-1.94015
N	-0.513981	-1.204275	0.731719
O	-0.040521	-2.300266	0.445742
O	-1.414041	-1.049281	1.573609
N	-0.434576	1.214793	0.661016
H	0.36055	1.541691	1.194219
H	-1.192225	1.006636	1.297672
F	2.567823	0.0	0.0
