18

C	-0.556775	-0.012273	-1.436591
C	0.0	0.0	0.0
Br	0.310169	1.517973	-2.332557
H	1.088909	0.0	0.0
C	-0.141202	-1.262519	-2.184657
H	0.926241	-1.421936	-2.026435
H	-0.370555	-1.150759	-3.244357
H	-0.689311	-2.128682	-1.800655
N	-1.986596	0.226942	-1.54945
H	-2.175353	1.101817	-1.066112
H	-2.455328	-0.505638	-1.020957
N	-0.460095	-1.305089	0.619982
O	0.265953	-2.291321	0.531352
O	-1.580946	-1.331261	1.161532
N	-0.514173	1.112513	0.748569
H	0.205111	1.397798	1.399397
H	-1.348124	0.848837	1.256138
F	2.579228	0.0	0.0
