18

C	-0.206662	0.075229	-1.53347
C	0.0	0.0	0.0
Br	-0.522561	-2.008171	-2.307679
H	1.091372	0.0	0.0
C	-1.480887	0.710643	-2.037675
H	-2.349425	0.183456	-1.64249
H	-1.522926	0.67748	-3.12786
H	-1.488679	1.749869	-1.698337
N	0.956096	0.580761	-2.018035
H	1.03247	0.7066	-3.014208
H	1.819066	0.349321	-1.467272
N	-0.595731	-1.223552	0.62523
O	-1.809988	-1.182298	0.865221
O	0.133148	-2.169631	0.896045
N	-0.502857	1.195056	0.617325
H	-1.466594	1.064257	0.900386
H	0.06869	1.399456	1.426938
F	2.677406	0.0	0.0
