18

C	-0.571349	0.020199	-1.425277
C	0.0	0.0	0.0
Br	-0.160422	-1.781454	-2.313874
H	1.089184	0.0	0.0
C	-2.076457	0.165112	-1.529729
H	-2.362605	0.225123	-2.584256
H	-2.345946	1.100769	-1.029898
H	-2.60397	-0.667783	-1.069569
N	0.076247	1.041385	-2.150921
H	0.826937	1.482648	-1.596268
H	-0.572588	1.741474	-2.495417
N	-0.486907	-1.231316	0.74827
O	-1.564643	-1.128419	1.364352
O	0.20253	-2.24062	0.751456
N	-0.412769	1.192669	0.694998
H	-1.277701	1.0422	1.199614
H	0.330584	1.42051	1.339584
F	2.554643	0.0	0.0
