18

C	-0.075678	0.048951	-1.531206
C	0.0	0.0	0.0
Br	-1.959021	-0.009642	-2.237807
H	1.093421	0.0	0.0
C	0.531456	1.374612	-1.978535
H	-0.043715	2.239702	-1.644263
H	1.534937	1.379504	-1.535468
H	0.598064	1.401425	-3.070056
N	0.648315	-1.094031	-2.02117
H	0.861164	-0.954866	-3.003338
H	1.531049	-1.081235	-1.490577
N	-0.548105	-1.290415	0.510596
O	0.204326	-2.260115	0.583947
O	-1.740043	-1.304468	0.828941
N	-0.567252	1.077119	0.741452
H	-1.442835	1.397198	0.346204
H	0.104105	1.829192	0.792686
F	2.642764	0.0	0.0
