14
Coordinates from ORCA-job run
  C   -0.08393286834200      0.34568054696396      0.36421473560334
  C   1.24943029260597     -0.23371106568268     -0.12106447343268
  Br  0.35625812422820      1.08987135621904      2.21903128674324
  H   1.62926111925060     -0.95087445938025      0.60958157109927
  H   1.99306696955473      0.56413424090677     -0.20642861803904
  N   -0.53041435338636      1.34198470824227     -0.52501781388512
  H   0.13704422528197      2.09328837141419     -0.64467747464613
  H   -1.42747675949108      1.72553214912054     -0.25668179203452
  C   -1.14651713605027     -0.71500130817401      0.57142087346018
  H   -2.05108950221875     -0.27036190660575      0.99093396562845
  H   -1.38815747389211     -1.16574928566172     -0.39455018523485
  H   -0.79792795906614     -1.48660291254211      1.25796106346610
  C   1.09298515122915     -0.89445437010429     -1.41722693922626
  N   0.96747017029610     -1.44373606471595     -2.44649619950197
