14
Coordinates from ORCA-job run
  C   -0.11489712466139      0.35871335714892      0.37167923777129
  C   0.96934840581394      0.04690810946149     -0.68138576968167
  Br  0.81134016633901      0.52156761647878      2.10399392777819
  H   0.48499665310159      0.04756372956674     -1.66534289740899
  H   1.71913881600397      0.84301806114652     -0.67984977863369
  N   -0.78418102280656      1.61241457311090      0.13409375521499
  H   -0.12384586516701      2.36950503905368      0.00183133012350
  H   -1.38088752472008      1.53966994022691     -0.68297528460222
  C   -1.14279103229618     -0.75192241175069      0.46933595786519
  H   -0.67981290886267     -1.70026098475005      0.74106891366650
  H   -1.63828197168443     -0.87293967130802     -0.50122065183880
  H   -1.89147686974152     -0.48762776724534      1.21576724511632
  C   1.63168073252652     -1.24002153134195     -0.48775408119016
  N   2.13966954615482     -2.28758805979788     -0.33924190418046
