14
Coordinates from ORCA-job run
  C   0.03813993848168      0.39996273100451      0.43003402588782
  C   1.27772624204957     -0.19328158816038     -0.25622241666564
  Br  0.68161603400950      1.22274454880244      2.10141288745324
  H   1.74778890547583     -0.93954057382181      0.38835140609521
  H   1.99451659818258      0.60994282128327     -0.44010532481692
  N   -0.46985455503830      1.47116991873377     -0.39689807104283
  H   -0.77665977245971      1.09098407708902     -1.28816390219566
  H   -1.26682940627488      1.91038190834037      0.04997082756033
  C   -0.97500998497844     -0.67298045751124      0.80693779126541
  H   -0.53530653177042     -1.43710666199477      1.45119858556513
  H   -1.34824973944119     -1.14969261908626     -0.10487802927400
  H   -1.81869300904006     -0.22293953372610      1.33335160290932
  C   0.90312282052905     -0.80979188989521     -1.52913843673569
  N   0.54969246027478     -1.28085268105760     -2.54485094600572
