14
Coordinates from ORCA-job run
  C   -0.14521424727605      0.10424770553061      0.30516128716933
  C   0.75805713617520     -0.69545426518295     -0.63863705243436
  Br  0.75551944153092      0.01616422067342      2.13418474643551
  H   0.23105320419685     -0.79549113174041     -1.59369815117185
  H   0.93608011255282     -1.69261496095130     -0.23188324608495
  N   -0.29332772807050      1.42528272614364     -0.16682777342270
  H   -0.91835574656151      1.96680093128124      0.41640998610530
  H   0.59164875891818      1.91184756236114     -0.25000866894707
  C   -1.49457671282741     -0.56927177341093      0.46840197766576
  H   -2.00667477075554     -0.56860005550507     -0.49793205457333
  H   -2.10706820550058     -0.02668324916129      1.19089648042674
  H   -1.38009267827585     -1.59345395865517      0.82387218252383
  C   2.03437238224231     -0.02890300670446     -0.88030741671548
  N   3.03757905365117      0.54612925532154     -1.08063229697673
