14
Coordinates from ORCA-job run
  C   -0.07207326331488      0.37038668480321      0.47767051541884
  C   1.23705130055090     -0.13062226701694     -0.17493069251019
  Br  0.49237452153923      1.16468770463748      2.19577465340566
  H   1.72432817612590     -0.87913788503057      0.45561355487112
  H   1.93186197417361      0.70561893707617     -0.29256174128504
  N   -0.75662278880661      1.39445401899917     -0.26222448105701
  H   -1.18327760358484      0.99956943218907     -1.09351743657180
  H   -0.13234081630614      2.14569369897421     -0.53119665678653
  C   -1.02831882617091     -0.77224851094307      0.76441280170521
  H   -1.91221792092460     -0.38603462890915      1.27114144508173
  H   -0.55762743976938     -1.53064253470006      1.39080271084891
  H   -1.33613477525567     -1.23851484704368     -0.17708769398338
  C   0.94392295214226     -0.70152894070498     -1.48892672799543
  N   0.64907450960113     -1.14068086233087     -2.53697025114209
