14
Coordinates from ORCA-job run
  C   -0.00738272576471      0.40275606617459      0.29959150696125
  C   0.99605190571855     -0.03535812946518     -0.77425850002771
  Br  0.97536743197055      0.65398108287538      1.98243719752361
  H   0.47458594074986     -0.05908452339713     -1.73937353431566
  H   1.78464640342089      0.71646532614628     -0.84375952188790
  N   -0.49306022988683      1.71186445380408     -0.09709849225085
  H   -1.07795281023128      1.60769637877979     -0.92191711641589
  H   -1.06644077972127      2.10615684894316      0.64057866507431
  C   -1.08705407512124     -0.64272309038096      0.54133039850035
  H   -1.79041187679440     -0.28656169520634      1.29613412863900
  H   -1.63472637629646     -0.80880956682044     -0.39350029417409
  H   -0.66931803317018     -1.59364455508517      0.87518967724722
  C   1.57414830960370     -1.35252814546916     -0.52773246302723
  N   2.02154691552281     -2.42021045089891     -0.33662165184642
