16

C	0.0	0.0	0.0
C	-0.364148	-0.035717	-1.51434
Cl	1.840431	0.0	0.0
H	0.54235	0.13879	-2.099994
H	-0.275516	0.972555	0.397891
N	-0.508272	-1.011575	0.857682
H	-0.42377	-1.925328	0.425697
H	-1.505588	-0.812489	0.972678
N	-1.169553	1.189644	-1.908288
O	-1.827292	1.111747	-2.939193
O	-0.986623	2.220657	-1.269347
C	-1.02572	-1.311927	-1.985319
H	-0.354552	-2.154418	-1.787839
H	-1.200712	-1.265039	-3.058404
H	-1.978498	-1.446855	-1.473382
Br	-3.707107	0.0	0.0
