16

C	0.0	0.0	0.0
C	-0.540878	-0.129406	-1.422979
Cl	1.79605	0.0	0.0
H	-1.624225	-0.256531	-1.309393
H	-0.274313	1.006387	0.339121
N	-0.469005	-1.075005	0.823099
H	-0.26028	-0.864604	1.791783
H	-1.485507	-1.105217	0.719794
N	-0.043174	-1.392426	-2.054315
O	0.941236	-1.32068	-2.794321
O	-0.650157	-2.429337	-1.797714
C	-0.228186	1.063291	-2.297318
H	0.843228	1.243288	-2.36806
H	-0.620299	0.90635	-3.302744
H	-0.724923	1.937185	-1.872037
Br	-3.748378	0.0	0.0
