16

C	0.0	0.0	0.0
C	-0.485098	-0.12524	-1.462311
Cl	1.797787	0.0	0.0
H	-1.542428	-0.403356	-1.38373
H	-0.311618	0.990393	0.334892
N	-0.48086	-0.96265	0.937895
H	-0.356436	-1.888293	0.543973
H	-1.487407	-0.796486	1.016489
N	0.198607	-1.275246	-2.127266
O	0.902908	-1.065479	-3.114617
O	0.023663	-2.389049	-1.628022
C	-0.329735	1.148886	-2.257188
H	0.70416	1.49685	-2.264686
H	-0.656227	1.005699	-3.287671
H	-0.973551	1.901951	-1.796808
Br	-3.66668	0.0	0.0
