16

C	0.0	0.0	0.0
C	-0.535797	0.019148	-1.432253
Cl	1.795938	0.0	0.0
H	-1.612051	-0.165486	-1.34019
H	-0.280617	0.965026	0.437831
N	-0.470336	-1.151706	0.710577
H	-1.486091	-1.173102	0.591304
H	-0.284503	-1.025059	1.699142
N	0.014447	-1.133975	-2.211452
O	0.966491	-0.921632	-2.967124
O	-0.518954	-2.228909	-2.049978
C	-0.279302	1.326188	-2.146992
H	-0.84329	2.107437	-1.632206
H	-0.639444	1.272055	-3.175692
H	0.780249	1.5797	-2.162207
Br	-3.727347	0.0	0.0
