13

C	-0.554599	-0.011979	-1.396963
C	0.0	0.0	0.0
F	-0.153039	1.079621	-2.105882
H	1.100282	0.0	0.0
H	-1.647923	-0.048627	-1.415183
H	-0.363412	-0.896493	0.507584
N	-0.110686	-1.249692	-2.146785
O	-0.496823	-2.309188	-1.658389
O	0.539411	-1.125756	-3.172272
N	-0.550477	1.200688	0.661526
H	0.072692	1.961734	0.406159
H	-0.408243	1.074424	1.657229
H	2.98235	0.0	0.0
