13

C	-0.565992	-0.034199	-1.395747
C	0.0	0.0	0.0
F	-0.512036	1.185879	-2.000632
H	1.100202	0.0	0.0
H	-1.598347	-0.396446	-1.407799
H	-0.34996	0.945799	0.426452
N	0.185333	-1.01302	-2.276929
O	0.686486	-0.616558	-3.317788
O	0.179078	-2.172661	-1.871109
N	-0.570622	-1.109375	0.790294
H	-0.086268	-1.947163	0.483551
H	-0.25401	-0.959407	1.743188
H	2.973645	0.0	0.0
