13

C	-0.520003	-0.026904	-1.423756
C	0.0	0.0	0.0
F	-0.343884	1.176417	-2.038773
H	1.093797	0.0	0.0
H	-1.58066	-0.294326	-1.495362
H	-0.358339	0.945806	0.421922
N	0.171551	-1.079206	-2.260928
O	-0.124199	-2.238155	-1.969007
O	0.933272	-0.730595	-3.148851
N	-0.421197	-1.134174	0.815494
H	0.317729	-1.825951	0.773154
H	-1.262114	-1.56967	0.457024
H	2.920212	0.0	0.0
