9
Coordinates from ORCA-job run
  C   0.97223945415184     -0.09567839778457     -0.23179092019372
  C   -0.53276817675773     -0.33236445837544     -0.22935007099482
  Cl  1.34866941094450      1.60846621774351     -0.57384706018123
  H   -0.72575647547186     -1.40583099377255     -0.13269671999518
  H   1.40902172353426     -0.34599972695819      0.73407207207918
  H   1.43731924005242     -0.70036649243622     -1.00983751037011
  H   -0.96273440778680     -0.00126140264441     -1.17761847756073
  C   -1.20687310018081      0.36248545271606      0.86578470958626
  N   -1.73911766848582      0.90954980151182      1.75628397763035
