9
Coordinates from ORCA-job run
  C   0.96641645279887     -0.05429447465140     -0.26655832883281
  C   -0.52468398361752     -0.36056390832814     -0.20497059510205
  Cl  1.24961164993101      1.65938723737211     -0.64862072592769
  H   -1.00470542434243     -0.06605618618159     -1.14114430444301
  H   1.44859282134713     -0.26733417179442      0.68656682994867
  H   1.43170068256820     -0.64985126630501     -1.05144633112604
  H   -0.66330883486731     -1.43988033522331     -0.08388886471490
  C   -1.18975735062040      0.32115416680590      0.90417179624562
  N   -1.71386601319754      0.85743893830585      1.80589052395222
