19

C	0.0	0.0	0.0
C	-0.411723	0.28713	-1.484656
Cl	1.780437	0.0	0.0
H	0.191681	1.182181	-1.686687
C	-0.5479	1.044819	0.940912
H	-0.304218	2.034834	0.548965
H	-1.634115	0.927926	0.995554
H	-0.122506	0.934474	1.935987
N	-0.403251	-1.373229	0.531169
O	-0.555383	-2.28498	-0.274973
O	-0.494949	-1.485298	1.749616
N	-1.782016	0.653508	-1.716837
H	-2.462484	-0.029203	-1.388239
H	-2.037037	1.513176	-1.248663
C	-0.008285	-0.767743	-2.517289
H	0.021917	-0.271354	-3.489657
H	0.961394	-1.223368	-2.315481
H	-0.758983	-1.553583	-2.562606
Br	-4.523458	0.0	0.0
