19

C	0.0	0.0	0.0
C	-0.567752	-0.079008	-1.435318
Cl	1.769926	0.0	0.0
H	-1.621655	-0.3458	-1.283737
C	-0.52431	1.163922	0.805575
H	-1.618678	1.124761	0.7705
H	-0.178431	1.092594	1.834739
H	-0.165115	2.096026	0.371028
N	-0.354423	-1.291384	0.776104
O	-0.213418	-1.257245	1.99334
O	-0.696825	-2.281381	0.138309
N	0.038888	-1.057665	-2.326177
H	1.036645	-0.886661	-2.397592
H	-0.094033	-1.980336	-1.933653
C	-0.525711	1.290966	-2.103118
H	-0.838502	1.155307	-3.138882
H	0.484465	1.717321	-2.100268
H	-1.216487	1.984945	-1.62522
Br	-3.956562	0.0	0.0
