11

C	0.0	0.0	0.0
C	-0.250807	-0.270519	-1.520745
Br	1.94985	0.0	0.0
H	0.496685	0.319217	-2.052626
H	-0.372211	0.959652	0.341463
H	0.014116	-1.320239	-1.695839
C	-0.396273	-1.082721	0.895215
N	-0.587496	-1.905527	1.712465
C	-1.504771	-0.032413	-2.254772
N	-2.235848	-0.048603	-3.176319
Cl	-3.032283	0.0	0.0
