11

C	0.0	0.0	0.0
C	-0.542667	0.113163	-1.424903
Br	1.947606	0.0	0.0
H	-0.232523	-0.753255	-2.014436
H	-0.338476	0.841146	0.604738
H	-1.642335	0.109993	-1.311103
C	-0.404863	-1.254686	0.630866
N	-0.627499	-2.26487	1.186744
C	-0.099413	1.334151	-2.085077
N	0.250794	2.314424	-2.628176
Cl	-3.426633	0.0	0.0
