11

C	0.0	0.0	0.0
C	-0.514798	-0.065082	-1.439987
Br	1.947578	0.0	0.0
H	-0.163626	-0.981808	-1.919445
H	-0.340086	0.913634	0.486847
H	-1.614835	-0.081634	-1.357818
C	-0.423831	-1.158425	0.783259
N	-0.627419	-2.11122	1.44024
C	-0.082249	1.087943	-2.218533
N	0.260753	2.017535	-2.848075
Cl	-3.386052	0.0	0.0
