17

C	-0.485516	-0.061631	-1.458924
C	0.0	0.0	0.0
Br	-0.259949	-1.894652	-2.14154
H	1.094765	0.0	0.0
N	-1.906501	0.232835	-1.490355
H	-2.217466	0.229071	-2.455862
H	-1.992542	1.184172	-1.141632
C	0.383176	0.848427	-2.313263
H	0.064103	0.801487	-3.358252
H	1.435314	0.571139	-2.226675
H	0.26298	1.870197	-1.944666
C	-0.516258	-1.096923	0.82344
N	-0.959826	-1.898571	1.559096
N	-0.40428	1.308349	0.549304
H	0.370752	1.665598	1.097348
H	-1.202404	1.198662	1.163849
Cl	3.348595	0.0	0.0
