17

C	-0.391611	0.000447	-1.472993
C	0.0	0.0	0.0
Br	-2.557864	-0.205388	-1.467725
H	1.096931	0.0	0.0
N	-0.033955	1.198229	-2.039198
H	-0.31233	1.325198	-2.999359
H	-0.22843	1.982728	-1.430425
C	0.097107	-1.209488	-2.226701
H	-0.192748	-1.152095	-3.278369
H	-0.307411	-2.127552	-1.802278
H	1.188939	-1.210863	-2.140724
C	-0.441658	-1.2188	0.688958
N	-0.771762	-2.167876	1.298481
N	-0.431642	1.232929	0.645933
H	-1.370022	1.130739	1.013177
H	0.208897	1.442528	1.401767
Cl	3.294495	0.0	0.0
