17

C	-0.488981	0.067876	-1.457807
C	0.0	0.0	0.0
Br	-0.259487	-1.697517	-2.301774
H	1.097647	0.0	0.0
N	-1.909517	0.35983	-1.460112
H	-2.000969	1.263618	-1.002766
H	-2.225559	0.457346	-2.419388
C	0.380271	1.0506	-2.229213
H	0.259662	2.036856	-1.772102
H	0.061819	1.097557	-3.274255
H	1.432667	0.766371	-2.169293
C	-0.522087	-1.159576	0.724789
N	-0.979434	-2.015746	1.387266
N	-0.402079	1.258394	0.664368
H	0.406298	1.611841	1.162985
H	-1.137062	1.082957	1.338442
Cl	3.341504	0.0	0.0
