17

C	-0.371629	-0.027781	-1.495124
C	0.0	0.0	0.0
Br	-0.011266	1.904689	-2.203305
H	1.104801	0.0	0.0
N	0.470806	-0.9585	-2.110448
H	0.363264	-0.990412	-3.115198
H	1.446993	-0.824934	-1.846364
C	-1.839064	-0.25296	-1.783198
H	-2.104914	-1.264267	-1.462671
H	-2.436382	0.473161	-1.232305
H	-2.042759	-0.151055	-2.852041
C	-0.453612	-1.264392	0.590303
N	-0.84178	-2.245998	1.106356
N	-0.623351	1.102168	0.736104
H	-0.12878	1.945663	0.464929
H	-0.42	0.956915	1.719821
Cl	3.350496	0.0	0.0
