17

C	-0.406371	-0.030225	-1.493397
C	0.0	0.0	0.0
Br	0.037229	1.760535	-2.235459
H	1.10426	0.0	0.0
N	0.381641	-0.981803	-2.234157
H	1.362258	-0.877555	-1.971746
H	0.085571	-1.918051	-1.974489
C	-1.88866	-0.25301	-1.712958
H	-2.158455	-1.256972	-1.368754
H	-2.121437	-0.168894	-2.774982
H	-2.463186	0.476202	-1.142068
C	-0.432948	-1.277305	0.578843
N	-0.797923	-2.299239	1.029997
N	-0.615743	1.093678	0.760352
H	-0.352935	0.967577	1.733132
H	-0.151554	1.943456	0.45536
Cl	3.352198	0.0	0.0
