17

C	-0.370847	0.114758	-1.49095
C	0.0	0.0	0.0
Br	-0.005158	2.108335	-2.010405
H	1.098924	0.0	0.0
N	0.471443	-0.751658	-2.189825
H	1.446871	-0.644733	-1.913859
H	0.363836	-0.69299	-3.192399
C	-1.83755	-0.079848	-1.802252
H	-2.434739	0.590192	-1.184117
H	-2.040588	0.127506	-2.855311
H	-2.103765	-1.117819	-1.582651
C	-0.459849	-1.31302	0.466321
N	-0.858781	-2.338471	0.878741
N	-0.61643	1.03137	0.838049
H	-0.444785	0.774067	1.80376
H	-0.093081	1.885699	0.673112
Cl	3.349133	0.0	0.0
