17

C	-0.418972	-0.26082	-1.457209
C	0.0	0.0	0.0
Br	-0.05241	1.516845	-2.481036
H	1.095515	0.0	0.0
N	0.378354	-1.30154	-1.939732
H	1.368865	-1.146873	-1.757036
H	0.210056	-1.510358	-2.914856
C	-1.901426	-0.497644	-1.650052
H	-2.151731	-0.551407	-2.711854
H	-2.462837	0.315009	-1.189964
H	-2.165753	-1.443625	-1.169884
C	-0.448981	-1.147508	0.796972
N	-0.833667	-2.027594	1.472816
N	-0.602912	1.211985	0.566552
H	-0.107471	1.997057	0.154943
H	-0.371585	1.220816	1.554979
Cl	3.348489	0.0	0.0
