17

C	-0.523266	0.076784	-1.454743
C	0.0	0.0	0.0
Br	-0.152287	-1.648595	-2.323652
H	1.098398	0.0	0.0
N	-1.951579	0.305878	-1.558719
H	-2.129648	1.166353	-1.045778
H	-2.447091	-0.446675	-1.088513
C	0.239034	1.157491	-2.19526
H	-0.089793	1.18978	-3.234889
H	1.311767	0.966042	-2.133461
H	0.026927	2.118024	-1.718061
C	-0.536202	-1.162339	0.707439
N	-1.062058	-2.022594	1.312279
N	-0.409684	1.247914	0.680117
H	0.416491	1.638382	1.119054
H	-1.087017	1.057392	1.407463
Cl	3.323188	0.0	0.0
