17

C	-0.324213	-0.072352	-1.521864
C	0.0	0.0	0.0
Br	-0.052617	1.877822	-2.249998
H	1.098921	0.0	0.0
N	0.574702	-0.968932	-2.088968
H	1.53805	-0.807601	-1.793428
H	0.494503	-1.058277	-3.092079
C	-1.764133	-0.381873	-1.877811
H	-2.005692	-1.386165	-1.520431
H	-2.444977	0.339613	-1.423339
H	-1.908015	-0.340328	-2.959862
C	-0.476659	-1.258667	0.590936
N	-0.932375	-2.235816	1.057368
N	-0.490374	1.108821	0.788647
H	0.106687	1.904813	0.607116
H	-1.43535	1.354183	0.518217
Cl	3.330576	0.0	0.0
