17

C	-0.495631	0.011779	-1.456799
C	0.0	0.0	0.0
Br	-0.231794	-1.776315	-2.242088
H	1.097381	0.0	0.0
N	-1.920467	0.27472	-1.460804
H	-2.031522	1.181607	-1.014071
H	-2.242099	0.351303	-2.419987
C	0.350378	0.986497	-2.263306
H	0.03049	0.989325	-3.309042
H	0.205628	1.985306	-1.841335
H	1.409172	0.72813	-2.195345
C	-0.52063	-1.131635	0.767987
N	-0.970103	-1.967229	1.461342
N	-0.404552	1.281359	0.619617
H	-1.105317	1.124066	1.332987
H	0.415789	1.675271	1.066307
Cl	3.33861	0.0	0.0
