17

C	-0.504066	0.063119	-1.447968
C	0.0	0.0	0.0
Br	0.138237	-1.637015	-2.359414
H	1.093074	0.0	0.0
N	-1.926343	0.141013	-1.474368
H	-2.338744	-0.704593	-1.093388
H	-2.256173	0.256149	-2.425454
C	0.147102	1.21492	-2.185135
H	-0.13358	1.197316	-3.241939
H	-0.18611	2.145145	-1.722577
H	1.232068	1.135246	-2.094065
C	-0.530767	-1.192692	0.682981
N	-1.042102	-2.062855	1.287054
N	-0.397529	1.23721	0.669138
H	-1.368809	1.192321	0.956135
H	0.197088	1.367859	1.481301
Cl	3.345001	0.0	0.0
