17

C	-0.297262	0.036007	-1.508264
C	0.0	0.0	0.0
Br	-2.287949	0.145937	-1.740302
H	1.099278	0.0	0.0
N	0.272751	1.205651	-2.115365
H	0.093038	1.980024	-1.480039
H	1.283289	1.062882	-2.115451
C	0.197371	-1.216349	-2.197961
H	1.269969	-1.308229	-1.992
H	-0.31199	-2.105823	-1.825891
H	0.034286	-1.126344	-3.273315
C	-0.497653	-1.21549	0.65122
N	-0.92574	-2.165185	1.196949
N	-0.423806	1.23198	0.651194
H	0.191514	1.413023	1.43505
H	-1.37591	1.153801	0.985616
Cl	3.300785	0.0	0.0
