17

C	-0.482959	-0.003686	-1.442537
C	0.0	0.0	0.0
F	0.382188	0.617514	-2.235627
H	1.089929	0.0	0.0
N	-0.600042	-1.429004	-1.992847
O	-1.61224	-1.715269	-2.616709
O	0.398342	-2.10947	-1.820062
N	-1.849802	0.644293	-1.641142
O	-2.642371	0.513174	-0.718357
O	-2.028603	1.208964	-2.708945
N	-0.467487	-1.155897	0.815145
O	-1.433179	-1.805018	0.41121
O	0.160869	-1.350897	1.848062
N	-0.423161	1.276367	0.661628
O	-0.297443	2.269406	-0.048006
O	-0.800719	1.246472	1.822858
Br	3.247352	0.0	0.0
