17

C	-0.510788	0.001435	-1.427361
C	0.0	0.0	0.0
F	-0.064301	1.089863	-2.048626
H	1.090654	0.0	0.0
N	-0.007355	-1.203891	-2.245156
O	-0.823851	-2.072884	-2.518736
O	1.163514	-1.129617	-2.571504
N	-2.025387	-0.044912	-1.551659
O	-2.507005	0.540213	-2.508695
O	-2.607635	-0.705953	-0.704457
N	-0.420067	-1.207599	0.77586
O	-0.981281	-1.052444	1.850079
O	-0.105193	-2.268192	0.25053
N	-0.467661	1.227042	0.707467
O	-1.432657	1.829678	0.2348
O	0.157205	1.528692	1.714803
Br	3.254885	0.0	0.0
