17

C	-0.472753	-0.005052	-1.440334
C	0.0	0.0	0.0
F	-0.142785	1.127139	-2.056495
H	1.08944	0.0	0.0
N	0.151957	-1.159154	-2.211552
O	0.289041	-0.971378	-3.410395
O	0.416646	-2.163422	-1.566628
N	-1.990297	-0.134729	-1.60762
O	-2.612062	0.775303	-1.076399
O	-2.430532	-1.059453	-2.271873
N	-0.506524	-1.151357	0.794
O	0.161946	-1.452546	1.772644
O	-1.562987	-1.670988	0.439543
N	-0.448565	1.249758	0.715739
O	-1.245214	1.119064	1.639445
O	0.053405	2.29075	0.318403
Br	3.253947	0.0	0.0
