17

C	-0.446368	-0.00685	-1.449648
C	0.0	0.0	0.0
F	-0.108724	1.124233	-2.062774
H	1.089461	0.0	0.0
N	0.20032	-1.162587	-2.204928
O	0.401486	-0.963586	-3.392944
O	0.422441	-2.175312	-1.558022
N	-1.957888	-0.143691	-1.648002
O	-2.598137	0.742905	-1.099953
O	-2.376718	-1.047508	-2.354413
N	-0.515454	-1.155408	0.781563
O	-1.572887	-1.665976	0.416397
O	0.143802	-1.467227	1.763051
N	-0.457694	1.247422	0.711865
O	-1.236532	1.110329	1.648535
O	0.021363	2.293799	0.302054
Br	3.24879	0.0	0.0
