17

C	-0.470997	-0.004729	-1.426452
C	0.0	0.0	0.0
F	-0.050656	1.112295	-2.02961
H	1.090681	0.0	0.0
N	0.139451	-1.176562	-2.216261
O	-0.623115	-1.977755	-2.737585
O	1.356455	-1.148691	-2.270793
N	-1.972768	-0.121501	-1.619354
O	-2.46864	0.542318	-2.516782
O	-2.529007	-0.882681	-0.84229
N	-0.445517	-1.196161	0.766272
O	-0.077454	-2.263977	0.284769
O	-1.036217	-1.023724	1.826496
N	-0.47179	1.215904	0.71182
O	-1.534017	1.72218	0.345141
O	0.273087	1.63204	1.592277
Br	2.743979	0.0	0.0
