16

C	-0.436913	-0.003008	-1.452219
C	0.0	0.0	0.0
Br	-0.116416	-1.665375	-2.408859
H	1.088097	0.0	0.0
H	-0.352498	0.932228	0.443161
N	-1.94392	0.21806	-1.543069
O	-2.3718	0.895298	-2.47154
O	-2.629643	-0.30918	-0.673688
C	0.305139	1.111795	-2.161116
H	0.051581	2.070452	-1.700454
H	1.37531	0.933074	-2.033312
H	0.04233	1.143781	-3.216469
N	-0.498782	-1.06608	0.90267
O	-0.303103	-2.236084	0.593327
O	-1.024884	-0.688036	1.948972
Cl	3.292797	0.0	0.0
