16

C	-0.466171	0.011611	-1.436959
C	0.0	0.0	0.0
Br	-0.025083	-1.654907	-2.313703
H	1.088345	0.0	0.0
H	-0.354143	0.906825	0.495279
N	-1.97427	0.27076	-1.529724
O	-2.658587	-0.352814	-2.325603
O	-2.36834	1.191585	-0.817739
C	0.224521	1.155739	-2.161888
H	-0.072328	1.17219	-3.212232
H	1.303699	1.015926	-2.075547
H	-0.053068	2.099776	-1.686615
N	-0.557811	-1.12604	0.791617
O	0.0894	-1.513287	1.75729
O	-1.667296	-1.55084	0.460691
Cl	3.336398	0.0	0.0
