14

C	0.0	0.0	0.0
C	-0.499648	-0.06028	-1.414866
F	1.358384	0.0	0.0
H	-1.580701	-0.216609	-1.376319
H	-0.382961	0.842231	0.572847
H	-0.022816	-0.9235	-1.887303
N	-0.379515	-1.228705	0.789955
O	-0.16794	-2.316318	0.256501
O	-0.787421	-1.052705	1.933741
C	-0.160719	1.234254	-2.149252
H	-0.716179	2.070067	-1.718862
H	-0.443475	1.159766	-3.201808
H	0.907905	1.459103	-2.101426
Cl	-3.657894	0.0	0.0
