14

C	0.0	0.0	0.0
C	-0.528774	-0.059268	-1.401134
F	1.358284	0.0	0.0
H	-1.602865	-0.24879	-1.332165
H	-0.373637	0.841663	0.581319
H	-0.04149	-0.90133	-1.898251
N	-0.368489	-1.227823	0.7982
O	-0.66425	-1.055219	1.976574
O	-0.247566	-2.314173	0.23691
C	-0.261399	1.256245	-2.12553
H	0.796466	1.533294	-2.08783
H	-0.853329	2.058831	-1.678704
H	-0.552891	1.179057	-3.175874
Cl	-3.670131	0.0	0.0
