15
Coordinates from ORCA-job run
  C   -0.61623229126326      0.51800836117269     -0.48638675694943
  C   0.62445393871595      0.14123518748981      0.31376147061403
  H   -0.60298146967552      1.60210862563769     -0.62446939666124
  H   0.52847781127912      0.55730383015242      1.32331638067952
  H   -0.52753638894065      0.07335129844092     -1.48846936837276
  C   -1.91580991105837      0.06805565731402      0.16922089340704
  H   -2.02389700241894      0.52462691840591      1.15695804208035
  H   -2.78088281977140      0.36229201346159     -0.43026742218609
  H   -1.92984627497218     -1.01343982289883      0.30077240722740
  N   1.78550974528335      0.79257141042767     -0.29224046119749
  H   2.62617930182651      0.55137918222448      0.22096407237848
  H   1.90332341019004      0.45471540579599     -1.24207502722934
  N   0.67002695424466     -1.31211362066890      0.47054826431219
  H   1.45954681240390     -1.57672427446902      1.04865782980095
  H   0.80066818415681     -1.74337017248643     -0.43929092790362
