15
Coordinates from ORCA-job run
  C   -0.77951923298929     -0.12763664444148     -0.55308600772734
  C   0.55856174729318     -0.46976341857149      0.08692706237406
  H   -1.24115348975072     -1.07168835854923     -0.85426711542522
  H   0.36943040245202     -1.13648579797736      0.94466871385323
  H   -0.57689738727418      0.44277485894241     -1.46667100028855
  C   -1.71817088134763      0.66015755269570      0.35581663822959
  H   -1.34822089644116      1.67195765050375      0.53662745945693
  H   -1.84439373767997      0.16073601016578      1.32151839196404
  H   -2.70825976946271      0.75653675449775     -0.09517723692563
  N   1.24450508643187      0.76766676540503      0.48017906011232
  H   0.71019928540821      1.25732288522049      1.18984787816189
  H   2.13684605152648      0.52968715114565      0.90015313292439
  N   1.35149407996559     -1.23445407645926     -0.85781216817674
  H   1.66499471161928     -0.60079044170149     -1.58613036471624
  H   2.17858403024903     -1.60502089087627     -0.40359444381675
