11

C	0.0	0.0	0.0
C	-0.453043	-0.333355	-1.453771
Br	1.931998	0.0	0.0
H	0.453119	-0.466422	-2.05948
H	-0.352618	0.978475	0.305154
H	-0.354181	-0.744939	0.702975
C	-1.161821	0.770896	-2.110244
N	-1.501477	1.678897	-2.773684
C	-1.14757	-1.620404	-1.556253
N	-1.470179	-2.734963	-1.739241
Cl	-3.021067	0.0	0.0
