11

C	0.0	0.0	0.0
C	-0.45738	-0.402841	-1.434739
Br	1.929613	0.0	0.0
H	0.447361	-0.569545	-2.032918
H	-0.352316	0.991807	0.257814
H	-0.350614	-0.711698	0.738686
C	-1.161508	0.671545	-2.139735
N	-1.501676	1.545695	-2.846913
C	-1.157509	-1.691029	-1.478131
N	-1.489932	-2.809076	-1.617528
Cl	-3.033783	0.0	0.0
