11

C	0.0	0.0	0.0
C	-0.446939	0.409158	-1.437367
Br	1.936071	0.0	0.0
H	0.462152	0.579356	-2.02802
H	-0.341875	-0.997804	0.246293
H	-0.363943	0.701578	0.74117
C	-1.147523	1.696944	-1.480572
N	-1.431469	2.828477	-1.627386
C	-1.139721	-0.668328	-2.151713
N	-1.451614	-1.554369	-2.855402
Cl	-3.009243	0.0	0.0
