11

C	0.0	0.0	0.0
C	-0.45259	-0.25568	-1.469345
Br	1.931992	0.0	0.0
H	0.453782	-0.366901	-2.078162
H	-0.353539	0.95975	0.359371
H	-0.352252	-0.784606	0.660588
C	-1.150465	0.885305	-2.070931
N	-1.487815	1.825678	-2.689578
C	-1.156244	-1.530302	-1.645394
N	-1.482722	-2.628879	-1.904596
Cl	-3.017104	0.0	0.0
