17

C	-0.436197	0.004213	-1.476345
C	0.0	0.0	0.0
Br	0.142456	-1.845718	-2.167439
H	1.091551	0.0	0.0
C	-1.933095	0.051503	-1.705246
H	-2.42694	-0.775392	-1.194866
H	-2.144966	-0.026405	-2.774027
H	-2.32839	0.996593	-1.327871
N	0.248192	1.053969	-2.104632
H	0.094238	1.068139	-3.103416
H	1.244109	1.038293	-1.890269
C	-0.560994	-1.092804	0.775675
N	-1.014231	-1.964914	1.418987
N	-0.454947	1.305646	0.616895
O	0.330371	2.241797	0.578847
O	-1.595309	1.340287	1.083941
Br	3.375329	0.0	0.0
