17

C	-0.299742	-0.00558	-1.52135
C	0.0	0.0	0.0
Br	-2.261906	-0.017133	-1.789652
H	1.094839	0.0	0.0
C	0.290198	1.196219	-2.232412
H	1.359897	1.231753	-2.004267
H	0.1394	1.055319	-3.302883
H	-0.166499	2.129324	-1.913542
N	0.227446	-1.204547	-2.123123
H	-0.120243	-2.028805	-1.643886
H	1.241931	-1.177486	-2.011287
C	-0.496677	-1.201202	0.652445
N	-0.847101	-2.215683	1.130615
N	-0.486392	1.214028	0.724132
O	0.071358	2.272644	0.445018
O	-1.406281	1.078281	1.531959
Br	3.368068	0.0	0.0
