17

C	-0.487625	0.00231	-1.449012
C	0.0	0.0	0.0
Br	0.443989	-1.526512	-2.292832
H	1.091198	0.0	0.0
C	-1.975364	-0.257147	-1.6449
H	-2.279444	-1.19786	-1.182449
H	-2.208933	-0.299082	-2.711597
H	-2.535371	0.560599	-1.186522
N	0.027666	1.205463	-2.079994
H	-0.616633	1.967168	-1.897871
H	0.107688	1.072939	-3.08038
C	-0.51254	-1.099477	0.786135
N	-0.942452	-2.000132	1.416352
N	-0.380265	1.255512	0.744898
O	0.297251	1.50193	1.736732
O	-1.270995	1.984265	0.29117
Br	2.743911	0.0	0.0
