12

C	0.0	0.0	0.0
C	-0.467121	-0.246408	-1.464121
Cl	1.78613	0.0	0.0
H	-0.220446	-1.289125	-1.693243
H	-0.348764	-0.780699	0.676714
H	0.177941	0.379064	-2.09014
C	-0.433858	1.315507	0.47115
N	-0.662021	2.425086	0.774587
N	-1.832919	0.023197	-1.789003
H	-2.062228	1.001737	-1.665818
H	-2.524956	-0.475364	-1.233121
Br	-4.665454	0.0	0.0
