12

C	0.0	0.0	0.0
C	-0.470823	-0.060032	-1.480901
Cl	1.786314	0.0	0.0
H	0.12224	0.689029	-2.014992
H	-0.343798	-0.867324	0.565574
H	-0.163704	-1.041241	-1.859465
C	-0.444734	1.234037	0.643144
N	-0.695134	2.294579	1.080966
N	-1.857719	0.162124	-1.750099
H	-2.163867	1.084773	-1.467192
H	-2.496091	-0.468697	-1.27441
Br	-4.705936	0.0	0.0
