15

C	-0.471325	-0.034375	-1.452936
C	0.0	0.0	0.0
Br	-0.138238	1.843534	-2.194493
H	1.087048	0.0	0.0
H	-0.365331	-0.919421	0.469176
N	0.343921	-0.896678	-2.259657
H	1.327052	-0.673965	-2.118545
H	0.182262	-1.849245	-1.945591
N	-1.8214	-0.42194	-1.58619
H	-2.408557	0.158454	-1.000555
H	-2.102095	-0.354847	-2.556547
N	-0.571276	1.109833	0.801807
O	-1.801138	1.240795	0.767117
O	0.182635	1.804239	1.470982
Cl	3.424869	0.0	0.0
