17

C	-0.434684	-0.016085	-1.46917
C	0.0	0.0	0.0
Cl	-2.246078	0.077617	-1.571031
H	1.101636	0.0	0.0
C	0.160297	1.162193	-2.222174
H	1.249276	1.11708	-2.116116
H	-0.216917	2.080892	-1.770882
H	-0.1158	1.131536	-3.277937
C	-0.056927	-1.280378	-2.105179
N	0.210691	-2.256271	-2.699855
N	-0.475187	-1.188259	0.660673
H	0.062606	-1.348008	1.501714
H	-1.459026	-1.104522	0.888649
N	-0.427056	1.278468	0.605852
H	-0.810948	1.080437	1.519995
H	0.405672	1.836031	0.758428
Cl	3.387226	0.0	0.0
