17

C	-0.403749	0.011019	-1.484381
C	0.0	0.0	0.0
Cl	-2.185605	0.311077	-1.660546
H	1.102674	0.0	0.0
C	0.361704	1.099619	-2.220064
H	0.113447	2.053685	-1.755903
H	0.094981	1.113025	-3.278569
H	1.43283	0.911061	-2.095271
C	-0.154672	-1.296948	-2.095177
N	0.046603	-2.347202	-2.583048
N	-0.570579	-1.163405	0.686645
H	-0.167239	-1.157477	1.619023
H	-0.215169	-2.009013	0.247847
N	-0.421019	1.237199	0.616833
H	-1.336997	1.104485	1.027174
H	0.242214	1.487437	1.337441
Cl	3.433087	0.0	0.0
