17

C	-0.473938	-0.048238	-1.465171
C	0.0	0.0	0.0
Cl	0.163128	1.385067	-2.335383
H	1.099499	0.0	0.0
C	0.046379	-1.29617	-2.168338
H	-0.184997	-1.260189	-3.233952
H	1.130509	-1.333454	-2.032516
H	-0.4208	-2.183311	-1.736246
C	-1.937055	0.021903	-1.5137
N	-3.110345	0.071691	-1.548724
N	-0.502967	-1.23334	0.649406
H	0.156878	-1.980377	0.447296
H	-0.41858	-1.074477	1.648553
N	-0.497664	1.182949	0.649668
H	-1.415513	1.011796	1.044338
H	0.145485	1.476432	1.371796
Cl	3.437351	0.0	0.0
