17

C	-0.385845	-0.004766	-1.457665
C	0.0	0.0	0.0
F	0.052371	1.185885	-1.993335
H	1.090041	0.0	0.0
N	0.119358	-1.120931	-2.133292
H	0.137277	-0.923183	-3.125267
H	1.053454	-1.326382	-1.788237
N	-1.907982	0.00253	-1.684971
O	-2.573595	-0.634903	-0.880398
O	-2.322543	0.570663	-2.687454
N	-0.370191	-1.197297	0.765762
O	-1.085645	-1.082658	1.76213
O	0.155047	-2.241427	0.376012
N	-0.472178	1.199027	0.698092
O	-1.347342	1.89694	0.17617
O	0.096226	1.44614	1.760925
H	2.453175	0.0	0.0
