17

C	-0.637196	0.021501	-1.378347
C	0.0	0.0	0.0
F	-1.977135	-0.325357	-1.260881
H	1.087267	0.0	0.0
N	-0.43033	1.213737	-2.085312
H	-0.765415	1.986404	-1.523077
H	-0.907341	1.172704	-2.977534
N	-0.031176	-1.07891	-2.281966
O	-0.801357	-1.907958	-2.748643
O	1.163299	-0.976983	-2.510574
N	-0.333466	-1.271025	0.673135
O	-0.886899	-1.285967	1.769407
O	0.020962	-2.270869	0.040585
N	-0.329182	1.120947	0.835151
O	-1.022929	2.073714	0.406556
O	0.263017	1.133959	1.927551
H	2.314032	0.0	0.0
