17

C	-0.492212	0.039989	-1.435108
C	0.0	0.0	0.0
F	-0.316052	1.271672	-2.002155
H	1.088864	0.0	0.0
N	0.116042	-0.919421	-2.244971
H	-0.414318	-1.01409	-3.10023
H	0.125633	-1.80722	-1.763134
N	-2.065461	-0.059222	-1.472065
O	-2.683087	0.487317	-0.571277
O	-2.558696	-0.598256	-2.458401
N	-0.382097	-1.190349	0.682049
O	-0.99631	-2.084075	0.044893
O	0.093273	-1.343527	1.819959
N	-0.302636	1.216981	0.786677
O	0.238299	2.239948	0.365195
O	-1.005113	1.141586	1.790701
H	2.320445	0.0	0.0
