17

C	-0.282286	-0.017397	-1.491048
C	0.0	0.0	0.0
F	-0.161951	1.274196	-2.00545
H	1.090106	0.0	0.0
N	0.580936	-0.942242	-2.043097
H	0.543235	-0.96631	-3.050647
H	1.525895	-0.77825	-1.667791
N	-1.740491	-0.315141	-1.857978
O	-1.948172	-0.999316	-2.854116
O	-2.582703	0.24986	-1.171924
N	-0.427391	-1.235989	0.673151
O	-1.199253	-2.006539	0.097412
O	0.076686	-1.424012	1.78043
N	-0.489658	1.165222	0.748171
O	-1.336933	0.995882	1.626785
O	0.035478	2.238646	0.454716
H	2.499487	0.0	0.0
