17

C	-0.369174	0.15192	-1.462095
C	0.0	0.0	0.0
F	-1.647844	0.591617	-1.666285
H	1.08829	0.0	0.0
N	0.562891	1.001991	-2.060819
H	0.570788	0.916742	-3.069355
H	1.492928	0.861092	-1.640918
N	-0.325395	-1.245921	-2.138984
O	0.560712	-1.99885	-1.756183
O	-1.07754	-1.42781	-3.091302
N	-0.574519	-1.173869	0.664868
O	-1.522257	-1.75917	0.137696
O	-0.048722	-1.479184	1.734732
N	-0.426933	1.19541	0.756055
O	-1.348263	1.081319	1.568076
O	0.198362	2.227145	0.519184
H	2.509256	0.0	0.0
