17

C	-0.612528	-0.000939	-1.394093
C	0.0	0.0	0.0
F	-0.046926	-1.074036	-2.081108
H	1.085212	0.0	0.0
N	-2.008226	0.005786	-1.390486
H	-2.323497	-0.85353	-0.959904
H	-2.378294	0.135362	-2.321875
N	-0.127029	1.181627	-2.250459
O	1.075854	1.384475	-2.259305
O	-0.966079	1.750814	-2.942096
N	-0.314092	-1.227088	0.725311
O	-1.117351	-2.054572	0.24848
O	0.342526	-1.409959	1.75562
N	-0.41195	1.172808	0.752027
O	-0.474307	2.220803	0.089706
O	-0.574772	1.105933	1.973386
H	2.332124	0.0	0.0
