17

C	-0.620985	-0.0208	-1.389785
C	0.0	0.0	0.0
F	-0.158569	-1.162849	-2.034374
H	1.087572	0.0	0.0
N	-2.012237	0.108381	-1.368678
H	-2.391997	0.220922	-2.298711
H	-2.398216	-0.693213	-0.886508
N	-0.048617	1.086267	-2.297405
O	1.165095	1.095708	-2.421027
O	-0.849643	1.79907	-2.894961
N	-0.370837	-1.167335	0.782807
O	0.265888	-1.317273	1.831772
O	-1.208661	-1.981194	0.344878
N	-0.372605	1.227269	0.694925
O	-0.762046	1.20146	1.864108
O	-0.186634	2.255349	0.03082
H	2.353376	0.0	0.0
