17

C	-0.357592	0.029769	-1.488851
C	0.0	0.0	0.0
F	-1.579329	0.573765	-1.714983
H	1.086852	0.0	0.0
N	0.621139	0.685615	-2.282796
H	1.534935	0.44438	-1.873347
H	0.500565	1.678263	-2.111638
N	-0.402187	-1.40945	-2.009433
O	-1.31779	-1.721884	-2.75289
O	0.556371	-2.100296	-1.68548
N	-0.552497	-1.128495	0.761432
O	0.053778	-1.447023	1.781972
O	-1.574178	-1.673312	0.330244
N	-0.398364	1.242949	0.642799
O	-0.967724	1.209995	1.738466
O	-0.050491	2.27699	0.056909
H	2.457365	0.0	0.0
