17

C	-0.542382	-0.020131	-1.414841
C	0.0	0.0	0.0
F	-1.906294	0.247032	-1.420239
H	1.086691	0.0	0.0
N	0.17002	0.803884	-2.291062
H	0.445736	1.660826	-1.830404
H	-0.37236	0.965572	-3.129328
N	-0.420965	-1.424167	-2.020442
O	-1.147494	-1.646184	-2.983418
O	0.457214	-2.152465	-1.58445
N	-0.481948	-1.124505	0.812465
O	-1.432434	-1.803113	0.409252
O	0.14507	-1.321817	1.853863
N	-0.36698	1.241471	0.652967
O	0.047712	2.269963	0.084665
O	-0.960771	1.233862	1.738579
H	2.373797	0.0	0.0
