16

C	-0.283382	0.049644	-1.505549
C	0.0	0.0	0.0
Br	-2.218521	0.37198	-1.88846
H	1.099937	0.0	0.0
N	0.485887	1.119653	-2.070107
H	1.45493	1.028257	-1.749792
H	0.455952	1.094558	-3.081048
C	-0.023235	-1.26821	-2.107814
N	0.223532	-2.308311	-2.596703
C	-0.526371	-1.22868	0.729605
H	-0.225768	-1.176179	1.778693
H	-0.091287	-2.132918	0.30094
H	-1.617506	-1.285728	0.676016
C	-0.457896	1.233667	0.627704
N	-0.824216	2.189025	1.204958
Br	3.425657	0.0	0.0
