16

C	-0.299013	0.001637	-1.510055
C	0.0	0.0	0.0
Br	-2.263846	0.132618	-1.812662
H	1.099326	0.0	0.0
N	0.336555	1.073972	-2.237455
H	1.343937	0.977902	-2.080091
H	0.044937	1.955192	-1.823476
C	0.101671	-1.280308	-2.100694
N	0.412226	-2.310029	-2.574165
C	-0.502323	-1.203907	0.787735
H	-0.125926	-2.122156	0.332424
H	-1.593535	-1.236769	0.827342
H	-0.106007	-1.150812	1.804014
C	-0.45176	1.259409	0.578009
N	-0.817916	2.275426	1.041896
Br	3.402583	0.0	0.0
