12
Coordinates from ORCA-job run
  C   -0.94483209432840     -0.32931993349125      0.10240034774706
  C   0.33044542039549      0.51317089654059      0.09547660672604
  Br  -1.40127615786216     -0.96878891974288     -1.69139492623607
  H   0.44427790287372      0.91611166010932      1.10835163648560
  H   -0.80722779647150     -1.23288205741036      0.70124364024278
  H   0.18175628633297      1.36437756369392     -0.57439095526982
  C   -2.08069249098733      0.41725812732193      0.62900932590494
  N   -2.98116981161578      1.01810525825637      1.08505220511795
  C   1.57325856391721     -0.27714507505977     -0.29257634984097
  H   1.50732293030785     -0.64752258541640     -1.31599272316708
  H   1.71901072855270     -1.13215029317169      0.37286810722881
  H   2.45912651888523      0.35678535837023     -0.22004691493925
