12
Coordinates from ORCA-job run
  C   -1.00435834744828     -0.43276725107516      0.16441562318810
  C   0.33757485493557     -0.44613001053138     -0.56454919969733
  Br  -2.34347473112081     -1.46299984670615     -0.82121030844375
  H   0.62747423587381     -1.49085000818798     -0.70520191010913
  H   -0.92043346448525     -0.92590614093666      1.13557648014393
  H   0.19923746409327     -0.01019329160746     -1.55745822514844
  C   -1.50239546175619      0.92262499248440      0.36516002404057
  N   -1.85884253648385      2.03062893687677      0.52487189004625
  C   1.40728211824676      0.31130372558453      0.21770118886066
  H   1.54114033598698     -0.11120529635564      1.21700445359936
  H   2.36611069387864      0.24907607200076     -0.30082011854131
  H   1.15168483827933      1.36741811845398      0.32451010206109
