12
Coordinates from ORCA-job run
  C   -1.04435573287032     -0.28852658849214      0.22047303638021
  C   0.40419029823681     -0.68086169388886     -0.06225380709023
  Br  -2.24674585947632     -1.80371650504459     -0.07113158527585
  H   0.64318442044562     -1.54153022433923      0.56785891243429
  H   -1.17245717703186     -0.01789670257900      1.27106341143025
  H   0.47994043010189     -1.00804872980517     -1.10242227299382
  C   -1.47819647393372      0.82770438308574     -0.61124951105444
  N   -1.78247962274790      1.73971715410409     -1.28620723861753
  C   1.36152971655187      0.47517289470945      0.21494441976702
  H   1.27580018203858      0.82149326988902      1.24836488473663
  H   2.39322046635986      0.15464989213377      0.05615859348049
  H   1.16736935232549      1.32184285022694     -0.44659884319701
