12
Coordinates from ORCA-job run
  C   -1.07559843744436     -0.42223093550885      0.06074422297962
  C   0.40975983910306     -0.62558108456400      0.36093909510221
  Br  -1.48851589190840     -0.78336920355195     -1.81989042163494
  H   0.52030407072942     -0.54663120559825      1.44897037386827
  H   -1.68033190673165     -1.13848974012185      0.62020692606078
  H   0.66670377461909     -1.65172076957527      0.08350541090424
  C   -1.52090191757108      0.92643129295179      0.39124642622322
  N   -1.87265572246700      2.00535711358233      0.69490068359663
  C   1.33017434937999      0.37058180087342     -0.33097761429134
  H   1.09204462104824      1.39609166547674     -0.04024375239623
  H   1.25221597720825      0.29397099249606     -1.41623691933299
  H   2.36780124403443      0.17559007353983     -0.05316443107946
