14

C	0.0	0.0	0.0
C	-0.534001	0.159844	-1.405587
F	1.416991	0.0	0.0
H	-1.620727	0.04324	-1.320275
H	-0.326216	1.197135	-1.715914
N	-0.502321	1.000358	0.845083
H	-0.454869	1.924098	0.445054
H	-0.130762	0.962056	1.78125
C	-0.321159	-1.337348	0.553126
N	-0.494274	-2.397994	1.02221
N	0.037069	-0.851324	-2.280032
H	-0.573489	-1.007842	-3.068057
H	0.942247	-0.560153	-2.618614
Br	-4.119803	0.0	0.0
