14

C	-0.540622	0.096722	-1.414689
C	0.0	0.0	0.0
F	-0.091265	1.229124	-2.002384
H	1.091855	0.0	0.0
H	-0.318675	-0.95104	0.433902
N	0.006815	-1.090811	-2.205508
O	-0.372585	-2.190547	-1.803723
O	0.722079	-0.873688	-3.168332
N	-1.962822	0.040582	-1.625284
H	-2.373891	0.829275	-1.141708
H	-2.313806	-0.811635	-1.20329
C	-0.541162	1.094423	0.781762
N	-1.000367	1.980745	1.403734
H	2.709253	0.0	0.0
