14

C	-0.533713	-0.0239	-1.409549
C	0.0	0.0	0.0
F	0.038634	0.991696	-2.137753
H	1.090293	0.0	0.0
H	-0.328818	-0.89632	0.527312
N	-0.113839	-1.307191	-2.131667
O	-0.256083	-1.281976	-3.35217
O	0.247061	-2.266479	-1.46728
N	-1.946629	-0.012576	-1.510882
H	-2.216362	0.131478	-2.477248
H	-2.323401	0.728211	-0.936255
C	-0.512249	1.181771	0.670933
N	-0.949905	2.138585	1.197078
H	2.728149	0.0	0.0
