14

C	-0.484335	0.002124	-1.427849
C	0.0	0.0	0.0
F	-0.128252	1.133622	-2.076817
H	1.093905	0.0	0.0
H	-0.303928	-0.92934	0.486206
N	0.252174	-1.149942	-2.159642
O	0.869558	-0.904648	-3.186349
O	0.060892	-2.262741	-1.672714
N	-1.889142	-0.167329	-1.584783
H	-2.131488	-0.220419	-2.568414
H	-2.183428	-1.011783	-1.112776
C	-0.530464	1.140592	0.719544
N	-0.927487	2.057717	1.335693
H	2.702464	0.0	0.0
