14

C	-0.521748	-0.020025	-1.411469
C	0.0	0.0	0.0
F	0.005055	1.07519	-2.069125
H	1.089913	0.0	0.0
H	-0.273554	0.980095	0.409399
N	-0.017309	-1.221996	-2.207246
O	0.465903	-2.163412	-1.597616
O	-0.203421	-1.154263	-3.421513
N	-1.92941	-0.082774	-1.535111
H	-2.365354	0.591579	-0.921916
H	-2.196305	0.0836	-2.497953
C	-0.563147	-1.035355	0.846334
N	-1.001361	-1.837994	1.584328
H	2.720615	0.0	0.0
