14

C	-0.225434	-0.0153	-1.491622
C	0.0	0.0	0.0
F	-0.115746	-1.349929	-1.924714
H	1.094347	0.0	0.0
H	-0.404411	-0.895589	0.468203
N	-1.667503	0.287693	-1.932904
O	-1.82408	0.706477	-3.077361
O	-2.566372	0.018902	-1.141761
N	0.648554	0.861945	-2.10953
H	0.64089	0.775178	-3.115696
H	1.585374	0.742915	-1.696252
C	-0.493671	1.205776	0.634715
N	-0.865456	2.178918	1.177818
H	2.730183	0.0	0.0
