14

C	-0.258213	0.042134	-1.498244
C	0.0	0.0	0.0
F	-0.192469	-1.215122	-2.002915
H	1.093978	0.0	0.0
H	-0.307275	0.951186	0.441053
N	-1.683334	0.544268	-1.78924
O	-2.522213	-0.260041	-2.173418
O	-1.878799	1.740348	-1.569036
N	0.643917	0.88538	-2.204184
H	1.575206	0.69654	-1.804766
H	0.41339	1.849237	-1.993772
C	-0.60906	-1.113436	0.694211
N	-1.092126	-2.008925	1.282356
H	2.720158	0.0	0.0
