14

C	-0.573921	0.013551	-1.392809
C	0.0	0.0	0.0
F	-0.083005	1.080255	-2.085622
H	1.089489	0.0	0.0
H	-0.290629	0.960227	0.439094
N	-0.076685	-1.206945	-2.208782
O	-0.423284	-1.214729	-3.392553
O	0.554983	-2.084156	-1.635876
N	-1.987895	0.0705	-1.446036
H	-2.398957	-0.603993	-0.814887
H	-2.305041	-0.087961	-2.395061
C	-0.568383	-1.067018	0.801037
N	-1.051417	-1.935203	1.428833
H	2.727676	0.0	0.0
