14

C	-0.255675	0.063973	-1.495875
C	0.0	0.0	0.0
F	-0.117056	-1.174124	-2.029987
H	1.094036	0.0	0.0
H	-0.313725	0.942142	0.456932
N	-1.703384	0.494654	-1.779923
O	-1.96463	1.672103	-1.536445
O	-2.496484	-0.345978	-2.180928
N	0.60146	0.964946	-2.181139
H	1.540562	0.795435	-1.801532
H	0.33447	1.9109	-1.935762
C	-0.603193	-1.127578	0.677332
N	-1.081678	-2.031444	1.256315
H	2.715864	0.0	0.0
