12
Coordinates from ORCA-job run
  C   -0.22781743693041      0.14778135530139     -0.01503933983614
  C   0.83560045072762      0.94611039834700      0.19497087641610
  H   0.70060855274484      2.01882132063186      0.28220929185972
  N   -1.54661362675555      0.82202327025220     -0.11139910493475
  O   -1.58941753885748      2.04486577789008     -0.01866622609751
  O   -2.51679103369616      0.08347661909957     -0.27995396811895
  C   -0.25051255359156     -1.33137388757661     -0.16048520205786
  H   0.76032889505033     -1.73128702747828     -0.08048044308875
  H   -0.87998816149653     -1.77842156506449      0.61106131715650
  H   -0.67669558347656     -1.61150393939680     -1.12554236421425
  C   2.15064177732125      0.41226714004093      0.30550961215216
  N   3.24065625896021     -0.02275946204686      0.39781555076373
