12
Coordinates from ORCA-job run
  C   -0.09537731393467     -0.12735898948574     -0.03069118490453
  C   1.22044394000875      0.15220686809250     -0.07245279096837
  H   1.91183911355213     -0.68130900740939     -0.15803884704457
  N   -1.06906389414784      0.96967942442754      0.11794838204057
  O   -0.83239331501020      2.03425487672130     -0.44670337050402
  O   -2.05810115846456      0.71578263541256      0.80461936998184
  C   -0.69629188438440     -1.48881975448281     -0.07372550902739
  H   -1.20386930183102     -1.70762551826948      0.86677397519097
  H   -1.44293519921286     -1.54880354119272     -0.86948465899512
  H   0.07555095522040     -2.23754324598887     -0.25283545778360
  C   1.80758167473562      1.44785445921521      0.01467986599108
  N   2.38161638346864      2.47168179295991      0.09991022602315
