12
Coordinates from ORCA-job run
  C   -0.22279781246959      0.14937349128976      0.04299830636076
  C   0.88267455217509      0.87250222778824      0.30281595870708
  H   0.79294178348234      1.90736155694783      0.61512788290941
  N   -1.51989662378434      0.85408090647959      0.19926262939874
  O   -1.51626612017941      2.00131600519610      0.63497548658247
  O   -2.52065945066506      0.21732584493046     -0.12953413369870
  C   -0.31103757876283     -1.26787034557286     -0.39639570626291
  H   -0.90939767073745     -1.84732226523659      0.30924013095606
  H   -0.80493322968212     -1.33396129707595     -1.36742563077586
  H   0.68674713357509     -1.70104255647697     -0.46692510878639
  C   2.18258322173186      0.30582240473914      0.17855551472441
  N   3.26004179531641     -0.15758597300875      0.07730466988493
