12
Coordinates from ORCA-job run
  C   -0.09177039713140     -0.12401901415789     -0.05073791849880
  C   1.20898161453747      0.21936210663792     -0.08833183620959
  H   1.92748848805766     -0.55279951682250     -0.34853603247441
  N   -1.10004234427753      0.88183168231329      0.32994470748197
  O   -0.93131126792251      2.03989138333296     -0.04231625218042
  O   -2.04595796462625      0.46352055043518      0.99668224535134
  C   -0.63955950855855     -1.48272525187606     -0.31652426422435
  H   -1.09576558100435     -1.88854637589806      0.58740280204033
  H   0.15296035556813     -2.15004826466045     -0.65560687261290
  H   -1.41784528721364     -1.43484807607178     -1.08213913967630
  C   1.74812067313964      1.50391932758729      0.21234811552119
  N   2.28370121943133      2.52246144918010      0.45881444548194
