12
Coordinates from ORCA-job run
  C   -0.22164651202987      0.15164798793120     -0.04377019703979
  C   0.88388211662031      0.91881385933201     -0.08398310190522
  H   0.79877673313193      1.98418565222325     -0.26916572975434
  N   -1.51410416896647      0.85010291588675     -0.25405192767947
  O   -1.49832188332495      2.04956799341260     -0.51317411960015
  O   -2.52440800470093      0.15446244323477     -0.15087031973583
  C   -0.31442264078325     -1.31252242165195      0.19520524092260
  H   -0.81705772853693     -1.80202092956533     -0.64110666996081
  H   -0.90724109176434     -1.51400964346229      1.08934081015415
  H   0.68223960367578     -1.73659421147123      0.31816717938848
  C   2.17934940775163      0.35886884895261      0.10271639194527
  N   3.25295416892710     -0.10050249482239      0.25169244326512
