12
Coordinates from ORCA-job run
  C   -0.22129513948144      0.15836683436157     -0.00807735697553
  C   0.86786168171612      0.89288194396607      0.28652592593430
  H   0.77358061257767      1.95981384692932      0.45816831706205
  N   -1.51092227848585      0.89032715923311     -0.06745341709196
  O   -1.50208959819323      2.10859281014743      0.07942642874517
  O   -2.51157476851800      0.20101483887900     -0.26406881610075
  C   -0.29865341654277     -1.30210300549219     -0.27383769736142
  H   0.69551199897621     -1.74590434797937     -0.22041290682256
  H   -0.72525857063751     -1.48580472407936     -1.26176596369110
  H   -0.95185208956333     -1.78637419936176      0.45423503843955
  C   2.15841586628093      0.29828073026194      0.37292985976217
  N   3.22727570187119     -0.19009188686576      0.44433058810008
