12
Coordinates from ORCA-job run
  C   -0.08198752580176     -0.13679264289030     -0.02816368918998
  C   1.20716947152900      0.24059440467976      0.05498958231429
  H   1.95809284839226     -0.53994821175690      0.13844121315788
  N   -1.13775781166643      0.88907538385144     -0.10948496489973
  O   -2.18505132229318      0.62473135326439      0.48002394029808
  O   -0.90468264556057      1.91001655136908     -0.75097595562198
  C   -0.58055569261667     -1.53930701013521      0.00106854240164
  H   -1.18555107616037     -1.70648159862102      0.89326997807100
  H   0.25587164143684     -2.23841026468210     -0.00703346835025
  H   -1.21660258651230     -1.73390321979011     -0.86599965247181
  C   1.69085107596675      1.58101099975841      0.07493116254401
  N   2.18020362328643      2.65041425495256      0.11893331174686
