12
Coordinates from ORCA-job run
  C   -0.22311881067249      0.12911648111068      0.08581029158718
  C   0.87378781664127      0.86188354176911      0.35379061632881
  H   0.77469392297943      1.83959099883149      0.81273979005355
  N   -1.52533577205535      0.75127664416845      0.42774694616817
  O   -1.52676669450545      1.76922790164565      1.11357085707784
  O   -2.52423837776575      0.18587885225326     -0.01624209647634
  C   -0.29949632964591     -1.21687491951816     -0.54015995428196
  H   -0.83746880967284     -1.16407344071280     -1.48812818584607
  H   -0.84991149846946     -1.90407132522951      0.10569801792418
  H   0.70320883978221     -1.60790140270618     -0.71307632865620
  C   2.17781559219168      0.37629452648943      0.05336359980205
  N   3.25783012119266     -0.02134785810140     -0.19411355368120
