12
Coordinates from ORCA-job run
  C   -0.21610457017657      0.15644446968380      0.05368514247288
  C   0.91478507787066      0.88465169184866      0.11081999467021
  H   0.86775000296364      1.94299697306570      0.34372799419918
  N   -1.48098763759942      0.88512752391760      0.32213856552089
  O   -2.51134387126516      0.21461429897803      0.25962079832978
  O   -1.42493927656913      2.08282723694486      0.58352278268177
  C   -0.36069732649276     -1.29191011163295     -0.24780290870141
  H   -0.84756069239144     -1.80585919920760      0.58295535904460
  H   -0.98963008432515     -1.43529978528462     -1.12834675768474
  H   0.61837937778005     -1.73695529500548     -0.42544902326181
  C   2.18754652500102      0.29375826799996     -0.12882397001607
  N   3.24280247520426     -0.18939607130796     -0.32604797725527
