12
Coordinates from ORCA-job run
  C   -0.22118070729111      0.14792346282133      0.05502673708653
  C   0.89289782851712      0.82731787685096      0.38578472604863
  H   0.81716230504273      1.83336859583372      0.78420897712996
  N   -1.50711643657762      0.86135652308895      0.25289772040746
  O   -2.50778098269321      0.29809486145860     -0.19008522474470
  O   -1.49465083424683      1.94500537689995      0.82883069766879
  C   -0.32773042366153     -1.22488860751928     -0.50495984369877
  H   -0.79716093689650     -1.19686549325554     -1.48990277830436
  H   -0.95626364718390     -1.84800104779088      0.13425003761116
  H   0.66228147397231     -1.67344850289543     -0.58780604889951
  C   2.18480459613654      0.24999927129830      0.22955941356165
  N   3.25573776488199     -0.22186231679067      0.10219558613315
