15
Coordinates from ORCA-job run
  C   -0.44263759284429     -0.09200808719091      0.30717361917774
  C   0.96562455291329     -0.60261939422993      0.02465671631309
  Cl  -0.59842926176153      0.31295501575524      2.02714405291901
  H   1.04872301817303     -0.91429810691136     -1.01542723018348
  H   1.22798812215827     -1.41354409388648      0.69776414770785
  N   -1.40006163138014     -1.26862605157435      0.05079437660838
  O   -2.59329459117842     -1.03000654414818      0.16074483289037
  O   -0.89927665041236     -2.34739745074326     -0.25428370084666
  C   -0.90369489165986      1.06284410918229     -0.55132143699588
  H   -0.28271326857356      1.93793091847380     -0.37140480657668
  H   -0.82748454133768      0.79268262293009     -1.60754649539273
  H   -1.93915474002262      1.29562834908405     -0.30939668271136
  N   1.96456127660160      0.48523021378266      0.23215504582801
  O   2.61317906934115      0.46178393601837      1.27440891855826
  O   2.06767112998310      1.31944456345796     -0.66646135729592
