15
Coordinates from ORCA-job run
  C   -0.38078744421008     -0.09218514705448      0.36745459669781
  C   0.94739402459999     -0.59369164759956     -0.19100701841442
  Cl  -0.19947995597282      0.25795584570223      2.09158070491968
  H   0.86359548430467     -0.77986711626497     -1.25981525502858
  H   1.27316676850903     -1.48696303205348      0.33616988901327
  N   -1.38199104008955     -1.25068508494036      0.22594671454504
  O   -1.09107884733137     -2.12668479545425     -0.58482593187825
  O   -2.41698060714964     -1.17156623012911      0.86803818489282
  C   -1.00187916949554      1.08558836029999     -0.35286983131277
  H   -1.96601925785716      1.31132157867088      0.10307292105556
  H   -0.35265583866158      1.95543404304770     -0.28342730097613
  H   -1.14462168217533      0.83538737828019     -1.40729143862264
  N   2.01573249046283      0.43126002945304     -0.00986328676456
  O   2.88903059689545      0.19293110029110      0.81900830960916
  O   1.94757447817111      1.43176471775107     -0.72217125773602
