18

C	-0.503212	-0.119946	-1.441092
C	0.0	0.0	0.0
Br	0.367189	1.142415	-2.631614
H	1.107569	0.0	0.0
N	-0.20607	-1.539669	-1.95207
O	0.94082	-1.791502	-2.273681
O	-1.151151	-2.325064	-1.908667
C	-1.945777	0.088395	-1.540326
N	-3.100856	0.310693	-1.568004
C	-0.474193	-1.188252	0.836155
H	-0.143889	-1.02649	1.864636
H	-1.564239	-1.294835	0.831833
H	-0.024136	-2.123978	0.500588
C	-0.457538	1.31826	0.618669
H	-0.144916	2.1735	0.017745
H	-1.543762	1.353713	0.754499
H	0.020524	1.416581	1.595858
Br	3.541948	0.0	0.0
