18

C	-0.39852	0.015476	-1.481098
C	0.0	0.0	0.0
Br	0.390781	-1.453262	-2.47244
H	1.096658	0.0	0.0
N	-1.932994	-0.090188	-1.575274
O	-2.436973	-1.204067	-1.567139
O	-2.539165	0.97832	-1.546563
C	-0.013475	1.249883	-2.156772
N	0.289039	2.242846	-2.70912
C	-0.477459	-1.244945	0.736503
H	0.003795	-1.251905	1.717642
H	-1.562548	-1.25228	0.882696
H	-0.186262	-2.160611	0.221203
C	-0.455105	1.273376	0.711653
H	-1.543619	1.335976	0.805726
H	-0.09357	2.17086	0.206548
H	-0.018759	1.266398	1.713278
Br	3.491879	0.0	0.0
