18

C	-0.400604	0.104559	-1.466506
C	0.0	0.0	0.0
Br	-2.349851	0.344575	-1.720356
H	1.102228	0.0	0.0
N	0.248623	1.314504	-2.167561
O	0.97409	1.071268	-3.123288
O	-0.019821	2.417331	-1.715811
C	-0.042965	-1.088131	-2.226653
N	0.194247	-2.097165	-2.782186
C	-0.449232	-1.341421	0.577057
H	-1.539714	-1.430678	0.604375
H	-0.069511	-1.413843	1.598104
H	-0.035641	-2.182689	0.019698
C	-0.461043	1.147856	0.890875
H	-0.060581	2.106053	0.568036
H	-1.552484	1.21475	0.940826
H	-0.080387	0.949858	1.896103
Br	3.442366	0.0	0.0
