18

C	-0.40853	0.109424	-1.472079
C	0.0	0.0	0.0
Br	0.338671	-1.315754	-2.558474
H	1.096826	0.0	0.0
N	-1.944971	0.042094	-1.561449
O	-2.471854	-1.061756	-1.559987
O	-2.529931	1.121899	-1.525866
C	-4.8e-05	1.371325	-2.078986
N	0.325167	2.385354	-2.576389
C	-0.473075	-1.286145	0.667325
H	-1.553547	-1.292876	0.839759
H	-0.205481	-2.169603	0.087572
H	0.033175	-1.359313	1.632693
C	-0.451858	1.228829	0.789623
H	-1.540641	1.290051	0.885336
H	-0.084829	2.154479	0.34209
H	-0.018835	1.157398	1.790056
Br	3.488691	0.0	0.0
