19

C	0.0	0.0	0.0
C	-0.515818	-0.195934	-1.442927
Cl	1.793316	0.0	0.0
H	-1.58737	-0.398596	-1.333446
N	-0.491909	1.289007	0.429619
H	-1.514887	1.216937	0.381042
H	-0.252069	1.40195	1.409919
C	-0.416363	-1.142138	0.924796
H	-1.506127	-1.208711	0.914899
H	0.01605	-2.096623	0.627818
H	-0.076004	-0.904594	1.937091
N	0.066428	-1.441384	-2.040625
O	-0.425998	-2.516954	-1.699466
O	1.000438	-1.328736	-2.836314
C	-0.269171	0.983203	-2.357514
H	-0.614329	0.747491	-3.366723
H	0.789358	1.238975	-2.396088
H	-0.829819	1.836094	-1.980024
Cl	-3.660341	0.0	0.0
