19

C	0.0	0.0	0.0
C	-0.349881	0.129927	-1.492773
Cl	1.861452	0.0	0.0
H	0.095451	-0.719184	-2.012798
N	-0.548313	1.027338	0.77338
H	-0.464955	0.86956	1.766255
H	-0.263227	1.953485	0.494914
C	-0.461117	-1.346599	0.525286
H	-0.111002	-2.158013	-0.11388
H	-0.059028	-1.505087	1.528183
H	-1.552859	-1.345061	0.575493
N	0.33657	1.309732	-2.120097
O	0.238038	2.404721	-1.566008
O	0.912966	1.118909	-3.189216
C	-1.833471	0.259555	-1.770851
H	-1.996188	0.314642	-2.850465
H	-2.252683	1.133552	-1.279212
H	-2.396572	-0.58389	-1.374847
Cl	-4.680356	0.0	0.0
