19

C	0.0	0.0	0.0
C	-0.323121	0.450044	-1.476862
Cl	1.813915	0.0	0.0
H	-0.436897	1.533961	-1.438555
N	-0.511866	1.020496	0.872282
H	-1.525193	1.042397	0.701882
H	-0.397951	0.708368	1.832285
C	-0.4327	-1.412216	0.356867
H	-0.04753	-1.644535	1.354568
H	-0.05457	-2.152057	-0.348486
H	-1.523535	-1.442196	0.370371
N	-1.608037	-0.049388	-2.087554
O	-1.750118	-1.264616	-2.174661
O	-2.302804	0.796407	-2.637668
C	0.681152	0.065124	-2.571656
H	0.913311	-0.998845	-2.52493
H	0.223708	0.279591	-3.540485
H	1.601304	0.637896	-2.495868
Cl	-3.793146	0.0	0.0
