19

C	0.0	0.0	0.0
C	-0.289048	-0.229299	-1.509768
Cl	1.827121	0.0	0.0
H	0.316509	-1.087492	-1.801307
N	-0.49426	1.254919	0.473357
H	-1.468354	1.344372	0.187184
H	-0.481185	1.25025	1.487583
C	-0.47885	-1.205624	0.792256
H	-0.115823	-2.145713	0.369329
H	-1.57339	-1.19122	0.800826
H	-0.116291	-1.127791	1.820981
N	0.277033	0.887145	-2.343206
O	-0.279512	1.979991	-2.286487
O	1.229094	0.616294	-3.078796
C	-1.722763	-0.427231	-1.951863
H	-2.181359	-1.275024	-1.448374
H	-1.719276	-0.615028	-3.030903
H	-2.356126	0.428072	-1.737696
Cl	-4.236284	0.0	0.0
