19

C	0.0	0.0	0.0
C	-0.513039	-0.080355	-1.45375
Cl	1.841738	0.0	0.0
H	-1.576586	-0.33086	-1.341281
N	-0.49379	1.210387	0.543616
H	-0.6657	1.16572	1.534657
H	0.050088	2.020262	0.288392
C	-0.465465	-1.169029	0.845315
H	-0.103295	-2.11459	0.450547
H	-1.560424	-1.156781	0.843733
H	-0.087981	-1.043205	1.864103
N	0.125294	-1.224349	-2.181287
O	1.003175	-0.978257	-3.008832
O	-0.267987	-2.358631	-1.906415
C	-0.351781	1.198131	-2.245899
H	-0.654445	1.033513	-3.280647
H	-1.014893	1.943194	-1.809567
H	0.682253	1.547335	-2.246412
Cl	-3.822772	0.0	0.0
