19

C	0.0	0.0	0.0
C	-0.512952	-0.129127	-1.461065
Cl	1.795562	0.0	0.0
H	-1.566817	-0.409823	-1.353988
N	-0.473538	1.200603	0.63647
H	-1.493886	1.121189	0.683874
H	-0.238376	2.014303	0.080945
C	-0.434445	-1.181682	0.853962
H	-1.525734	-1.225239	0.85258
H	-0.071907	-1.009759	1.868128
H	-0.030962	-2.117686	0.47339
N	0.144905	-1.274584	-2.168119
O	-0.254171	-2.408771	-1.90063
O	1.049902	-1.027964	-2.968244
C	-0.382297	1.129879	-2.290871
H	-0.625306	0.916599	-3.332708
H	0.629201	1.538222	-2.253713
H	-1.103296	1.863198	-1.927986
Cl	-3.661264	0.0	0.0
