19

C	0.0	0.0	0.0
C	-0.258727	-0.119739	-1.564113
Cl	1.816044	0.0	0.0
H	0.56672	0.407505	-2.04535
N	-0.473041	1.18018	0.644388
H	-0.36357	1.976985	0.029352
H	-1.480715	1.049291	0.773047
C	-0.474174	-1.20409	0.791431
H	-1.561087	-1.27387	0.694611
H	-0.219286	-1.025588	1.837346
H	0.00192	-2.12704	0.464576
N	-1.419061	0.681518	-2.1182
O	-2.216212	0.123955	-2.859577
O	-1.3801	1.894412	-1.910199
C	-0.329989	-1.544905	-2.068349
H	-0.364882	-1.559	-3.158042
H	0.556316	-2.091424	-1.741818
H	-1.228871	-2.032745	-1.692869
Cl	-3.64446	0.0	0.0
