16

C	-0.598537	-0.029652	-1.399132
C	0.0	0.0	0.0
F	-0.050608	1.050355	-2.130497
H	1.097846	0.0	0.0
C	-0.238885	-1.250885	-2.1462
N	0.032881	-2.19466	-2.788072
N	-2.016347	0.083577	-1.324636
H	-2.408344	0.237835	-2.245772
H	-2.205333	0.873318	-0.714459
N	-0.437544	-1.170242	0.712606
H	-1.353134	-1.032817	1.120068
H	0.245273	-1.394008	1.42635
N	-0.476739	1.268076	0.614415
H	-0.159705	1.22261	1.57822
H	0.090385	2.000982	0.191712
H	2.898225	0.0	0.0
