16

C	0.0	0.0	0.0
C	-0.571931	0.01493	-1.427985
Cl	1.791548	0.0	0.0
H	-1.664733	-0.030463	-1.262768
C	-0.491681	1.204476	0.789062
H	-0.105705	1.157046	1.808909
H	-0.143362	2.110613	0.296212
H	-1.584752	1.174817	0.800056
C	-0.385686	-1.252085	0.662599
N	-0.611095	-2.265366	1.212923
C	-0.15214	-1.179189	-2.178581
N	0.242124	-2.094299	-2.802174
N	-0.243192	1.258565	-2.104783
H	0.630826	1.172548	-2.607793
H	-0.979592	1.485262	-2.760207
Br	-3.831693	0.0	0.0
