16

C	0.0	0.0	0.0
C	-0.397919	0.236061	-1.51009
Cl	1.791854	0.0	0.0
H	0.288704	-0.396193	-2.084784
C	-0.598656	1.005228	0.960483
H	-0.27519	2.013108	0.695447
H	-0.286934	0.784702	1.983045
H	-1.6907	0.931887	0.896941
C	-0.400166	-1.368939	0.338198
N	-0.654444	-2.493379	0.566761
C	-0.0688	1.631243	-1.853503
N	0.178604	2.740761	-2.147531
N	-1.734037	-0.075172	-1.921065
H	-2.468967	0.349814	-1.350263
H	-1.893189	-1.073767	-1.860298
Br	-4.391844	0.0	0.0
