16

C	-0.484409	-0.012444	-1.43169
C	0.0	0.0	0.0
Br	0.013703	1.729192	-2.173033
H	1.088548	0.0	0.0
H	-0.354721	0.874871	0.540608
C	0.115627	-1.101516	-2.28614
H	-0.249192	-2.068635	-1.941954
H	-0.15461	-0.966791	-3.331627
H	1.199926	-1.051356	-2.164407
N	-2.008821	-0.022049	-1.483609
O	-2.540654	-0.580368	-2.436329
O	-2.597552	0.565436	-0.582061
N	-0.486904	-1.170709	0.781096
O	-1.225632	-1.990943	0.231003
O	-0.130622	-1.223114	1.950175
Cl	3.274358	0.0	0.0
