16

C	-0.58796	-0.021133	-1.404822
C	0.0	0.0	0.0
Br	0.278364	-1.342941	-2.526947
H	1.085456	0.0	0.0
H	-0.375383	0.87791	0.520086
C	-2.092325	-0.218701	-1.446658
H	-2.576163	0.546766	-0.832277
H	-2.443856	-0.146636	-2.475297
H	-2.350748	-1.199411	-1.049256
N	-0.32925	1.352513	-2.046544
O	0.085769	2.24782	-1.322234
O	-0.627996	1.47028	-3.228719
N	-0.524691	-1.161974	0.762025
O	-0.043377	-2.270222	0.546858
O	-1.447854	-0.936224	1.553349
Cl	3.315523	0.0	0.0
