16

C	-0.47321	-0.047163	-1.43692
C	0.0	0.0	0.0
Br	-0.074509	1.713097	-2.195334
H	1.088558	0.0	0.0
H	-0.372187	0.874431	0.527711
C	0.195452	-1.106632	-2.277674
H	-0.07202	-0.99842	-3.327112
H	1.273757	-0.994858	-2.144311
H	-0.11629	-2.089636	-1.927277
N	-1.993726	-0.14269	-1.497756
O	-2.486501	-0.735058	-2.450958
O	-2.619872	0.41552	-0.603353
N	-0.466821	-1.174343	0.789977
O	-0.179514	-1.1692	1.97996
O	-1.117348	-2.057272	0.223643
Cl	3.295512	0.0	0.0
