16

C	-0.48182	0.102634	-1.426367
C	0.0	0.0	0.0
Br	-2.406732	0.443731	-1.497332
H	1.091078	0.0	0.0
H	-0.313618	0.89512	0.538841
C	0.264434	1.227309	-2.119381
H	1.33537	1.022246	-2.038951
H	-0.045824	1.294032	-3.16315
H	0.054045	2.172818	-1.620672
N	-0.176015	-1.156963	-2.232643
O	-0.806502	-1.332254	-3.269652
O	0.762459	-1.830017	-1.830427
N	-0.543724	-1.139519	0.778196
O	-0.37268	-1.084137	1.991929
O	-1.126764	-2.045676	0.185142
Cl	3.293615	0.0	0.0
