16

C	-0.453508	-0.02786	-1.440754
C	0.0	0.0	0.0
Br	-0.029099	1.640215	-2.322408
H	1.088344	0.0	0.0
H	-0.355284	-0.901683	0.502634
C	0.264434	-1.16494	-2.151485
H	-0.015879	-1.189952	-3.205973
H	-0.005302	-2.11117	-1.675984
H	1.340396	-1.008185	-2.049605
N	-1.956751	-0.309443	-1.542799
O	-2.642453	0.292327	-2.35461
O	-2.344863	-1.22488	-0.820326
N	-0.561514	1.134663	0.775698
O	0.081526	1.533477	1.739536
O	-1.669228	1.555791	0.433802
Cl	3.334607	0.0	0.0
