16

C	-0.472606	-0.017214	-1.433696
C	0.0	0.0	0.0
Br	-0.009404	1.630835	-2.33223
H	1.088342	0.0	0.0
H	-0.348013	-0.905516	0.500981
C	0.196656	-1.179661	-2.151474
H	1.278666	-1.056923	-2.070413
H	-0.103764	-1.198692	-3.200802
H	-0.095865	-2.115181	-1.668202
N	-1.984991	-0.256408	-1.512376
O	-2.391862	-1.145111	-0.766883
O	-2.661718	0.347419	-2.329983
N	-0.550827	1.125132	0.799048
O	-1.611439	1.62761	0.420262
O	0.053652	1.432039	1.820031
Cl	3.318454	0.0	0.0
