16

C	-0.701006	-0.020157	-1.345064
C	0.0	0.0	0.0
Br	-0.215155	-1.707384	-2.196485
H	1.0905	0.0	0.0
H	-0.332816	-0.863438	0.575876
C	-2.207789	0.05475	-1.222534
H	-2.544781	-0.744077	-0.55883
H	-2.498787	1.022592	-0.810552
H	-2.6828	-0.060661	-2.193858
N	-0.18571	1.07663	-2.275453
O	1.024282	1.189573	-2.372369
O	-1.035308	1.740314	-2.868908
N	-0.446371	1.189648	0.774464
O	-0.777542	1.019838	1.947987
O	-0.443657	2.273042	0.187715
Cl	3.297958	0.0	0.0
