16

C	-0.459805	-0.016896	-1.43797
C	0.0	0.0	0.0
Br	0.012706	1.631471	-2.331118
H	1.088344	0.0	0.0
H	-0.348134	-0.906932	0.498039
C	0.218965	-1.178782	-2.148476
H	1.299929	-1.055876	-2.051833
H	-0.066379	-1.196927	-3.201963
H	-0.080509	-2.114705	-1.670085
N	-1.970704	-0.255089	-1.535465
O	-2.635025	0.341267	-2.368497
O	-2.38903	-1.137287	-0.788245
N	-0.55663	1.123233	0.796184
O	-1.606731	1.636202	0.404401
O	0.034219	1.418564	1.828055
Cl	3.317647	0.0	0.0
