16

C	-0.473684	-0.038198	-1.437355
C	0.0	0.0	0.0
Br	-0.081585	1.733333	-2.176184
H	1.08856	0.0	0.0
H	-0.366994	0.87323	0.532908
C	0.19091	-1.086171	-2.295659
H	1.268916	-0.983388	-2.160507
H	-0.1258	-2.071965	-1.961037
H	-0.075216	-0.957426	-3.343091
N	-1.992599	-0.139727	-1.496125
O	-2.485658	-0.689821	-2.474842
O	-2.619764	0.371762	-0.573545
N	-0.468694	-1.173206	0.7886
O	-0.251376	-1.13204	1.992416
O	-1.042363	-2.096719	0.208115
Cl	3.27956	0.0	0.0
