16

C	-0.555996	0.086266	-1.402725
C	0.0	0.0	0.0
Br	-2.49351	0.35253	-1.333295
H	1.091395	0.0	0.0
H	-0.322175	0.879827	0.556558
C	0.10345	1.248217	-2.127796
H	-0.242049	1.291393	-3.162933
H	-0.155809	2.184569	-1.62987
H	1.187197	1.102856	-2.086346
N	-0.248876	-1.17107	-2.230874
O	-1.154413	-1.773278	-2.788754
O	0.947184	-1.416991	-2.306675
N	-0.495812	-1.164517	0.771145
O	-0.650577	-2.22628	0.169469
O	-0.688055	-0.994151	1.973535
Cl	3.281934	0.0	0.0
