14

C	0.0	0.0	0.0
C	-0.534125	-0.278259	-1.400544
F	1.387226	0.0	0.0
H	-0.298643	0.578051	-2.039316
H	-1.630534	-0.356185	-1.314725
C	-0.485631	1.338678	0.515124
H	-0.121023	2.123611	-0.152199
H	-1.57843	1.333788	0.534572
H	-0.090577	1.510077	1.518088
C	-0.378788	-1.097854	0.916573
N	-0.574053	-2.005347	1.635016
C	0.042449	-1.48246	-1.989598
N	0.516435	-2.437648	-2.480576
Br	-3.827634	0.0	0.0
