14

C	0.0	0.0	0.0
C	-0.248656	-0.063969	-1.531879
F	1.390405	0.0	0.0
H	0.033266	-1.068674	-1.861036
H	0.514099	0.613123	-1.930926
C	-0.524223	1.231514	0.686685
H	-1.618191	1.196395	0.67185
H	-0.162857	1.252308	1.718069
H	-0.163572	2.118821	0.160098
C	-0.409261	-1.245473	0.671076
N	-0.579318	-2.276351	1.207438
C	-1.492384	0.305465	-2.204442
N	-2.255633	0.626846	-3.038559
Br	-3.806241	0.0	0.0
