14

C	0.0	0.0	0.0
C	-0.233554	-0.16185	-1.524433
F	1.390636	0.0	0.0
H	0.469179	0.561417	-1.953503
H	0.151183	-1.151095	-1.794151
C	-0.517133	1.28571	0.58901
H	-0.160815	1.38484	1.617073
H	-1.611275	1.261693	0.57217
H	-0.145593	2.124634	-0.005751
C	-0.410254	-1.18905	0.764451
N	-0.579682	-2.168006	1.390691
C	-1.492103	0.045271	-2.24052
N	-2.241797	0.217206	-3.129658
Br	-3.781994	0.0	0.0
