14
Coordinates from ORCA-job run
  C   0.81029266765509     -0.07487513923054     -0.47211137594009
  C   -0.44023083349205      0.28066918897162      0.31904192394493
  Br  1.91249745003948      1.57719404306835     -0.63999325887219
  H   -0.18034216670170      0.78195231379770      1.25852807261438
  H   0.52237475781949     -0.32111935326480     -1.49227786358807
  N   1.48376652206254     -1.16651221634178      0.13671643034261
  H   1.89976635345245     -0.90231448958531      1.02191714522078
  H   2.20796635695753     -1.53653281289888     -0.46423084531898
  N   -1.28076877731174     -0.87429212567715      0.43085861374285
  H   -0.70336911117104     -1.69939087297938      0.52676408544674
  H   -1.91021931155208     -0.79605514144817      1.21828105595394
  N   -1.22921284232633      1.33001893459787     -0.43876855309339
  O   -1.76303183531945      2.19787896407470      0.24889427369873
  O   -1.32848923011221      1.20437870691578     -1.65261970415225
