14
Coordinates from ORCA-job run
  C   0.96270148739311     -0.36300569418871      0.26963924551152
  C   -0.55682238148915     -0.28484026194019      0.38754823394656
  Br  1.46545295334659     -2.30312478427559      0.39680392834247
  H   -0.91108219260579     -0.94201288435677      1.18096413789563
  H   1.43096601475201      0.07720368188117      1.14646833595237
  N   1.38761350358388      0.28166538203264     -0.91099181373160
  H   2.38901684359750      0.41666407146334     -0.93216630193068
  H   1.10261936812724     -0.23952744919268     -1.73139557776444
  N   -1.20113723569960     -0.54925504433076     -0.84322119864981
  H   -2.17425456227655     -0.78435885012814     -0.70903252173583
  H   -1.15060592877341      0.26702813922691     -1.44026860487138
  N   -0.84807708925428      1.13647474932782      0.92655303079769
  O   -1.49503694273627      1.90015803668799      0.21917309416307
  O   -0.40035383796528      1.38793090779299      2.04092601207443
