14
Coordinates from ORCA-job run
  C   0.83368080222829     -0.01751649550338     -0.50501422618420
  C   -0.34184573118012      0.22700096799727      0.43619032647163
  Br  1.83466596676870      1.74184431431373     -0.60072591084309
  H   -0.03546706547582      0.77173448189530      1.32986986662270
  H   0.47870869973531     -0.13439106371255     -1.52737180641576
  N   1.60094429219780     -1.12496596597572     -0.11687854586702
  H   2.39962922115880     -1.26980516097064     -0.71862839414035
  H   1.88876833844520     -1.09313987724291      0.85168031351802
  N   -0.98637761370555     -0.98838123211084      0.79470550108230
  H   -1.23195025832604     -1.53853727042461     -0.01785744866541
  H   -1.80478798525893     -0.82172458333937      1.36634509110783
  N   -1.29216418194625      1.19722778948516     -0.26979608706587
  O   -1.68323726851060      0.86841487406586     -1.38794742706993
  O   -1.65956721613078      2.18223922152271      0.36442874744913
