11

C	0.0	0.0	0.0
C	-0.502271	0.107226	-1.433326
Cl	1.796748	0.0	0.0
H	-0.126065	-0.743098	-2.003222
H	-0.12704	1.033918	-1.869974
H	-1.594704	0.102102	-1.395297
C	-0.399654	1.1464	0.821811
N	-0.661693	2.058969	1.512111
C	-0.402826	-1.256738	0.644962
N	-0.672563	-2.259733	1.192872
Cl	-3.498065	0.0	0.0
