16

C	-0.24315	-0.020761	-1.515012
C	0.0	0.0	0.0
F	-0.033342	1.304128	-1.98587
H	1.097928	0.0	0.0
N	0.652555	-0.944679	-2.077848
H	0.678127	-0.876036	-3.08732
H	1.583119	-0.790834	-1.663804
C	-1.645532	-0.312341	-1.904133
N	-2.761241	-0.528041	-2.201583
C	-0.472071	-1.238972	0.594538
N	-0.860857	-2.211648	1.129424
C	-0.55449	1.223009	0.713396
H	-0.089835	2.118568	0.30153
H	-1.642315	1.300265	0.616116
H	-0.301542	1.162654	1.774446
H	2.75275	0.0	0.0
