16

C	-0.263334	0.069953	-1.514551
C	0.0	0.0	0.0
F	-0.023017	1.383146	-1.902983
H	1.098183	0.0	0.0
N	0.615691	-0.772898	-2.267396
H	1.538667	-0.694528	-1.819486
H	0.311846	-1.738161	-2.196542
C	-1.679774	-0.210095	-1.86008
N	-2.804379	-0.447423	-2.100417
C	-0.439804	-1.296886	0.485794
N	-0.786905	-2.348974	0.882203
C	-0.562156	1.153048	0.816004
H	-1.653317	1.216862	0.747754
H	-0.122821	2.084723	0.459205
H	-0.283026	1.02562	1.864862
H	2.738234	0.0	0.0
