16

C	-0.449565	-0.00347	-1.451002
C	0.0	0.0	0.0
F	-0.02541	-1.171108	-2.063109
H	1.096043	0.0	0.0
N	-1.880341	0.047373	-1.587994
H	-2.280527	0.674341	-0.904756
H	-2.150149	0.347464	-2.51626
C	0.200551	1.112392	-2.197954
N	0.559701	2.040778	-2.823498
C	-0.501504	-1.181971	0.677414
N	-0.881678	-2.115366	1.283662
C	-0.374455	1.276784	0.752963
H	-0.029716	2.149405	0.191629
H	0.165309	1.275917	1.70278
H	-1.445178	1.375171	0.964077
H	2.671621	0.0	0.0
