16

C	-0.262922	0.103511	-1.512946
C	0.0	0.0	0.0
F	-0.024077	1.425373	-1.872244
H	1.095898	0.0	0.0
N	0.619481	-0.722404	-2.281564
H	0.314693	-1.687434	-2.236568
H	1.542043	-0.653158	-1.830876
C	-1.678157	-0.171075	-1.869864
N	-2.801846	-0.383037	-2.137584
C	-0.440476	-1.307363	0.454653
N	-0.786941	-2.369104	0.82386
C	-0.562803	1.133885	0.841505
H	-0.280296	0.985352	1.886065
H	-1.653844	1.197356	0.778005
H	-0.126928	2.073168	0.503384
H	2.740852	0.0	0.0
