18

C	0.0	0.0	0.0
C	-0.681778	0.00958	-1.365068
F	1.340983	0.0	0.0
H	-1.631618	-0.505953	-1.191642
N	-0.394784	1.176623	0.8776
O	-1.262995	1.018185	1.719443
O	0.220233	2.210881	0.62793
N	-0.31786	-1.267336	0.815643
O	-0.981554	-2.14806	0.288893
O	0.228044	-1.317271	1.912219
C	0.180426	-0.757392	-2.360791
H	0.420329	-1.761165	-2.001045
H	-0.38826	-0.84289	-3.286706
H	1.110781	-0.223821	-2.572957
N	-1.037576	1.321218	-1.86965
H	-1.924064	1.582572	-1.445691
H	-0.337863	2.019291	-1.654163
Cl	-3.758319	0.0	0.0
