18

C	0.0	0.0	0.0
C	-0.720762	-0.337496	-1.284117
F	1.332551	0.0	0.0
H	-1.779231	-0.448099	-0.998726
N	-0.363274	1.438551	0.430695
O	0.562513	2.14138	0.811404
O	-1.543347	1.734119	0.363413
N	-0.392974	-0.883374	1.182045
O	-0.969124	-1.937398	0.94375
O	-0.013862	-0.485958	2.279978
C	-0.190299	-1.610352	-1.927407
H	-0.279433	-2.467302	-1.263371
H	-0.778507	-1.81245	-2.825723
H	0.857849	-1.484282	-2.216994
N	-0.544933	0.824063	-2.160467
H	-1.452235	1.226938	-2.359311
H	-0.105199	0.547249	-3.02798
Cl	-4.204327	0.0	0.0
