14

C	0.0	0.0	0.0
C	-0.517733	0.359164	-1.385276
Cl	1.811021	0.0	0.0
H	-1.593851	0.568585	-1.283692
H	-0.414364	-0.547336	-1.988238
N	-0.300765	1.169214	0.992277
O	-0.406418	2.297301	0.535109
O	-0.362424	0.858682	2.175444
N	-0.524299	-1.218321	0.432032
H	-1.549634	-1.162844	0.314098
H	-0.322479	-1.335242	1.420756
C	0.168554	1.449241	-2.065369
N	0.708728	2.283057	-2.690909
Br	-3.675179	0.0	0.0
