14

C	0.0	0.0	0.0
C	-0.242327	0.238354	-1.527497
Cl	1.771538	0.0	0.0
H	0.148992	-0.669325	-1.999961
H	0.417886	1.049861	-1.830322
N	-0.406796	1.259931	0.781876
O	-0.57922	1.139004	1.983311
O	-0.442829	2.302691	0.13902
N	-0.541774	-1.122034	0.639234
H	-1.56455	-0.985092	0.664849
H	-0.333631	-1.951089	0.095983
C	-1.52106	0.534265	-2.180123
N	-2.26617	0.832327	-3.041247
Br	-3.591096	0.0	0.0
