15

C	-0.46441	-0.035246	-1.453452
C	0.0	0.0	0.0
Cl	-0.153529	1.564776	-2.210876
H	1.088464	0.0	0.0
H	-0.367079	-0.894158	0.512367
C	0.376186	-1.083248	-2.181136
H	0.121434	-1.098446	-3.24177
H	0.178185	-2.069088	-1.751537
H	1.433227	-0.844066	-2.042566
C	-1.889737	-0.33575	-1.615598
N	-3.001589	-0.664565	-1.806102
N	-0.557541	1.15655	0.748198
O	0.210289	1.836578	1.418398
O	-1.77458	1.331037	0.659622
Br	3.525267	0.0	0.0
