15

C	-0.552457	0.012102	-1.426362
C	0.0	0.0	0.0
Cl	-0.026938	-1.540941	-2.162816
H	1.088664	0.0	0.0
H	-0.392224	-0.869924	0.524262
C	-2.076096	0.071842	-1.472639
H	-2.421158	-0.026309	-2.502799
H	-2.494768	-0.73774	-0.872166
H	-2.420522	1.027627	-1.073776
C	-0.008928	1.107195	-2.237938
N	0.307055	2.0157	-2.914027
N	-0.516543	1.190016	0.724862
O	-0.015403	2.279972	0.460157
O	-1.449944	1.013829	1.514335
Br	3.472446	0.0	0.0
