15

C	-0.466429	-0.058128	-1.452883
C	0.0	0.0	0.0
Cl	-0.099968	1.5105	-2.247491
H	1.088408	0.0	0.0
H	-0.377493	-0.87564	0.534926
C	0.338272	-1.151078	-2.15378
H	1.402991	-0.949646	-2.016511
H	0.084886	-1.180596	-3.215055
H	0.100909	-2.11897	-1.704114
C	-1.901066	-0.312499	-1.617161
N	-3.021334	-0.607002	-1.808406
N	-0.536431	1.189389	0.71314
O	0.247974	1.881769	1.347206
O	-1.751093	1.381484	0.629054
Br	3.532734	0.0	0.0
