15

C	-0.466376	-0.03597	-1.453157
C	0.0	0.0	0.0
Cl	-0.164063	1.561351	-2.218523
H	1.088442	0.0	0.0
H	-0.364519	-0.895705	0.512091
C	0.38162	-1.080606	-2.179114
H	0.124725	-1.102048	-3.239255
H	1.437362	-0.829862	-2.044223
H	0.194903	-2.06749	-1.745568
C	-1.890248	-0.344877	-1.615012
N	-2.999227	-0.68086	-1.809457
N	-0.559522	1.152609	0.754105
O	-1.770893	1.351562	0.639052
O	0.204528	1.801606	1.459044
Br	3.527219	0.0	0.0
