15

C	-0.591323	0.009956	-1.413696
C	0.0	0.0	0.0
Cl	0.231153	-1.159028	-2.492505
H	1.088245	0.0	0.0
H	-0.369419	0.876411	0.533862
C	-2.088864	-0.291712	-1.41902
H	-2.486389	-0.191302	-2.429196
H	-2.256144	-1.313124	-1.076795
H	-2.608959	0.400663	-0.75251
C	-0.375601	1.347834	-1.970777
N	-0.287764	2.429812	-2.420038
N	-0.516051	-1.166948	0.753946
O	-1.313936	-0.939203	1.669549
O	-0.154108	-2.285294	0.39908
Br	3.448697	0.0	0.0
