15

C	-0.465424	-0.060952	-1.452152
C	0.0	0.0	0.0
Cl	-0.172274	1.52704	-2.238417
H	1.088448	0.0	0.0
H	-0.362182	-0.887905	0.527112
C	0.386707	-1.111878	-2.164185
H	1.441353	-0.856549	-2.03254
H	0.203036	-2.09257	-1.716398
H	0.12927	-1.149501	-3.223667
C	-1.887506	-0.382131	-1.606897
N	-2.99395	-0.730803	-1.794962
N	-0.560341	1.164104	0.734944
O	-1.766154	1.378106	0.591286
O	0.194469	1.807685	1.45526
Br	3.521614	0.0	0.0
