12
Coordinates from ORCA-job run
  C   1.18797176955653     -0.20102345896363      0.49362354022232
  C   -0.04438818507968      0.01166706006065     -0.35003967340964
  Cl  2.32217130798189      1.15199428091276      0.30084870430583
  H   0.22405684706455      0.35142632669542     -1.35659610728806
  H   0.90975722730777     -0.27996271327605      1.54139672619950
  H   1.69802164204369     -1.10788761521223      0.16652624647011
  N   -0.88126948935297      1.14630640596942      0.19885623781109
  O   -0.75558333339663      1.46425711437927      1.37434378989387
  O   -1.68497191509874      1.62194242239518     -0.60072120512006
  N   -0.90357754779812     -1.14768276209796     -0.28597912617966
  H   -0.39215847801436     -1.97799662227213     -0.55665681790353
  H   -1.68102984521391     -1.03204043859070     -0.92560231500176
