12
Coordinates from ORCA-job run
  C   1.10789720366204     -0.19706628728393      0.49707586545786
  C   -0.06088559687414      0.01635846439927     -0.44706155280514
  Cl  2.20403108257668      1.20302835953219      0.51015841196997
  H   0.28184668597048      0.28757194629209     -1.44494764597579
  H   1.67399334037497     -1.06842206791951      0.16763984635888
  H   0.73604709608672     -0.34974771175005      1.51027061322317
  N   -0.84789170920623      1.20693733831465      0.04015677610655
  O   -0.98900045668258      2.15684531502025     -0.72054098025895
  O   -1.30711435478128      1.10475980949399      1.17499774361625
  N   -0.98133114158611     -1.08221248153224     -0.51678354016219
  H   -0.66634903197518     -1.79007955514000     -1.16400284165418
  H   -1.15124311756537     -1.48797312942669      0.39403730412357
