12
Coordinates from ORCA-job run
  C   1.18035144418318      0.10091089754161      0.51050395528996
  C   -0.00288936998975     -0.10940819706678     -0.42148964363725
  Cl  2.49355106745775     -1.02704563588045      0.12926841007184
  H   0.30752954679821      0.00779418725035     -1.46023957033887
  H   1.56373533411960      1.11371598669042      0.39838248958204
  H   0.87301589805578     -0.06736613389402      1.54456061991621
  N   -0.90697950563025      1.11650815932204     -0.16426395461661
  O   -0.58741481711476      2.16133813907241     -0.72327858559056
  O   -1.84908876898364      0.96571658249433      0.60908780457302
  N   -0.65026762761948     -1.34466663860915     -0.21945875539398
  H   -1.05412534413928     -1.40602258449556      0.70580986559737
  H   -1.37041785713734     -1.51247476242520     -0.90788263545317
