12
Coordinates from ORCA-job run
  C   1.20185345501160      0.09550642113329      0.45940634037052
  C   -0.02146722326233     -0.12093323093273     -0.41751897462296
  Cl  2.47962989459221     -1.06626741872072      0.05986528593288
  H   0.24757357048644     -0.03821230353658     -1.47106193179476
  H   0.93410217505985     -0.03648638930974      1.50963871543042
  H   1.59710021371972      1.09764685672959      0.30194219187089
  N   -0.89527840741691      1.12660245320025     -0.16027797316400
  O   -0.58184540339052      2.14960589026236     -0.76161886290200
  O   -1.80847623271470      1.01340169422626      0.65307672333283
  N   -0.67945001279495     -1.33894776321022     -0.15442893935874
  H   -1.42958438444653     -1.51402444301382     -0.80807121556966
  H   -1.04515764484386     -1.36889176682794      0.78804864047458
