12
Coordinates from ORCA-job run
  C   1.11335192794892      0.06056321594074      0.49362096615139
  C   -0.09246894152787      0.00099548840773     -0.44052893315040
  Cl  2.24765513758852     -1.24590459035779      0.08491932838895
  H   0.22403290232564      0.13927379146517     -1.47383448689952
  H   1.63964530160769      1.00993139221863      0.38702822461839
  H   0.79146151537298     -0.07551541891052      1.52637363272119
  N   -0.91014764833300      1.22234404827352     -0.09999844446878
  O   -1.53914606618294      1.16583575051282      0.95350720954462
  O   -0.85391087169132      2.18085359735059     -0.86412959720412
  N   -0.94861724585423     -1.13817853442402     -0.34337196138871
  H   -1.11456466671656     -1.39620064600069      0.62056401166435
  H   -0.55729134453782     -1.92299809447617     -0.84414994997736
