12
Coordinates from ORCA-job run
  C   1.28632392637901     -0.03786538899706      0.19763972828472
  C   -0.13019912244589     -0.07334781534105     -0.32003787124314
  Cl  2.20555124931265      1.26929660463535     -0.57730443327896
  H   -0.15077300664383      0.02686244196479     -1.41100315944717
  H   1.78315287847189     -0.97829208618225     -0.04387562553725
  H   1.28335489404147      0.12365947878570      1.27252676171147
  N   -0.90876486562461      1.12995522849842      0.16437482176039
  O   -0.52872196670321      1.72026410860615      1.16726040127408
  O   -1.92450001247081      1.37641963619769     -0.48296735762033
  N   -0.83413915451996     -1.21306412650099      0.22015818692390
  H   -1.75271158860013     -1.27887751712576     -0.20270578114380
  H   -0.32957323119657     -2.06601056454099      0.01493432831610
