17

C	0.0	0.0	0.0
C	-0.579307	0.140828	-1.402132
F	1.362937	0.0	0.0
H	-1.659648	-0.053377	-1.280829
C	-0.513125	1.02833	0.964577
H	-0.105321	0.809788	1.95169
H	-1.605016	0.987224	0.980349
H	-0.184745	2.008298	0.622725
N	-0.335283	-1.399117	0.537924
O	-0.942598	-2.181431	-0.185631
O	0.09712	-1.649023	1.660867
C	0.009507	-0.833281	-2.334488
N	0.527231	-1.514652	-3.140638
N	-0.394556	1.513384	-1.867737
H	-1.165558	1.761987	-2.473491
H	0.47171	1.598055	-2.385447
Br	-3.89065	0.0	0.0
