17

C	0.0	0.0	0.0
C	-0.336396	0.038381	-1.522135
F	1.372633	0.0	0.0
H	0.376643	-0.670978	-1.954316
C	-0.608739	1.056882	0.856603
H	-1.697861	0.954377	0.808447
H	-0.311162	2.035328	0.476778
H	-0.281671	0.945298	1.889113
N	-0.340236	-1.395573	0.527124
O	-0.621331	-1.506897	1.71415
O	-0.203244	-2.327197	-0.263957
C	0.064881	1.373965	-2.003519
N	0.389877	2.43352	-2.390084
N	-1.644053	-0.297526	-2.009006
H	-2.400612	0.154886	-1.493423
H	-1.791966	-1.29239	-1.891492
Br	-4.245637	0.0	0.0
