15
Coordinates from ORCA-job run
  C   0.80519025957832     -0.31820157116326     -0.27496713294673
  C   -0.53808855478018     -0.30891107115292      0.44382864982697
  Cl  1.35254727454524     -1.99503011321914     -0.40643588010732
  H   -0.45970770020321     -0.78894981086154      1.41673026480433
  N   1.83229211354371      0.40686140769120      0.64057348761899
  O   2.75656059259544      0.96178071026740      0.07732429383345
  O   1.63263947393682      0.29098395178475      1.83931132867760
  C   0.80294947053569      0.31579798852074     -1.58023265949591
  N   0.82831085818046      0.78800570470731     -2.65706520699921
  N   -1.58039622125672     -1.03207560065216     -0.35860144884139
  O   -1.97257175885636     -0.45505785780413     -1.36693123463818
  O   -1.93101726061333     -2.12353637216666      0.07189268002620
  N   -1.05072719003004      1.08965796488009      0.65754504895535
  O   -2.15408697538148      1.15468415049484      1.17984150679221
  O   -0.32289438179436      2.01499051867347      0.31618630249364
