15
Coordinates from ORCA-job run
  C   0.76373645306873     -0.41212853815024     -0.14708973529750
  C   -0.61951039035495      0.24635310104827     -0.11189892585870
  Cl  0.82757818159867     -1.95388426355984      0.66318061275278
  H   -0.65943942655224      1.10360408025053     -0.78093806062067
  N   1.75463263592526      0.61392922195063      0.51392212973975
  O   2.62657205792291      0.18201869715317      1.23429050996753
  O   1.54628464444513      1.76652707206255      0.16397395934446
  C   1.21522318309483     -0.54109216345757     -1.52691330770705
  N   1.60998322794630     -0.63589999301120     -2.63090401262535
  N   -1.01700710715309      0.73574013174950      1.24874214687611
  O   -2.03530070323994      1.41499095175813      1.25200064334604
  O   -0.32155175967002      0.42029243414236      2.20635623922333
  N   -1.66051234986523     -0.74194436858643     -0.57563805659714
  O   -2.33537043982003     -1.29633770685974      0.27927288758860
  O   -1.69331820734633     -0.90216865649010     -1.78935703013219
