15
Coordinates from ORCA-job run
  C   0.80053303655575     -0.34760894052119     -0.34034408740830
  C   -0.54718556756249     -0.42194754295232      0.38650675040990
  Cl  1.44822505224717     -1.96734184515753     -0.61293494898094
  H   -0.55468587465837     -1.20586513772827      1.14132332258843
  N   1.80697636392216      0.33787599834755      0.61785541341024
  O   1.63499417247088      0.09011353813128      1.80176903816531
  O   2.70051788053444      0.98142507354143      0.09867407263330
  C   0.73353964697475      0.39166680051735     -1.58952157197461
  N   0.64437146331289      0.93104662203404     -2.63062025333367
  N   -1.66473105435860     -0.70286427256045     -0.60578514140116
  O   -1.52156252019180     -1.73106785642435     -1.25011598164977
  O   -2.58777694498962      0.09577990427155     -0.65551725815052
  N   -0.87467429489256      0.87330534561667      1.05778426325723
  O   -1.59039465211734      0.78772373304512      2.04608668170004
  O   -0.42814670724726      1.88875857983911      0.53483970073454
