15
Coordinates from ORCA-job run
  C   0.82491368918507     -0.30757922102396     -0.32517044169014
  C   -0.52284760427755     -0.44685917859019      0.39892373580193
  Cl  1.53717511453748     -1.90001576255937     -0.59280534164751
  H   -0.50040973955262     -1.22778719223275      1.15533463963177
  N   1.78279035343107      0.43805105947513      0.62711485811094
  O   1.66291186108565      0.12924087717969      1.80489998218770
  O   2.59196468582482      1.18853998420452      0.12050878745444
  C   0.71213324913247      0.41543798146635     -1.58042538879048
  N   0.56228435747947      0.92961552860438     -2.62702291872240
  N   -1.60046261736674     -0.79201857908000     -0.61109152759972
  O   -2.27172102106495      0.12681920768983     -1.06088074030186
  O   -1.64563120873339     -1.97842196693748     -0.90469344866015
  N   -0.92923382723961      0.83568441314895      1.05001163129926
  O   -1.74382803474988      0.71992756757958      1.95862494809200
  O   -0.46003925769128      1.86836528107533      0.58667122483422
