15
Coordinates from ORCA-job run
  C   0.79714377790236     -0.21174679593672     -0.36949720275825
  C   -0.50147595130933     -0.40621399438911      0.40322016094568
  Cl  1.38776300939805     -1.80274483456892     -0.87061137729215
  H   -0.33859414274850     -1.04299297075103      1.27046644051986
  N   1.85571203620921      0.35208454578904      0.62037871420474
  O   2.69416620043354      1.09654107914009      0.14918894379314
  O   1.76743541742328     -0.06518899401671      1.76431533212760
  C   0.69591051080342      0.67076270540055     -1.51664028102686
  N   0.63431754490926      1.34459435165245     -2.47860460847931
  N   -1.55169393606164     -1.03783097688625     -0.46434676350382
  O   -1.85017644505798     -2.19388694205234     -0.19307040841332
  O   -1.99816984895345     -0.33052397945599     -1.36012439646802
  N   -1.06395617507879      0.90223726973482      0.88778264715618
  O   -2.17319967528398      0.83200310952482      1.39522729877943
  O   -0.35418232258545      1.89390642681530      0.76131550041510
