15

C	0.0	0.0	0.0
C	-0.623886	-0.068395	-1.400103
F	1.343546	0.0	0.0
H	-1.815796	-0.105369	-1.010762
N	-0.406874	1.166455	0.715452
H	-0.082269	1.977417	0.198559
H	-1.426012	1.167847	0.743334
N	-0.576298	-1.187991	0.672989
O	-1.663692	-0.925032	1.274479
O	-0.225437	-2.306065	0.240724
C	-0.231899	-1.176926	-2.246461
N	0.10684	-2.013409	-2.999709
C	-0.465958	1.174938	-2.112566
N	-0.327658	2.209447	-2.671381
H	-2.742977	0.0	0.0
