13

C	-0.484151	-0.027071	-1.44353
C	0.0	0.0	0.0
Br	0.043039	1.566278	-2.450446
H	1.095427	0.0	0.0
H	-1.572605	-0.07584	-1.536002
H	-0.024142	-0.863532	-1.969051
C	-0.478824	-1.233927	0.603671
N	-0.884803	-2.230125	1.082166
C	-0.473444	1.20747	0.803379
H	-0.148867	1.098688	1.840433
H	0.001678	2.103857	0.403066
H	-1.562995	1.338772	0.784922
F	2.572091	0.0	0.0
