13

C	-0.459707	0.108744	-1.440251
C	0.0	0.0	0.0
Br	-0.123721	-1.507742	-2.487503
H	1.095134	0.0	0.0
H	-1.531031	0.304727	-1.546729
H	0.12041	0.895551	-1.924703
C	-0.592609	-1.12702	0.690357
N	-1.094984	-2.01812	1.27209
C	-0.328433	1.311082	0.725206
H	-1.397072	1.55913	0.73262
H	0.028417	1.245227	1.754857
H	0.231113	2.117376	0.244137
F	2.567137	0.0	0.0
