13

C	-0.219063	0.023498	-1.483763
C	0.0	0.0	0.0
Br	-2.105387	0.247784	-2.082728
H	1.098635	0.0	0.0
H	0.12026	-0.901513	-1.945974
H	0.323904	0.863853	-1.91396
C	-0.540873	-1.191532	0.619981
N	-0.977139	-2.152202	1.141047
C	-0.428933	1.271941	0.719118
H	-0.10982	1.226605	1.762713
H	0.085487	2.118703	0.257085
H	-1.509136	1.44363	0.681608
F	2.546852	0.0	0.0
