13

C	-0.398104	0.007463	-1.456775
C	0.0	0.0	0.0
Cl	-2.181356	0.030604	-1.705743
H	1.103131	0.0	0.0
H	-0.017072	-0.87291	-1.975559
H	-0.001839	0.909213	-1.916563
N	-0.528303	-1.198191	0.677462
H	-0.24898	-2.017945	0.144612
H	-0.026132	-1.269556	1.558493
N	-0.444718	1.213544	0.654529
H	-1.38482	1.059308	1.002712
H	0.166645	1.407187	1.438251
Br	3.652845	0.0	0.0
