13

C	-0.34716	0.001425	-1.481719
C	0.0	0.0	0.0
Cl	-2.109969	-0.17514	-1.80321
H	1.105133	0.0	0.0
H	-0.030045	0.931745	-1.954831
H	0.149784	-0.834654	-1.973187
N	-0.441169	-1.163916	0.739851
H	-1.403079	-1.38165	0.500582
H	0.150497	-1.952794	0.508518
N	-0.576509	1.175593	0.649775
H	-0.331915	1.088513	1.63041
H	-0.089134	1.996694	0.303858
Br	3.669598	0.0	0.0
