18

C	-0.370944	-0.005351	-1.468151
C	0.0	0.0	0.0
Cl	-2.185996	-0.013934	-1.71285
H	1.093538	0.0	0.0
C	0.137408	1.151156	-2.216806
N	0.549251	1.945917	-2.978795
C	0.207877	-1.251999	-2.132132
H	0.076372	-1.194453	-3.213369
H	-0.291189	-2.146457	-1.761146
H	1.27376	-1.284776	-1.880191
C	-0.392522	-1.243094	0.768578
H	-1.462018	-1.462364	0.700292
H	0.188608	-2.090733	0.401363
H	-0.123047	-1.094539	1.812141
N	-0.433704	1.215261	0.685599
O	-0.492271	1.19663	1.921503
O	-0.623543	2.235653	0.012882
H	2.541211	0.0	0.0
