18

C	-0.497717	-0.023129	-1.447079
C	0.0	0.0	0.0
Cl	0.519566	0.992885	-2.553588
H	1.094304	0.0	0.0
C	-0.372325	-1.385007	-1.981769
N	-0.360034	-2.468967	-2.43613
C	-1.953379	0.413386	-1.619937
H	-2.04369	1.457837	-1.329226
H	-2.258338	0.297569	-2.661955
H	-2.594997	-0.205906	-0.986984
C	-0.346949	-1.232896	0.808825
H	0.067798	-2.113899	0.319318
H	0.135144	-1.136196	1.780742
H	-1.421346	-1.368256	0.963128
N	-0.388131	1.207155	0.682093
O	-0.524476	1.165857	1.923159
O	-0.401107	2.274811	0.035038
H	2.434476	0.0	0.0
