18

C	-0.490624	-0.010891	-1.454804
C	0.0	0.0	0.0
Cl	0.266124	1.282739	-2.460718
H	1.091036	0.0	0.0
C	-0.086147	-1.27707	-2.077458
N	0.15127	-2.296006	-2.613625
C	-2.00656	0.136936	-1.579276
H	-2.505671	-0.672502	-1.042293
H	-2.316365	1.093282	-1.154879
H	-2.302365	0.102929	-2.629736
C	-0.403923	-1.249264	0.760194
H	-0.007025	-1.163702	1.772963
H	0.076033	-2.112474	0.295728
H	-1.481738	-1.407299	0.829196
N	-0.494229	1.199909	0.682017
O	-0.047437	2.2918	0.309189
O	-1.298374	1.07121	1.623096
H	2.601083	0.0	0.0
