17

C	0.0	0.0	0.0
C	-0.631954	-0.078868	-1.379456
Br	1.955877	0.0	0.0
H	-1.718524	-0.242988	-1.074735
H	-0.280416	0.984044	0.375344
C	-0.479927	-1.040507	0.998979
H	-1.573899	-0.965419	0.950234
H	-0.110924	-0.788262	1.997388
H	-0.135914	-2.038245	0.730618
N	-0.127386	-1.243567	-2.15024
O	-0.268648	-2.363017	-1.655838
O	0.393031	-1.050876	-3.254161
C	-0.50252	1.203107	-2.169652
H	-1.067701	1.965917	-1.627238
H	-0.94472	1.093835	-3.160825
H	0.537356	1.520442	-2.288407
F	-2.898495	0.0	0.0
