17

C	0.0	0.0	0.0
C	-0.629318	-0.102548	-1.379523
Br	1.955634	0.0	0.0
H	-1.717741	-0.254371	-1.075916
H	-0.281248	0.990702	0.357221
C	-0.483533	-1.02211	1.015057
H	-0.140663	-2.024971	0.765512
H	-0.116651	-0.752927	2.009713
H	-1.577387	-0.944771	0.961199
N	-0.12976	-1.287694	-2.12203
O	-0.291003	-2.396194	-1.608823
O	0.409419	-1.120283	-3.22149
C	-0.484767	1.160748	-2.197226
H	-0.929304	1.03646	-3.185485
H	-1.037962	1.943306	-1.672294
H	0.558841	1.460874	-2.323341
F	-2.899524	0.0	0.0
