17

C	0.0	0.0	0.0
C	-0.271368	0.136097	-1.526489
Cl	1.784461	0.0	0.0
H	0.455201	-0.510851	-2.022602
H	0.046922	1.16451	-1.738668
C	-0.678186	1.02046	0.855798
H	-1.766588	0.80711	0.708519
H	-0.388921	0.920902	1.90158
H	-0.419928	2.017981	0.491226
N	-0.369829	-1.40006	0.481751
O	-0.366565	-2.301153	-0.350277
O	-0.571754	-1.548392	1.681305
C	-1.646685	-0.119805	-2.127839
H	-1.648299	0.304481	-3.140675
H	-2.460548	0.257292	-1.490985
H	-1.818879	-1.195479	-2.201221
F	-3.209276	0.0	0.0
