17
Coordinates from ORCA-job run
  C   0.86436670925365     -0.14074538827542      0.46101088085617
  C   -0.37136911900788      0.09413166348009     -0.41214182916494
  F   0.47855935646301     -0.18986746608850      1.79431486648466
  H   -0.01144771641100      0.14370408078445     -1.44912159492695
  N   1.49016948401411     -1.39332563828507      0.16179255814769
  H   1.65111856528524     -1.48662251587955     -0.83310298576077
  H   2.37371454472818     -1.48111261739485      0.64965082654950
  C   1.80147163962900      1.01183829782681      0.35664075891903
  N   2.57506780322482      1.88486800388253      0.21635288218298
  C   -1.03687957126944      1.42323799648248     -0.06260295399926
  H   -0.37094638173777      2.27341278548097     -0.22531953198877
  H   -1.35118633393624      1.42634016214403      0.98308557773179
  H   -1.92345464483524      1.56796716865104     -0.68367795587237
  C   -1.35124474737331     -1.06905227865947     -0.26966840281153
  H   -1.69867108603017     -1.14208276600358      0.76262385443758
  H   -2.21862418918814     -0.89785237962978     -0.91156018699041
  H   -0.89964431280881     -2.02283910851617     -0.54027676379440
