17
Coordinates from ORCA-job run
  C   0.86114436576731     -0.10666058664004      0.61538377217125
  C   -0.60396855978930      0.17559348846069      0.27183863412768
  F   0.86518921834255     -0.90252659646519      1.78540087451237
  H   -1.03656377796830      0.57825634611408      1.19465927581530
  N   1.56086668812085     -0.72754905684289     -0.44641017756397
  H   2.53322936662997     -0.87838166218087     -0.20883089366716
  H   1.13223751916218     -1.61165156640941     -0.68754167091771
  C   1.56544434454758      1.13836470237370      0.98870750744531
  N   2.11172934998010      2.13096705295370      1.29441753205947
  C   -1.33849441490419     -1.11730534617994     -0.07993970884416
  H   -1.04620118475999     -1.48739841452370     -1.06690593588613
  H   -1.15976728606503     -1.89582908802310      0.66370274309727
  H   -2.41337346246573     -0.92752799442866     -0.11673300690692
  C   -0.72880828956553      1.21246366652158     -0.83974045226784
  H   -0.26509573542311      2.16208303436551     -0.56403029361192
  H   -0.25179303367230      0.85246868489349     -1.75325876724554
  H   -1.78377510793706      1.40363333601103     -1.05071943231728
