17
Coordinates from ORCA-job run
  C   0.87893388615321     -0.11892094069159      0.58723412068186
  C   -0.59494967842119      0.17391634513738      0.29279899729307
  F   0.91538081369577     -0.92829429996093      1.74733692898204
  H   -0.99730726404276      0.56431524676072      1.23438509404088
  N   1.54178010902234     -0.73085559464132     -0.50297403698326
  H   2.52061874805507     -0.88816088271928     -0.29846816914846
  H   1.10179138797666     -1.61068997952503     -0.73960460966644
  C   1.60016076946332      1.11879387563441      0.95260499830811
  N   2.15804007429470      2.10682870058976      1.25276181594827
  C   -1.34446779074720     -1.11094612530912     -0.05640114314907
  H   -1.14226260805406     -1.90303648777081      0.66659108736925
  H   -1.08695707195276     -1.46331143278718     -1.05932433601325
  H   -2.41955951544458     -0.91917238205305     -0.05285895296793
  C   -0.74873332523054      1.22824688765783     -0.79852881554585
  H   -0.29364535258221      0.88412029362632     -1.72903380507652
  H   -1.80865198517807      1.42100970356366     -0.98074716691623
  H   -0.28017119700771      2.17415707248823     -0.51877200715647
