17
Coordinates from ORCA-job run
  C   0.79971266405092     -0.23378153691164      0.68373841522076
  C   -0.62033653224782      0.15828475781658      0.27057782168780
  F   0.72895276703530     -1.07360793437721      1.78670193536971
  H   -1.04592947909663      0.64189967404481      1.15804528434714
  N   1.48054538491340     -0.96159638098053     -0.34418556300931
  H   2.43437539015992     -1.15903487948010     -0.06505624021962
  H   1.49628113119501     -0.43889095464675     -1.21018193070062
  C   1.54689655950369      0.96812110652375      1.14981668657936
  N   2.14990123452993      1.92831357641557      1.45796005712438
  C   -1.44651473108192     -1.08245447434480     -0.05649246092279
  H   -1.43152388319484     -1.79238277159897      0.77077549125291
  H   -2.48357717877987     -0.79279096461176     -0.24325099162140
  H   -1.06147444099134     -1.58688266753992     -0.94375870983520
  C   -0.62286191807578      1.16369976859717     -0.87932515961585
  H   -0.29115182722230      0.70231396334009     -1.81423853607344
  H   -1.63942893147970      1.52515530234055     -1.04839943872834
  H   0.00713379078203      2.03263441541317     -0.67372666085549
