17
Coordinates from ORCA-job run
  C   0.91072076641640     -0.09733264899403      0.47343334640342
  C   -0.34568303371272      0.09248957581841     -0.39126801430692
  F   0.48526944205487     -0.07706273440733      1.81206004960544
  H   0.00705382295194      0.12649432755508     -1.42964867750923
  N   1.62826887914152     -1.29211684510424      0.21919930791604
  H   1.12909245578199     -1.96702308719170     -0.33495925982448
  H   2.57927739110789     -1.17274057332745     -0.08653242577559
  C   1.82179137084690      1.05848903030928      0.32369972280674
  N   2.54832365561551      1.96653184827908      0.16350658464175
  C   -1.05483823463565      1.40334433542606     -0.06012511642770
  H   -1.42196736988024      1.38906554002235      0.96752019318798
  H   -0.39463922076387      2.26534556326858     -0.17752131677383
  H   -1.90833688851128      1.54323498723438     -0.72742401561315
  C   -1.30251536106249     -1.08891605985861     -0.21892701175507
  H   -0.89827571382573     -2.03463666874949     -0.58850561260880
  H   -2.22074110938486     -0.89868761980490     -0.77860372990177
  H   -1.56280085214020     -1.21547897047547      0.83309597593518
