17
Coordinates from ORCA-job run
  C   0.84428771623072      0.10486683931272      0.64927556795529
  C   -0.63419817659765      0.08548995737223      0.26931807805847
  F   1.05528539920900      1.11178453689696      1.57928807366194
  H   -1.14513606122724     -0.10120567976346      1.22087378661189
  N   1.24905628945122     -1.11568885442082      1.28579918176173
  H   1.11963342781863     -1.90588819451829      0.66758889532677
  H   2.23039219236356     -1.06233366736265      1.53564572837069
  C   1.67914318714159      0.45834024517427     -0.53350049988522
  N   2.33191138736873      0.66558561534700     -1.48835680689102
  C   -0.95258934292096     -1.04158261963096     -0.71070601203158
  H   -2.00065515420734     -0.98233756046770     -1.01180786371869
  H   -0.34565448391889     -0.96073565275227     -1.61759010137257
  H   -0.80327177342226     -2.03076003305575     -0.27215211412093
  C   -1.06831993596747      1.43933764518427     -0.28615102234813
  H   -0.79521204091350      2.25177689564187      0.38803167510647
  H   -2.15302993246963      1.45438508479363     -0.41469293639908
  H   -0.61264269793851      1.62996544224894     -1.26186363008601
