17
Coordinates from ORCA-job run
  C   0.94184915922019     -0.04999696301781      0.33306771722866
  C   -0.36686821175536      0.12019577858308     -0.44587974762042
  F   0.62644218125804     -0.01440788357609      1.71217351445433
  H   -0.07299812237487      0.20765266796240     -1.49785782800437
  N   1.63215129413452     -1.23584835129809     -0.01621555608195
  H   1.06862031422372     -2.04974150179488      0.19109226012669
  H   2.51226200978628     -1.30455341751120      0.47976460705377
  C   1.84027975609636      1.10156441275293      0.10089232108980
  N   2.54303372277613      2.02115528628692     -0.09328163323075
  C   -1.09223764516228      1.39349883214611     -0.01738359466517
  H   -1.98376910085783      1.53542380130802     -0.63226783337528
  H   -0.46312638734090      2.27886969580505     -0.13369829557336
  H   -1.40262380232223      1.32770379749811      1.02677619600561
  C   -1.26444533037451     -1.10554648948936     -0.27992419467235
  H   -1.43597671903221     -1.31832820197728      0.77795694217803
  H   -0.84918335747914     -1.99315000726555     -0.76229172535951
  H   -2.23440976079591     -0.91549145641236     -0.74392314955374
