17
Coordinates from ORCA-job run
  C   0.83846160599758     -0.10660133943696      0.51432998710803
  C   -0.34793525482962      0.08800920607036     -0.43381339357406
  F   0.36780617725406     -0.22547510893925      1.81558250768249
  H   0.07656837588442      0.19761738367679     -1.44136020459255
  N   1.55662303234041     -1.30965070498562      0.21939885086502
  H   1.78941693066469     -1.35759077484241     -0.76441286236233
  H   2.40930051923207     -1.36299898172444      0.76403206855209
  C   1.71013244397065      1.10086015957592      0.51240982007828
  N   2.43732978076344      2.02180819514648      0.45447542083102
  C   -1.11587782073496      1.36138882023528     -0.08659031335216
  H   -1.96032408053104      1.48187895541353     -0.76857045378740
  H   -1.50735523192081      1.30256735066039      0.93108330433092
  H   -0.49145869471230      2.25404519838683     -0.16501764683638
  C   -1.26191661617668     -1.13560749714521     -0.39770455690611
  H   -1.66041450453175     -1.27528581675536      0.60894377323163
  H   -0.73906861932018     -2.04848521288323     -0.68099984462228
  H   -2.10128804334996     -0.98647983245312     -1.08078645664622
