17
Coordinates from ORCA-job run
  C   0.89240653030389     -0.32918009187498      0.42972070743710
  C   -0.44481857873037     -0.34718308149640     -0.31293290124767
  F   0.91318792420349     -1.44568894777962      1.29533156917004
  H   -0.42139523037679     -1.27026537761076     -0.90948606055018
  N   1.99147777830295     -0.34560864359822     -0.46287042868130
  H   2.87175148029533     -0.36613030993893      0.03724444309365
  H   1.93110303001349     -1.14940111740039     -1.07632754713634
  C   0.99782588514024      0.85686973327259      1.30602558306219
  N   1.05694962168915      1.80267367162779      1.99854344658300
  C   -0.57211982746142      0.85537910623655     -1.24394383030138
  H   -1.50573645780481      0.78905706107080     -1.80785360659775
  H   -0.59555349836902      1.78527199771017     -0.66849372636602
  H   0.25838971323979      0.91271452409455     -1.94725896772189
  C   -1.61655106719278     -0.42687538234888      0.66126380254106
  H   -1.67547214643106      0.47901959087228      1.27137565052528
  H   -1.52853763779559     -1.28604128693928      1.32600290084030
  H   -2.55290751902652     -0.51561144589727      0.10565896534992
