17
Coordinates from ORCA-job run
  C   0.86851620880940     -0.14092017405557      0.45326997752104
  C   -0.37509027724143      0.09151478882299     -0.40926471520223
  F   0.49582379994063     -0.17557831928087      1.79110990498900
  H   -0.02588226499102      0.12756310739516     -1.45047868379988
  N   1.48533426291721     -1.39898040875822      0.15948788082990
  H   1.63121503133040     -1.50503507247937     -0.83640756154890
  H   2.37516737126225     -1.48560196440662      0.63592752950279
  C   1.80966041809452      1.00621523236310      0.32984362273098
  N   2.58571943043576      1.87459562179686      0.17412159850407
  C   -1.02950677615822      1.42810999906895     -0.06743829085662
  H   -0.36074981748065      2.27271457738513     -0.24682099288121
  H   -1.33227669166200      1.44451046007934      0.98157217765243
  H   -1.92209424921201      1.57074826255299     -0.68036371712704
  C   -1.35981320456568     -1.06448460907219     -0.24334663147159
  H   -2.23283417207212     -0.89585134696263     -0.87818997160028
  H   -1.69690965707697     -1.12360955561174      0.79328524351438
  H   -0.91627941233006     -2.02391059883730     -0.50730737075685
