17
Coordinates from ORCA-job run
  C   0.83468250892673     -0.16149203583390      0.66345416561947
  C   -0.61786937456109      0.13704939025448      0.28743927896108
  F   0.84851754267873     -0.95123674084413      1.80453454190965
  H   -1.03843064205595      0.63381876666884      1.17002849373288
  N   1.51557628051014     -0.90049660985963     -0.35643615097778
  H   2.48824516606145     -1.03424186604136     -0.10592885723750
  H   1.47153220907207     -0.41819080846434     -1.24469351897723
  C   1.53347116399911      1.09796655961498      1.04589462792417
  N   2.09558987724700      2.10134679091556      1.28615536256116
  C   -1.38545641161112     -1.15865593139006      0.04008912460610
  H   -2.44554023410414     -0.93501744901113     -0.10356379604866
  H   -1.28927240395781     -1.83836717386133      0.88687986466628
  H   -1.01513253416858     -1.66977260447255     -0.84958332175059
  C   -0.71640576307632      1.09278991980800     -0.90002162842125
  H   -0.38963881271706      0.61330927692863     -1.82745329977414
  H   -1.75728137270763      1.38856954773276     -1.04713552210090
  H   -0.13158719953553      2.00362096785517     -0.75065936469277
