17
Coordinates from ORCA-job run
  C   0.85828395070993     -0.15225015175439      0.69892044315014
  C   -0.59136029205431      0.15734559893368      0.29895863876330
  F   0.78639249162689     -0.87089644700944      1.90575020573203
  H   -1.03087238794491      0.64363711851477      1.17672484985652
  N   1.58905820571275     -0.89144351414824     -0.25763377748332
  H   2.45316049907050     -0.48692319306906     -0.57449263415154
  H   1.04230316346953     -1.28697656591676     -1.00307367648083
  C   1.57907896414138      1.09598519341155      1.03013367713701
  N   2.13847750571739      2.10089837244541      1.26572542802219
  C   -1.36622971022572     -1.13338092888632      0.03387660849688
  H   -1.07478461584024     -1.60124423680419     -0.91162866687480
  H   -2.43263900296099     -0.90929679682198     -0.04103519328105
  H   -1.22238057528245     -1.85489154624312      0.83825017442409
  C   -0.66136568150087      1.11501898916776     -0.88577542912482
  H   -1.70443335961015      1.33641754716472     -1.12296554759745
  H   -0.20486298417596      0.67577652786777     -1.77666884988894
  H   -0.15782617085276      2.06122403314787     -0.67606625069938
