13
Coordinates from ORCA-job run
  C   -0.37482004050119     -0.19013549594265     -0.14984388735068
  C   1.09443513541082     -0.50554837561568      0.09270634556235
  Br  -0.85431497474414     -1.04856136597521     -1.91139194229231
  H   1.20273337872743     -1.59003236587386      0.18471567891617
  H   1.68605405752308     -0.18125724224953     -0.76253190064320
  N   -0.56429385148422      1.30232474114844     -0.42587612096125
  O   -1.68363898961942      1.74949388225887     -0.21715923206836
  O   0.40346257105797      1.91370289927113     -0.85711919554148
  N   -1.19027548615798     -0.52690100300567      0.92340558657774
  H   -2.14811659207998     -0.22694692623101      0.79907657696162
  H   -1.13035110378917     -1.50360449842470      1.17543215174177
  C   1.57800500646143      0.14631605460971      1.30903522340801
  N   1.98112088919536      0.66214969603017      2.28255071568962
