13
Coordinates from ORCA-job run
  C   -0.34289130336842     -0.23371745164123     -0.20812712578123
  C   0.73769273979111     -0.39727620289531      0.87426537969946
  Br  0.22831529306769     -1.08912487687953     -1.83468119840532
  H   0.88413392010995     -1.46561689667814      1.05183985681028
  H   0.35901386779030      0.06006512626181      1.79319497613403
  N   -0.50374278905921      1.28395642813343     -0.41408970285201
  O   -0.18646539589550      1.81044475663513     -1.46550705723996
  O   -0.95469554830585      1.84006462428481      0.58516715986350
  N   -1.64494004063839     -0.70737597056625      0.13810774203957
  H   -1.68525826549707     -1.71732283049528      0.12602461015182
  H   -1.92934017331321     -0.34304827498231      1.03968094130386
  C   2.00966473561185      0.22361209576289      0.51829840025059
  N   3.02851295970674      0.73433947306000      0.23782601802540
