13
Coordinates from ORCA-job run
  C   -0.28744051964641     -0.06964985516181     -0.26429231517894
  C   0.97738207980886      0.28753917675024      0.54510101465296
  Br  0.24460588935050     -0.87858927390638     -1.94422884704332
  H   1.66620682618107      0.87549284802979     -0.06469709756722
  H   0.66621540863223      0.89797107670662      1.40191101747253
  N   -0.92909924817194      1.30029752807675     -0.54996371277254
  O   -1.96311320615925      1.55204252528234      0.05736047864370
  O   -0.30490906210964      2.05875043785504     -1.27808543782833
  N   -1.25958828338104     -0.89304236825724      0.34955175176286
  H   -0.89404767786147     -1.81794266986408      0.53438065850285
  H   -1.63777400960361     -0.46991868502352      1.18745553427338
  C   1.62102268514945     -0.92453996798908      1.03448831197079
  N   2.10053911781124     -1.91841077249867      1.43401864311128
