15
Coordinates from ORCA-job run
  C   0.73537874515175      0.05529847950911     -0.10193150246350
  C   -0.63488242675948     -0.00768825802768     -0.04098852175471
  N   1.43591059266898      0.08881995586680     -1.37069957306188
  O   0.79167326501980      0.11333047628260     -2.43232292956376
  O   2.67041811040048      0.08624955781167     -1.32994748734489
  N   1.53434523861111      0.04480771023919      1.06048044654998
  H   2.08966027679971      0.89152660709509      1.11133620619355
  H   2.19165606210704     -0.72581828284339      1.02303618878327
  N   -1.47990624611463      0.07008644259217     -1.09963900094068
  H   -2.43123962793295     -0.21971914886172     -0.95332533016427
  H   -1.08467226482669     -0.01913556208080     -2.02217878965618
  C   -1.31723564928948     -0.08147530088537      1.29469583951116
  H   -1.95135350607282      0.79880261450619      1.43233361189870
  H   -0.58800246757827     -0.13157935313481      2.09668893225237
  H   -1.96175010218455     -0.96550593806905      1.33346190976086
