15
Coordinates from ORCA-job run
  C   0.79192780499478      0.08925954118552     -0.20168890041873
  C   -0.57075586212774     -0.03462862820227     -0.09553339217290
  N   1.43695647316956      0.24283570323571     -1.50611164904025
  O   0.71140457798793      0.31174816403656     -2.51372996652449
  O   2.65939761739233      0.31839359467116     -1.55281954916601
  N   1.68057563569170      0.01901428802488      0.87381186598160
  H   1.78727027145347      0.85633876121142      1.42384856893274
  H   1.61512408386538     -0.80895506877763      1.44202535120372
  N   -1.46479463862763     -0.13559112943955     -1.11609884813875
  H   -2.43029342276484      0.04300172814760     -0.90253655841936
  H   -1.12732470812601      0.11142499774152     -2.03329708940372
  C   -1.15795724202403     -0.21166328789065      1.27986474287833
  H   -1.03934688245036     -1.24634600689170      1.61445592535391
  H   -0.66589582943760      0.43156507630668      2.00759442689823
  H   -2.22628787899694      0.01460226664075      1.28021507203568
