15
Coordinates from ORCA-job run
  C   0.78769994457122      0.08919595052163     -0.17834758936883
  C   -0.52474529388006      0.11059778095740      0.18025087180660
  N   1.46943411726669     -1.14440438797306     -0.52606410006091
  O   2.48355752911965     -1.01975332777331     -1.21613300786483
  O   0.99787767856356     -2.22539519393347     -0.16375859349438
  N   1.61176073205655      1.20872964772634     -0.22484803230944
  H   1.33559365164912      1.96957811403473      0.37147239174351
  H   1.99781243973782      1.47343730104456     -1.11593585835062
  N   -1.11563225712022      1.35700798706263      0.40234311964035
  H   -0.74165790373712      2.09607285146280     -0.17752455720046
  H   -2.12312609909051      1.33643156552753      0.37517002526268
  C   -1.38012548678404     -1.08076719709291      0.50286405679805
  H   -1.38425847136780     -1.80503245347969     -0.31136244498250
  H   -1.00674788174358     -1.60530519285758      1.38271650294756
  H   -2.40644269924130     -0.76039344522760      0.69715721543322
