15
Coordinates from ORCA-job run
  C   0.73171652848016      0.04885623549556     -0.12878503774535
  C   -0.58815445581791     -0.04006869628314      0.23889760563088
  N   1.75059738382902      0.48016374927245      0.80752361013420
  O   1.44254643704059      0.73318337292042      1.98390556650873
  O   2.90329972112112      0.58091688525871      0.37520499641155
  N   1.16009833285078     -0.23259307107283     -1.44295345931766
  H   1.64522833090924      0.56943442860156     -1.82873296931237
  H   1.82924056363511     -0.99429133472386     -1.43750434639141
  N   -1.07603446360328      0.14153672517005      1.49162122397653
  H   -0.46428974147211      0.55410391386626      2.17773570824518
  H   -2.06748308546956      0.27758549357370      1.58598160218385
  C   -1.61646230663834     -0.45352746186219     -0.77448723183008
  H   -2.39074613846748      0.31658632056411     -0.85115094802606
  H   -1.15932982850501     -0.60324643108618     -1.74709345606240
  H   -2.09922727789234     -1.37964012969462     -0.45016286440560
