15
Coordinates from ORCA-job run
  C   0.76245873154851      0.06536283631331     -0.11258876113467
  C   -0.53879098974007     -0.05368317521803      0.29676958344515
  N   1.84316397328722      0.22575535114122      0.81031467447780
  O   1.61041162736675      0.22034823303153      2.03221606048141
  O   2.97985932596021      0.34483189508995      0.33490237050049
  N   1.15379808654783      0.23471482464973     -1.45585895809582
  H   0.52496595377050     -0.23014446609477     -2.09378092815187
  H   2.10257968615997     -0.08898843173567     -1.59011433259842
  N   -0.96927415919973     -0.16179710030821      1.59251114449387
  H   -1.92832509732233      0.08902949586234      1.76161712459328
  H   -0.29549900888814      0.08422236929701      2.30123594000990
  C   -1.60267456556891     -0.15743611731777     -0.76129462352365
  H   -1.66764896841822      0.76339018578676     -1.34830708412191
  H   -1.39803802282040     -0.98091904732879     -1.45155223831581
  H   -2.57798657268318     -0.35468685316860     -0.31406997205975
