15
Coordinates from ORCA-job run
  C   0.74180168892237     -0.00164300385512     -0.06378692816813
  C   -0.63086572065564     -0.02933719135054     -0.07631050239641
  N   1.50778477160642      0.10405986413933     -1.28960504066076
  O   2.73579948446251      0.17948011463846     -1.17904827716575
  O   0.92289383551838      0.12012329996933     -2.38532741369170
  N   1.47684600748512     -0.03088694870881      1.13960697088226
  H   2.08301151467496      0.77950002941095      1.19682457842873
  H   2.08469711926520     -0.84214900874150      1.15900378691785
  N   -1.41226670594335     -0.07695003037559     -1.18408737646901
  H   -0.97671729572956      0.10430627107263     -2.07435903896876
  H   -2.38768594046988      0.13789595214655     -1.07136130824311
  C   -1.38533225213958     -0.09799723216117      1.22021624906799
  H   -0.70378616170951     -0.06801453329822      2.06406159916911
  H   -2.08409276762167      0.74203911736313      1.28677288582209
  H   -1.97008757766578     -1.02142670024945      1.25639981547561
