15
Coordinates from ORCA-job run
  C   0.76899038613399     -0.12655203682332     -0.15088769375831
  C   -0.56468892204085      0.08946873731801     -0.05222657314936
  N   1.41980446115251     -0.04803818631176     -1.45545484137099
  O   2.53988189949451      0.47362461099055     -1.47258545764620
  O   0.85832040661397     -0.54196427419572     -2.42838236561608
  N   1.62936417132365     -0.46676192589539      0.89931735397131
  H   2.59624931611692     -0.33999811308201      0.63001908239074
  H   1.44547257495006      0.09910714390702      1.71650075090929
  N   -1.32558648300281      0.49052670680943     -1.18383006412033
  H   -2.13053085752038      1.02646700592591     -0.88553961858340
  H   -1.64133604799093     -0.29672724726540     -1.73553855375284
  C   -1.25143831728845     -0.06280754690416      1.27777527445607
  H   -1.63469959268279      0.90355481286212      1.62647983787872
  H   -0.59608398736663     -0.47037018093369      2.04749813346917
  H   -2.11271900789277     -0.72852950640159      1.16785473492220
