15
Coordinates from ORCA-job run
  C   0.73766839239745      0.11208304565421     -0.10869120918462
  C   -0.59663595010186      0.14105590679209      0.18733276135247
  N   1.39777758542912     -1.06464942261628     -0.63114664546840
  O   0.77501855499649     -2.12576688835087     -0.73228326298074
  O   2.58198235558006     -0.92510003984791     -0.96055188526475
  N   1.51742951829015      1.27752218555205      0.07247435429278
  H   2.19051582827087      1.14393972359816      0.81994330778236
  H   2.05488731585204      1.46332053706718     -0.76661589903630
  N   -1.09538049405634      1.28395525113243      0.75033186170087
  H   -0.47533427206001      2.07971627688555      0.68246229375984
  H   -2.07658362587184      1.46453396452617      0.61962086088923
  C   -1.57004849931975     -0.99050864938191      0.04126051729635
  H   -1.30657033742935     -1.81195581707718      0.70764291763506
  H   -1.55611027662003     -1.39765336976735     -0.96853343034351
  H   -2.57861609535701     -0.65049270416631      0.28575345756934
