15
Coordinates from ORCA-job run
  C   0.73165652725972      0.14735275703805     -0.10691347677213
  C   -0.60808260253194      0.12067747629813      0.16363498689630
  N   1.47457667427871     -1.03120428071414     -0.49683958779735
  O   0.92370328200007     -2.13605500500502     -0.49063595830648
  O   2.65231204445046     -0.84895206191528     -0.82866666527553
  N   1.43324710578326      1.37297327233163     -0.03443240845855
  H   2.09727923394000      1.35891040166342      0.73274743358619
  H   1.97617842332258      1.50663998320507     -0.87991349844509
  N   -1.18954382946592      1.28007390126399      0.59814922509310
  H   -2.17731498309750      1.38333505058048      0.43709075056401
  H   -0.61886533362940      2.10336529563880      0.46128015064262
  C   -1.50577754749459     -1.07988731832318      0.11656466753305
  H   -2.53972273088176     -0.78192048925487      0.30304840514341
  H   -1.43945745905804     -1.58686479785683     -0.84479159499220
  H   -1.21018880487564     -1.80944418495025      0.87067757058865
