15
Coordinates from ORCA-job run
  C   0.79900217672200      0.10501814143577     -0.17602583673494
  C   -0.52730170265950      0.09984494968560      0.13775059672584
  N   1.54889641776527     -1.09277255714990     -0.53796246243560
  O   2.74279988316624     -0.93276286375301     -0.81126424546871
  O   0.98358617179062     -2.18563978503536     -0.54022200998496
  N   1.56265502169864      1.26102545344110     -0.15185621777221
  H   2.38234602775079      1.19291014141075     -0.73667292079714
  H   0.97230408577500      2.06117488979434     -0.34516925447173
  N   -1.03181425508974      1.41684295040656      0.37492865658684
  H   -0.75007727129230      1.77564547233560      1.28202894129426
  H   -2.04122694657463      1.43107769833359      0.31823282764351
  C   -1.46997857001177     -1.06256096207436      0.27290994897029
  H   -2.30551048702140     -0.76304159481988      0.90972575969472
  H   -0.98660319143162     -1.93572179060600      0.69987078720212
  H   -1.88007736058760     -1.36904014340481     -0.69627457045229
