15
Coordinates from ORCA-job run
  C   0.72481935049111      0.10055515938492     -0.14662912504123
  C   -0.56497387000100      0.00059416526767      0.30624238542206
  N   1.80262853901589      0.50296580224653      0.70492365740377
  O   2.95295393413298      0.44192699909723      0.24410432807688
  O   1.55808227690826      0.85034343652882      1.87420707477585
  N   1.09606222424606     -0.35231165925098     -1.43281552839858
  H   2.10434834485145     -0.29176756661463     -1.50683786355712
  H   0.67861982616551      0.22268349860446     -2.15549060400459
  N   -1.04454804670925      0.47814415139264      1.49288418469993
  H   -1.91644826818488      0.08361826526904      1.80371767512976
  H   -0.35462457480683      0.69107464808401      2.19803919685316
  C   -1.56803142257690     -0.57221890049416     -0.65304996066641
  H   -2.52708692194878     -0.75844883322897     -0.16575834072019
  H   -1.75856981192836      0.10783066768349     -1.49001095578335
  H   -1.18523157965527     -1.50398983397006     -1.07352612418993
