15
Coordinates from ORCA-job run
  C   0.73270416388355      0.14545072994373     -0.10350287344351
  C   -0.60788116123274      0.12149402202505      0.16368020546681
  N   1.47111495325306     -1.03210456563411     -0.50437788237387
  O   2.65045454726209     -0.85169027042681     -0.83175823550756
  O   0.91475554234128     -2.13418717087481     -0.51293904686246
  N   1.43948591603775      1.36724298211210     -0.01658459122041
  H   1.98698072004904      1.50562843295244     -0.85836262944052
  H   2.09962148570818      1.34308774961257      0.75373808184649
  N   -1.18538844562591      1.27911291838050      0.60779356925777
  H   -2.17263400991923      1.38779013997155      0.44705486924445
  H   -0.61117652413845      2.10141317141067      0.48009749453804
  C   -1.51014583506741     -1.07499671666539      0.10234395329739
  H   -1.21956028101186     -1.81404097321439      0.84902290698999
  H   -2.54317190918068     -0.77409791288481      0.28949915416961
  H   -1.44415916235867     -1.57110253670829     -0.86470497596221
