15
Coordinates from ORCA-job run
  C   0.72461897364294      0.13394587608697     -0.16059234411665
  C   -0.60682473029109      0.14213013348142      0.14980771911672
  N   1.48861660765588     -1.08647352364464     -0.29904243576920
  O   0.96614221668953     -2.17326733093236     -0.03422253100139
  O   2.65407597865832     -0.95883171582334     -0.69383020650081
  N   1.39511630450483      1.35861883481432     -0.38377597188430
  H   1.91550913586410      1.31130702022416     -1.25235007569714
  H   2.07583686591751      1.53179214486336      0.34856186144652
  N   -1.20744638859402      1.35752351721469      0.32890189723847
  H   -2.20226686144370      1.40167022625998      0.18636339308510
  H   -0.66244636414624      2.14054358076112     -0.00556335737023
  C   -1.47301646171015     -1.05619271926582      0.40127950505653
  H   -2.50876645204139     -0.74444104559154      0.55171447382966
  H   -1.13639875333896     -1.59448680421555      1.28734158309602
  H   -1.42075007136758     -1.76283819423278     -0.42559351052932
