15
Coordinates from ORCA-job run
  C   0.72035248649786      0.15684158678189     -0.15883836863961
  C   -0.61228939246642      0.12300673320121      0.14496830304031
  N   1.52696612614898     -1.03808662549114     -0.27511288970749
  O   2.68844622735716     -0.87631919490793     -0.66889554336519
  O   1.04212480737111     -2.13788907925143      0.00686570471255
  N   1.34894043123831      1.40072465819981     -0.39797959689559
  H   1.87485426452698      1.35735644277834     -1.26343916648600
  H   2.02008469747681      1.60800910709482      0.33435569914702
  N   -1.25552244542875      1.31922335109902      0.30453285874899
  H   -2.25029463902805      1.32737987682063      0.15485204815893
  H   -0.73630937910290      2.11593379711298     -0.03857572582517
  C   -1.43777659140600     -1.10088081630102      0.40951438422798
  H   -1.35355078581434     -1.81908432027242     -0.40458469270751
  H   -1.08987692052808     -1.61142666662522      1.30760101941822
  H   -2.48514888684267     -0.82378885023953      0.54673596617255
