15
Coordinates from ORCA-job run
  C   0.73438326811237     -0.05892155362983     -0.10114594791282
  C   -0.63257403343895      0.05688079125182     -0.04527700575081
  N   1.46680084928441      0.20410628861971     -1.32490799125523
  O   2.69756434701902      0.11451726921883     -1.27230209165522
  O   0.85155418357234      0.50629747908800     -2.36051180535328
  N   1.50077784710293     -0.41125432982730      1.02924009959704
  H   2.00614246380969     -1.27278131067481      0.85533477273655
  H   2.20165157295367      0.29900789846726      1.20698534776459
  N   -1.44984505158633      0.31661031552286     -1.09523511286571
  H   -1.02974731509966      0.62455609416997     -1.95733301291714
  H   -2.39387114911779      0.59406290147716     -0.89137636935253
  C   -1.34569199908719     -0.19616885666436      1.25212414060479
  H   -1.97450164557566      0.66357488714234      1.50384506320041
  H   -0.63468276361355     -0.37413477599909      2.05227176186608
  H   -1.99896057433531     -1.06735309816255      1.14928815129329
