15
Coordinates from ORCA-job run
  C   0.71916743049748      0.15700352396933     -0.17619055559519
  C   -0.61352843591871      0.11331078409392      0.11906594177922
  N   1.57144601146620     -1.00664498924222     -0.13015042671109
  O   1.07214174056620     -2.12663794842976      0.01335237072207
  O   2.78179530165528     -0.81076775682068     -0.30029793590900
  N   1.32391717726501      1.39723076930782     -0.47488910124912
  H   2.28845229806335      1.37809825045446     -0.17027559968322
  H   1.32692422944928      1.56484349840702     -1.47547168497781
  N   -1.31074326671812      1.29509452735749      0.03604934580693
  H   -0.71492699910898      2.11261754516950      0.08291412474920
  H   -2.14896452341896      1.34218096391821      0.59345256195973
  C   -1.42166065518703     -1.11248172558135      0.41861685576832
  H   -1.03002736396510     -1.64662364731428      1.28379722787777
  H   -1.38109606338844     -1.81625172543412     -0.41313108251903
  H   -2.46489688125745     -0.83997206985535      0.59215795798119
