15
Coordinates from ORCA-job run
  C   0.72105181399799      0.15488498763418     -0.15695583725013
  C   -0.62509079357971      0.11903658933931      0.07877453527521
  N   1.54869215166203     -1.03154971056710     -0.14962940422588
  O   2.76703070063526     -0.84790370876992     -0.26021527521704
  O   1.02772822587262     -2.14452133528308     -0.03055649270940
  N   1.35415805092145      1.39690622661272     -0.39423310659719
  H   2.17024953680057      1.48396027346880      0.20062278355032
  H   1.68962551968660      1.44942398839741     -1.35046357989524
  N   -1.31827060627431      1.29316392814772     -0.03016755064039
  H   -2.17930052706160      1.36436898201785      0.48537892794026
  H   -0.73224272886834      2.11673532227177     -0.05274031722188
  C   -1.45017765967543     -1.10019514727408      0.36509840041874
  H   -1.04024085371031     -1.66909212453753      1.19817420043995
  H   -1.45397056186245     -1.77150509516837     -0.49373105708181
  H   -2.47924226854438     -0.81171317628969      0.58964377321448
