15
Coordinates from ORCA-job run
  C   0.71457535163349      0.15949294058033     -0.17969354495040
  C   -0.60051612982415      0.11876429464722      0.19092614907481
  N   1.48620697130627     -1.03220255114586     -0.45817590316602
  O   0.99208814731265     -2.14582450275942     -0.25835023508253
  O   2.62765822818149     -0.85305527023090     -0.90047285520872
  N   1.35802096360941      1.40938999175466     -0.33147521356762
  H   2.06917744005137      1.53449936789666      0.38148906729555
  H   1.83804446310600      1.44099742876829     -1.22369175640239
  N   -1.20806281920257      1.30479570054293      0.50182989434170
  H   -0.68977774551843      2.12123010896117      0.20627318879044
  H   -2.20824138030068      1.34378675581967      0.39828951901674
  C   -1.43884964970523     -1.11071635543331      0.37837381819011
  H   -2.47102925298323     -0.83012457152096      0.59863780819776
  H   -1.05668072241239     -1.71422777026569      1.20184613939274
  H   -1.41361386525400     -1.74580556761478     -0.50580607592218
