15
Coordinates from ORCA-job run
  C   0.72256898869887      0.15485809054865     -0.14892879040132
  C   -0.61940777218269      0.12437901075723      0.11019297774595
  N   1.50990534017464     -1.04352735616756     -0.34011756471284
  O   0.95428780980293     -2.14538595102517     -0.37823503941098
  O   2.73148389850525     -0.88223532946312     -0.44999667431222
  N   1.39246327860480      1.39863202181395     -0.20996592962188
  H   1.71248713727961      1.58562373232172     -1.15457429244189
  H   2.22149273398072      1.36985674837694      0.37254225803750
  N   -1.27460021341751      1.32179904874957      0.19743540661567
  H   -0.66186873858470      2.12114264906952      0.28571115244627
  H   -2.12337412626162      1.33967236598830      0.73727440801101
  C   -1.47929722818669     -1.09872690190125      0.22799551680601
  H   -1.52067387552817     -1.63167595710264     -0.72201142085389
  H   -1.07339208916066     -1.79950263251313      0.95593054679668
  H   -2.49407514372478     -0.81690953945301      0.51674744529592
