15
Coordinates from ORCA-job run
  C   0.70200245923151      0.15591329484247     -0.22656485796354
  C   -0.58843330033786      0.12078560199542      0.22392614456453
  N   1.44966420985902     -1.03838977152667     -0.55381572744232
  O   0.96051338789050     -2.15048164514382     -0.33429262124591
  O   2.57067555572535     -0.86232325884381     -1.04644252556545
  N   1.34553687493762      1.40321504785332     -0.39938072630279
  H   2.10431266977157      1.50843678842289      0.26614485912988
  H   1.76596009528758      1.44664862151577     -1.32072434283265
  N   -1.16565147860776      1.30692775826525      0.58390159554858
  H   -0.65664023627985      2.12389521959561      0.27510463256832
  H   -2.16981543899804      1.35632895097829      0.55119621647816
  C   -1.42430286714999     -1.10379625320761      0.44844623989814
  H   -1.00107554669700     -1.71683799982375      1.24451461314196
  H   -2.44046056527357     -0.81781264245618      0.72800121648164
  H   -1.45228581935909     -1.73250971246716     -0.44001471645856
