15
Coordinates from ORCA-job run
  C   0.71310109287606      0.16049068760977     -0.18413331702589
  C   -0.60387065420373      0.11908526523419      0.18009843307034
  N   1.50434576138939     -1.03182082769940     -0.39604340220759
  O   2.64739381006751     -0.85759209127359     -0.83587077707953
  O   1.02418979004051     -2.14144954255742     -0.14604922182246
  N   1.33983156059059      1.41116918827565     -0.39116585912597
  H   1.82425200097933      1.40787779467393     -1.28153123993605
  H   2.04568522898651      1.57827230437285      0.31841888872114
  N   -1.22977100956423      1.30985953865966      0.42944801123455
  H   -2.22960511284782      1.33029200719258      0.31831425945058
  H   -0.71993068082968      2.11813030377415      0.09899913516002
  C   -1.42593370974517     -1.11178625978070      0.42165849235233
  H   -1.38322091235988     -1.79023922930822     -0.42891743782824
  H   -1.04244119373832     -1.66719303638976      1.27773645732717
  H   -2.46402597164107     -0.83609610278369      0.61903757770961
