15
Coordinates from ORCA-job run
  C   0.72000572957646      0.15189613299245     -0.17458798831933
  C   -0.61409921019889      0.12232084554321      0.11829462703625
  N   1.53355427581168     -1.04448231460194     -0.25052852053273
  O   1.00206126264013     -2.15501863829398     -0.15620946657982
  O   2.74825184765261     -0.87094930412471     -0.40285835227869
  N   1.35121936976474      1.39285189510249     -0.40994473856259
  H   1.97842517383274      1.31809764271574     -1.20166059691420
  H   1.91719704864139      1.67534948264279      0.38342566349350
  N   -1.27511286246607      1.31880487032034      0.20057527262233
  H   -0.76181316565308      2.09195298779518     -0.20281774187493
  H   -2.26282603003959      1.29555354024470      0.00627533912006
  C   -1.42897582915324     -1.09026235671284      0.46075726034258
  H   -1.65428153802080     -1.66984738532767     -0.43705479577172
  H   -0.89024402407928     -1.75657925376393      1.12903578993283
  H   -2.36236204830877     -0.78168814453183      0.93629824828646
