15
Coordinates from ORCA-job run
  C   0.72223559459818      0.15997317857062     -0.14643470855398
  C   -0.61578999726645      0.12011731345489      0.13193398590593
  N   1.53989341663649     -1.02997853969740     -0.23033328397412
  O   1.05937468321797     -2.12828217863670      0.06504731025529
  O   2.70511199472384     -0.86610270693220     -0.61205507805560
  N   1.34482750225075      1.40506891814493     -0.39624865946175
  H   2.00096993571909      1.63057729273085      0.34431443792684
  H   1.88710236443654      1.35024141426922     -1.25093955775575
  N   -1.27134870709401      1.31328211794354      0.25769938924132
  H   -2.26388744563778      1.31144488478455      0.09433190311059
  H   -0.75254970299859      2.10920738470329     -0.08759682438935
  C   -1.43637889346320     -1.10591149205928      0.40139086339606
  H   -1.10456857865898     -1.59585952978604      1.31694768213813
  H   -2.48903834250220     -0.83601311630969      0.50936533990373
  H   -1.32695382396166     -1.83876494118056     -0.39642279968734
