15
Coordinates from ORCA-job run
  C   0.73175487099902      0.11453953488694     -0.25178350541203
  C   -0.53597605153888      0.08152702903533      0.23364895107755
  N   1.46317485943463     -1.06882466343233     -0.64856273743102
  O   0.85318162131202     -2.12089378155822     -0.84367050875691
  O   2.67805646054938     -0.92877464933690     -0.83377017719814
  N   1.40860915599791      1.32054814571042     -0.52811028956273
  H   1.22682039552770      1.97815818765878      0.22308482409594
  H   2.40314107157171      1.14755172030077     -0.59893088167625
  N   -1.18077315615700      1.30205874656285      0.32863766503230
  H   -0.91583980323754      2.06558801473179     -0.26855960787811
  H   -1.87802643598980      1.47731232540967      1.02730795619648
  C   -1.38861954185196     -1.11975065227172      0.50037204152268
  H   -2.16912275365031     -0.85839892099492      1.21933319981353
  H   -0.81743281012719     -1.96688189989009      0.87083451403853
  H   -1.87794788283968     -1.42375913681236     -0.42983144386183
