15

C	0.0	0.0	0.0
C	-0.525891	0.154383	-1.409524
F	1.366703	0.0	0.0
H	-1.571617	0.460262	-1.32151
H	-0.544453	-0.850966	-1.841847
N	-0.353777	1.183354	0.908566
O	-0.617586	2.249698	0.370884
O	-0.221819	0.985404	2.111329
C	-0.431299	-1.236821	0.666086
N	-0.578192	-2.299837	1.143261
C	0.308471	1.084669	-2.284842
H	1.322805	0.707773	-2.429406
H	-0.167131	1.160737	-3.265444
H	0.362525	2.085828	-1.86049
Br	-3.643342	0.0	0.0
