15

C	0.0	0.0	0.0
C	-0.545866	0.362988	-1.351727
F	1.358985	0.0	0.0
H	-0.227213	1.387828	-1.550229
H	-0.027874	-0.292055	-2.060187
N	-0.361392	1.039208	1.078657
O	-0.186807	0.67482	2.236534
O	-0.678367	2.159285	0.700227
C	-0.437936	-1.318929	0.483217
N	-0.689107	-2.415853	0.820568
C	-2.060356	0.212348	-1.455192
H	-2.609088	0.791303	-0.713501
H	-2.385347	-0.820252	-1.335472
H	-2.391082	0.558631	-2.435778
Br	-5.251945	0.0	0.0
