15

C	0.0	0.0	0.0
C	-0.525261	0.379954	-1.358595
F	1.359008	0.0	0.0
H	-0.16971	1.395334	-1.552276
H	-0.008744	-0.288726	-2.055505
N	-0.371756	1.022158	1.088793
O	-0.774751	2.117888	0.723534
O	-0.134547	0.6706	2.239869
C	-0.443248	-1.323542	0.463314
N	-0.700545	-2.41391	0.816113
C	-2.036556	0.269662	-1.495968
H	-2.323565	0.550589	-2.512497
H	-2.40535	-0.740547	-1.314925
H	-2.585484	0.912485	-0.812335
Br	-5.182742	0.0	0.0
