15

C	0.0	0.0	0.0
C	-0.544677	0.030748	-1.402136
F	1.358978	0.0	0.0
H	-0.081319	-0.822425	-1.910399
H	-0.161114	0.942823	-1.866076
N	-0.364185	1.2667	0.791501
O	-0.533679	2.290679	0.142962
O	-0.342751	1.165776	2.013023
C	-0.447179	-1.168227	0.771773
N	-0.739693	-2.169778	1.310483
C	-2.065117	-0.046302	-1.453948
H	-2.554689	0.774889	-0.934154
H	-2.456441	-0.956702	-1.001019
H	-2.409164	-0.022235	-2.488488
Br	-5.274692	0.0	0.0
