14

C	0.0	0.0	0.0
C	-0.376339	-0.240846	-1.490242
F	1.41148	0.0	0.0
H	0.5261	-0.065007	-2.084728
H	-0.745936	-1.249398	-1.644688
N	-0.438186	1.169556	0.669543
H	-0.240955	1.95893	0.066429
H	-1.473853	0.998982	0.643199
C	-0.390446	-1.194639	0.783608
N	-0.499445	-2.184385	1.405471
N	-1.399883	0.651473	-2.098431
O	-1.255462	1.864582	-1.952418
O	-2.219174	0.130949	-2.845237
F	-2.528761	0.0	0.0
