14

C	0.0	0.0	0.0
C	-0.519068	-0.250725	-1.413115
F	1.411628	0.0	0.0
H	-0.235623	-1.229173	-1.797872
H	-1.628461	-0.174267	-1.25161
N	-0.494101	1.146576	0.684977
H	-0.295111	1.944432	0.091754
H	-1.522137	0.96118	0.642943
C	-0.374393	-1.208755	0.782913
N	-0.561988	-2.171634	1.428393
N	-0.085328	0.738424	-2.420037
O	-0.15996	0.392222	-3.601232
O	0.265948	1.864032	-2.053369
F	-2.740342	0.0	0.0
