14

C	0.0	0.0	0.0
C	-0.522494	-0.261789	-1.397178
F	1.394845	0.0	0.0
H	-0.313877	0.608117	-2.014865
H	-1.614935	-0.403813	-1.247673
N	-0.525019	1.265597	0.39603
H	-1.559478	1.063507	0.323743
H	-0.30709	1.399803	1.379087
C	-0.349767	-1.081942	0.967269
N	-0.520067	-1.839329	1.848514
N	0.100791	-1.420721	-2.06453
O	0.296858	-1.32619	-3.27846
O	0.351865	-2.422978	-1.397858
F	-2.75457	0.0	0.0
