14

C	0.0	0.0	0.0
C	-0.35573	-0.499684	-1.42781
F	1.398715	0.0	0.0
H	-0.623616	-1.552224	-1.427053
H	0.531444	-0.326712	-2.047032
N	-0.430124	1.284316	0.427513
H	-1.46495	1.128707	0.420485
H	-0.214082	1.936353	-0.317398
C	-0.409	-1.017126	0.994164
N	-0.506095	-1.878988	1.785259
N	-1.441637	0.19572	-2.16673
O	-1.376041	1.42009	-2.25142
O	-2.220692	-0.505845	-2.800628
F	-2.51413	0.0	0.0
