14

C	0.0	0.0	0.0
C	-0.502268	0.253087	-1.419142
F	1.388463	0.0	0.0
H	-1.599799	0.268123	-1.319632
H	-0.108028	-0.50892	-2.089488
N	-0.524298	0.970888	0.88518
H	-1.561681	0.835643	0.725267
H	-0.298035	0.696488	1.835171
C	-0.361893	-1.410168	0.344221
N	-0.526059	-2.535343	0.63828
N	0.015484	1.551333	-1.91456
O	1.104912	1.541747	-2.495587
O	-0.668252	2.556046	-1.731291
F	-2.750997	0.0	0.0
