14

C	0.0	0.0	0.0
C	-0.491285	0.066918	-1.478627
Cl	1.781875	0.0	0.0
H	0.396751	0.097263	-2.117363
H	-0.336942	0.890806	0.521588
C	-0.430036	-1.181267	0.747371
N	-0.663693	-2.104118	1.434266
N	-1.190505	1.34525	-1.61144
H	-2.034835	1.16032	-1.038475
H	-1.481358	1.431563	-2.581914
N	-1.225807	-1.150379	-1.794521
H	-2.070576	-1.045548	-1.205827
H	-1.505346	-1.091551	-2.769365
F	-2.737117	0.0	0.0
