14

C	0.0	0.0	0.0
C	-0.541433	0.140121	-1.494143
Cl	1.785226	0.0	0.0
H	-1.281058	0.936634	-1.41813
H	-0.328519	0.86358	0.571135
C	-0.43729	-1.204399	0.699496
N	-0.595802	-2.182656	1.329669
N	-1.149656	-1.121782	-1.862211
H	-1.973277	-1.105593	-1.237925
H	-1.480839	-1.00045	-2.814992
N	0.426816	0.487457	-2.515884
H	1.130148	-0.241775	-2.561166
H	0.896479	1.353939	-2.282268
F	-2.565538	0.0	0.0
