14

C	0.0	0.0	0.0
C	-0.495163	-0.166394	-1.469634
Cl	1.779433	0.0	0.0
H	0.390655	-0.240854	-2.108045
H	-0.332485	0.965097	0.371323
C	-0.43465	-1.046209	0.924701
N	-0.613859	-1.879975	1.73172
N	-1.185723	1.080318	-1.799541
H	-1.484634	1.016236	-2.768742
H	-2.029375	0.99725	-1.203184
N	-1.238413	-1.411263	-1.590259
H	-2.082793	-1.211875	-1.025147
H	-1.515985	-1.50558	-2.56231
F	-2.75245	0.0	0.0
