14

C	0.0	0.0	0.0
C	-0.494856	0.163807	-1.4721
Cl	1.781605	0.0	0.0
H	-1.555587	0.388469	-1.30534
H	-0.359941	0.849175	0.574714
C	-0.470992	-1.230476	0.627603
N	-0.645302	-2.274198	1.139267
N	-0.255764	-1.090859	-2.18112
H	-0.930656	-1.760105	-1.820407
H	-0.511949	-0.910714	-3.146038
N	0.15271	1.221385	-2.223932
H	1.160406	1.125458	-2.160605
H	-0.107876	2.116064	-1.827246
F	-2.592402	0.0	0.0
