13

C	-0.276765	0.060481	-1.501681
C	0.0	0.0	0.0
F	-0.15408	-1.252747	-2.016883
H	1.094649	0.0	0.0
H	-0.321007	0.932833	0.46978
C	-1.663811	0.459421	-1.852657
N	-2.760023	0.79148	-2.111442
N	0.65589	0.960026	-2.051561
H	0.66415	0.915496	-3.062566
H	1.585704	0.763128	-1.65213
C	-0.594516	-1.140305	0.663905
N	-1.069626	-2.053104	1.230563
H	2.762347	0.0	0.0
