13

C	-0.536404	0.012076	-1.42904
C	0.0	0.0	0.0
F	-0.076417	1.155786	-2.045891
H	1.092844	0.0	0.0
H	-0.309244	-0.931674	0.487074
C	-0.02395	-1.168532	-2.166371
N	0.288882	-2.138801	-2.747095
N	-1.977402	0.01852	-1.596915
H	-2.351532	-0.874621	-1.298513
H	-2.357076	0.738473	-0.988378
C	-0.549045	1.127579	0.731051
N	-1.01414	2.045914	1.299524
H	2.717352	0.0	0.0
