13

C	-0.551039	0.062629	-1.409985
C	0.0	0.0	0.0
F	-1.962777	0.298786	-1.334603
H	1.092062	0.0	0.0
H	-0.319445	0.900755	0.531548
C	-0.0352	1.247573	-2.132529
N	0.361483	2.175456	-2.730971
N	-0.269571	-1.099831	-2.155854
H	-0.462787	-1.936096	-1.619697
H	-0.780475	-1.105281	-3.028696
C	-0.528256	-1.169127	0.681629
N	-0.941852	-2.13454	1.210381
H	2.709405	0.0	0.0
