13

C	-0.518349	-0.080708	-1.426535
C	0.0	0.0	0.0
F	-0.031098	1.025958	-2.135855
H	1.091968	0.0	0.0
H	-0.323952	-0.892611	0.543071
C	0.003055	-1.282595	-2.119224
N	0.323683	-2.240939	-2.715667
N	-1.945025	-0.132724	-1.486875
H	-2.323161	0.660844	-0.98097
H	-2.249974	-0.084161	-2.452799
C	-0.538852	1.183348	0.646085
N	-0.993966	2.140024	1.1563
H	2.72271	0.0	0.0
