13

C	-0.300911	-0.129731	-1.49936
C	0.0	0.0	0.0
F	-0.160401	-1.483422	-1.797037
H	1.092958	0.0	0.0
H	-0.402107	-0.842313	0.565633
C	-1.696218	0.228976	-1.857087
N	-2.793598	0.527366	-2.148215
N	0.61156	0.609366	-2.313197
H	0.300634	1.565728	-2.428777
H	1.527039	0.597336	-1.84617
C	-0.470664	1.267012	0.525583
N	-0.820508	2.309304	0.94212
H	2.752282	0.0	0.0
