13

C	-0.272418	-0.040442	-1.49696
C	0.0	0.0	0.0
F	-1.597185	-0.388559	-1.761687
H	1.089998	0.0	0.0
H	-0.315319	-0.961866	0.413786
C	-0.060264	1.288562	-2.112684
N	0.083342	2.346232	-2.601198
N	0.585082	-0.995166	-2.160708
H	0.36493	-1.90541	-1.761071
H	1.537996	-0.779582	-1.834223
C	-0.611891	1.088958	0.732837
N	-1.088028	1.967454	1.353568
H	2.719613	0.0	0.0
