13

C	-0.540866	-0.043994	-1.427418
C	0.0	0.0	0.0
F	-0.054878	1.061048	-2.0981
H	1.093791	0.0	0.0
H	-0.31068	-0.909471	0.527211
C	-0.052647	-1.267722	-2.10806
N	0.283041	-2.268106	-2.621493
N	-1.980969	-0.010145	-1.59345
H	-2.376604	-0.882366	-1.265362
H	-2.343254	0.73848	-1.011223
C	-0.546648	1.157756	0.683066
N	-1.016089	2.09581	1.214286
H	2.717701	0.0	0.0
