18

C	0.0	0.0	0.0
C	-0.431843	0.053285	-1.484844
Cl	1.780095	0.0	0.0
H	0.323839	0.664316	-1.993964
N	-0.388776	1.300415	0.683234
O	-0.382354	2.304501	-0.020743
O	-0.57473	1.284074	1.892093
C	-0.416464	-1.192245	0.833623
H	0.004679	-2.098319	0.395098
H	-0.014078	-1.076354	1.839748
H	-1.508035	-1.186114	0.830087
C	-1.713071	0.701197	-1.828821
N	-2.424415	1.252566	-2.59261
C	-0.422182	-1.349409	-2.095792
H	-0.592732	-1.271923	-3.170652
H	0.535303	-1.850772	-1.929351
H	-1.231168	-1.933202	-1.654682
F	-2.559179	0.0	0.0
