18

C	0.0	0.0	0.0
C	-0.480395	0.241821	-1.459822
Cl	1.780017	0.0	0.0
H	0.379692	0.653806	-2.000692
N	-0.347435	1.20689	0.871368
O	-0.213628	2.306711	0.345279
O	-0.624414	1.010937	2.045128
C	-0.435227	-1.271224	0.69245
H	0.018505	-1.308809	1.682727
H	-1.526613	-1.206729	0.738363
H	-0.087981	-2.130087	0.117326
C	-1.544429	1.235941	-1.661555
N	-2.19673	2.096556	-2.12926
C	-0.922528	-1.06277	-2.12788
H	-1.163238	-0.862945	-3.174957
H	-0.142358	-1.826924	-2.093852
H	-1.819977	-1.377403	-1.598638
F	-2.61077	0.0	0.0
