18

C	0.0	0.0	0.0
C	-0.65804	0.09348	-1.372738
Cl	1.779066	0.0	0.0
H	-1.773264	0.037388	-1.012714
N	-0.373204	1.233894	0.838206
O	-0.800843	1.056519	1.96862
O	-0.140165	2.332624	0.341591
C	-0.467354	-1.239445	0.736254
H	-0.040565	-1.270298	1.737135
H	-1.559073	-1.163975	0.759723
H	-0.138802	-2.118447	0.180303
C	-0.318327	-1.10438	-2.120449
N	-0.057516	-2.052411	-2.767038
C	-0.396637	1.328408	-2.236236
H	-0.933959	2.186285	-1.839493
H	0.666802	1.575272	-2.29532
H	-0.762624	1.128654	-3.246274
F	-2.871621	0.0	0.0
