18

C	0.0	0.0	0.0
C	-0.632968	0.03948	-1.388459
Cl	1.795503	0.0	0.0
H	-1.747565	0.015839	-1.050343
N	-0.381476	1.253067	0.794893
O	-0.69551	1.112858	1.968531
O	-0.274274	2.333569	0.223041
C	-0.461504	-1.219611	0.771914
H	-0.122726	-2.114191	0.24779
H	-0.043426	-1.212692	1.776648
H	-1.554638	-1.146337	0.782033
C	-0.313663	-1.205729	-2.069247
N	-0.08891	-2.189984	-2.673589
C	-0.321771	1.213965	-2.319671
H	-0.641833	0.951347	-3.331196
H	-0.863113	2.101588	-2.004536
H	0.747031	1.444361	-2.345639
F	-2.848581	0.0	0.0
