14

C	-0.446996	-0.001956	-1.422086
C	0.0	0.0	0.0
Br	-2.424493	0.020465	-1.647601
H	1.092079	0.0	0.0
H	-0.323435	0.895412	0.521265
N	0.001323	1.337669	-2.053399
O	-0.107806	2.330531	-1.349916
O	0.38145	1.306057	-3.21379
C	0.073541	-1.082653	-2.244907
N	0.504529	-1.926012	-2.941963
N	-0.435534	-1.152706	0.740043
O	-0.621506	-2.219532	0.131054
O	-0.474091	-1.035271	1.972283
H	2.447438	0.0	0.0
