14

C	-0.54529	0.011873	-1.37904
C	0.0	0.0	0.0
Br	-2.545186	0.02122	-1.512189
H	1.089251	0.0	0.0
H	-0.245229	-0.937924	0.498114
N	-0.022557	1.198532	-2.219647
O	0.887188	1.843195	-1.725207
O	-0.500047	1.322066	-3.3409
C	-0.114867	-1.190088	-2.083771
N	0.23723	-2.16263	-2.643163
N	-0.481967	1.07742	0.833894
O	-0.307062	0.936985	2.052299
O	-0.956445	2.091804	0.304048
H	2.425457	0.0	0.0
