18
Coordinates from ORCA-job run
  C   -0.80385849751764     -0.25855697227628      0.38514326691321
  C   0.73413647929512     -0.13746286452050      0.47960014533319
  Cl  -1.44976097304349     -0.50004762098885      2.02457638036347
  H   1.05625563298198     -1.01251813796380      1.05373489229666
  C   -1.49998042275645      0.91308543287048     -0.25665438037034
  H   -1.14163547120891      1.07179908364910     -1.27317040041962
  H   -2.57526102635171      0.74076731276638     -0.29268997659722
  H   -1.28911871592026      1.79304551586095      0.34864672570557
  N   -1.07176689336392     -1.54206496007209     -0.39162470884999
  O   -1.56755699883971     -1.42921153399212     -1.51069526019270
  O   -0.68412097485605     -2.58958502927959      0.11431298068332
  N   1.04402881594105      1.09837142776848      1.18347155810554
  H   1.66756001167085      1.68404063440154      0.64684941162984
  H   1.45056546047794      0.92299524255424      2.08982546734801
  C   1.39519849722143     -0.18362699636803     -0.89340278137824
  H   1.16443616748693     -1.09885502499811     -1.43990410024860
  H   1.09323094979319      0.66876462813246     -1.50723167455184
  H   2.47864795898963     -0.14194013754426     -0.76078754577026
