18
Coordinates from ORCA-job run
  C   -0.76157746065644     -0.32333860590862      0.31513697718548
  C   0.70630493914411      0.13616985981049      0.45937180356351
  Cl  -1.04794483990413     -1.68872569263981      1.40917281610823
  H   0.86137512573276      0.19622572132081      1.54157531003412
  C   -1.78370582452547      0.76015114047564      0.58284995372009
  H   -1.64434426007723      1.58223473572347     -0.11334680922274
  H   -1.63874991033395      1.13476127799804      1.59684330419114
  H   -2.79143266913268      0.34901349014809      0.49672187424479
  N   -0.93906819070358     -0.80359117135603     -1.12658442034101
  O   -0.82176060725061      0.09336924030947     -1.96180344858239
  O   -1.12835239046708     -1.98471657189872     -1.37319894336147
  N   0.86156946304454      1.49156308614596     -0.05608545559123
  H   1.75737201099351      1.85560686922666      0.24592369983354
  H   0.85515841450427      1.47794511621247     -1.06949753397415
  C   1.68479390313997     -0.88467944415419     -0.12344862126459
  H   2.70530257445414     -0.59312034600624      0.13538564213562
  H   1.51189337425033     -1.89400353824981      0.25446175501670
  H   1.61216634778755     -0.90386516715768     -1.21447790369565
