18
Coordinates from ORCA-job run
  C   -0.73984531957507     -0.28479340965321      0.01498951101823
  C   0.69036585017392      0.17757606173145     -0.28460332915472
  Cl  -0.75751826765147     -1.99695868724333      0.47430574431034
  H   0.58008650821672      1.21949565610362     -0.60037665797890
  C   -1.46522857990224      0.52945580023794      1.06823778864686
  H   -1.41638122274786      1.58869886498915      0.81335538476276
  H   -1.01437534978487      0.36401170519060      2.04589918086306
  H   -2.51141411055701      0.22193195041161      1.11900364492346
  N   -1.51148915834587     -0.11322554572136     -1.30014679057276
  O   -1.56394011992738      1.05228427004873     -1.68271555709975
  O   -2.01356680128090     -1.07683492336100     -1.85153510272069
  N   1.16527421885057     -0.56196816037746     -1.44524708396896
  H   1.95969338675581     -0.08850503581059     -1.85602073928567
  H   1.46018964593918     -1.49330513298443     -1.17544470095584
  C   1.60005664300515      0.12394590284971      0.93978353593706
  H   1.70512127605146     -0.89962084166524      1.30542411118557
  H   1.23953807377247      0.75157439280028      1.75801614882771
  H   2.59143332700740      0.48623713245353      0.65707491126224
