18
Coordinates from ORCA-job run
  C   -0.77601072906485     -0.30651550817781      0.18494844957229
  C   0.69705461246958      0.12000688566292      0.34439956423724
  Cl  -1.08345244037533     -1.90456412781935      0.91836260098919
  H   0.74808513624060      0.47472272445804      1.38039526793675
  C   -1.72276280901638      0.70635394257094      0.78768007068132
  H   -2.75694344369896      0.40315895291003      0.64317156408166
  H   -1.55043012787827      1.67224257645200      0.31329504385474
  H   -1.51899241166199      0.78029850451441      1.85716922822650
  N   -1.11306550730719     -0.47245579945939     -1.29797347072795
  O   -0.20891395835349     -0.83764500913759     -2.04461877125578
  O   -2.26976806740079     -0.26187416595448     -1.63978884849007
  N   0.86918631216326      1.28986188137506     -0.51737068121939
  H   1.55019625429012      1.92075071961394     -0.11575238541650
  H   1.20960662401678      0.99565879697060     -1.42509632389652
  C   1.76965110898168     -0.95485825204599      0.18024044746580
  H   1.74816360743946     -1.38585622854613     -0.81895538278587
  H   1.66405199447438     -1.75704928647424      0.91102961588796
  H   2.74334384468138     -0.48323660691297      0.33786401085862
