18
Coordinates from ORCA-job run
  C   -0.71478675873517     -0.33375605986599     -0.03502651073981
  C   0.71705475149944      0.22083742382350     -0.13217580341620
  Cl  -0.71052077363300     -2.06073105800251      0.31711086708184
  H   0.59510620948479      1.30967047611433     -0.18764642945710
  C   -1.60052920143556      0.39589418362673      0.95885969424189
  H   -1.22869774308994      0.24786145524686      1.97230065595052
  H   -2.61742797679613      0.00270984038938      0.90755744652489
  H   -1.61432649658970      1.46253200238664      0.72637983388863
  N   -1.36264093081209     -0.10984815763560     -1.40811889123531
  O   -2.03355277102187     -0.99051954323820     -1.91974079603542
  O   -1.18599331207941      1.01918835145056     -1.86529594272624
  N   1.34442070292000     -0.32019900448515     -1.32948492774768
  H   2.33659415754937     -0.45223493739580     -1.18913013240309
  H   1.21208291668744      0.30348635336655     -2.11461464954906
  C   1.54948550049661     -0.11378085243092      1.09630327800400
  H   2.48179501674667      0.45561426015364      1.06112263718267
  H   1.79154748602623     -1.17727505667041      1.11321336025866
  H   1.03938922278234      0.13955032316639      2.02638631017680
