18
Coordinates from ORCA-job run
  C   -0.76968739922674     -0.21793813121398      0.34009051742484
  C   0.76686795034075     -0.17139386339399      0.54456421086159
  Cl  -1.56091099004083     -0.32885665908810      1.93567210857934
  H   1.00037968361923     -1.03647989715590      1.17200145132965
  C   -1.36147133255987      0.94227225334577     -0.42129254300954
  H   -2.43556800501187      0.80722238456369     -0.54256884788099
  H   -0.91408955787266      1.02960622058673     -1.41057031229714
  H   -1.19118830105196      1.85927477004501      0.14280664139119
  N   -1.05841909234000     -1.52823410238950     -0.37959465679919
  O   -0.72449646164612     -2.55678935867619      0.19733789143404
  O   -1.52789871287379     -1.45882461000901     -1.51299126798125
  N   1.23825316377702      1.01191252970622      1.23218751578575
  H   1.10879710944639      1.84245897242840      0.66796563327364
  H   0.76816239544654      1.13923433360803      2.11931829276868
  C   1.51126887545167     -0.31152241927823     -0.77750694577943
  H   1.25968432763649     -1.23316603671030     -1.30367969194997
  H   1.31130952246260      0.53207612957567     -1.44359524114004
  H   2.58000682444313     -0.32085251594431     -0.56114475601115
