18
Coordinates from ORCA-job run
  C   -0.70735230095642     -0.31529332045779      0.31991513162382
  C   0.79583441788061      0.09124555722290      0.43784203884299
  Cl  -1.02973220038588     -1.66288158149500      1.42415623341543
  H   0.97106046952889      0.14048322580211      1.51808081981741
  C   -1.67826695161136      0.80832198551145      0.61649284686555
  H   -2.70502228723141      0.44181657743258      0.56873593468685
  H   -1.49254957804430      1.18057031041900      1.62601900175689
  H   -1.55764125114315      1.61591553051178     -0.10219643612060
  N   -0.92692114003407     -0.78107276929213     -1.11309702090065
  O   -1.04526513108759     -1.97004075310314     -1.36837510190298
  O   -0.88736310539206      0.12980088515920     -1.94250289016841
  N   1.14063364474865      1.38392933260172     -0.11386973265047
  H   0.90741303773790      1.42822109513807     -1.09855577639580
  H   0.66380430904413      2.13647293670039      0.36486932091197
  C   1.70946992132907     -0.96770903020519     -0.16549518234754
  H   1.47549498935774     -1.96978958321902      0.19402646490877
  H   2.74019342939075     -0.72402030252512      0.09141526458757
  H   1.62920972686851     -0.96497009620178     -1.25646091693080
