20

C	0.0	0.0	0.0
C	-0.497864	0.128036	-1.447755
Br	1.98384	0.0	0.0
H	-1.586886	0.046301	-1.329732
C	-0.414995	1.185599	0.863754
H	-1.507865	1.240376	0.828347
H	0.023219	2.125636	0.524847
H	-0.097516	1.016011	1.896988
N	-0.456725	-1.266898	0.524024
H	-0.256145	-1.300848	1.518844
H	-1.476987	-1.24768	0.426093
C	-0.019127	-1.011754	-2.342974
H	-0.628852	-1.041365	-3.251514
H	-0.107968	-1.969449	-1.830218
H	1.025495	-0.869603	-2.636095
C	-0.207615	1.480947	-2.089263
H	-0.736701	2.291649	-1.585466
H	-0.550443	1.466476	-3.128312
H	0.864561	1.700887	-2.090122
Cl	-3.756258	0.0	0.0
