20

C	0.0	0.0	0.0
C	-0.333464	0.272887	-1.497543
Br	1.997311	0.0	0.0
H	0.334672	-0.383696	-2.070971
C	-0.509918	1.06431	0.949838
H	-0.254336	0.783705	1.972841
H	-0.085556	2.043029	0.731179
H	-1.60217	1.11218	0.858771
N	-0.424036	-1.286156	0.485616
H	-0.275293	-1.99305	-0.226764
H	-1.425591	-1.234503	0.667677
C	-0.054615	1.715624	-1.91857
H	-0.807216	2.387723	-1.497962
H	0.937102	2.055744	-1.613393
H	-0.118694	1.797146	-3.007913
C	-1.767494	-0.095815	-1.864793
H	-2.526114	0.436846	-1.291269
H	-1.974129	-1.1571	-1.720401
H	-1.924914	0.127066	-2.925706
Cl	-4.590583	0.0	0.0
