20

C	0.0	0.0	0.0
C	-0.307805	-0.073311	-1.531274
Br	1.995489	0.0	0.0
H	0.405662	0.601606	-2.017352
C	-0.449963	1.310789	0.617327
H	-1.544773	1.331346	0.631018
H	-0.082362	2.161337	0.040377
H	-0.079348	1.379682	1.641061
N	-0.491992	-1.077045	0.807768
H	-0.335534	-1.969412	0.355891
H	-1.49729	-0.948817	0.924602
C	-1.713435	0.394488	-1.890464
H	-1.866763	1.451938	-1.667421
H	-2.499315	-0.145116	-1.361311
H	-1.865267	0.258589	-2.966265
C	-0.085002	-1.478419	-2.090997
H	0.871019	-1.90745	-1.780754
H	-0.895817	-2.146485	-1.785255
H	-0.09572	-1.443337	-3.183739
Cl	-4.485335	0.0	0.0
