13

C	0.0	0.0	0.0
C	-0.616842	0.039288	-1.385763
Cl	1.789462	0.0	0.0
H	-0.401431	-0.88418	-1.932854
H	-0.295783	0.90897	0.526761
H	-1.721565	0.08134	-1.154966
C	-0.515635	-1.208152	0.752512
H	-1.612343	-1.119673	0.750081
H	-0.205072	-2.130332	0.251593
H	-0.137182	-1.220241	1.777496
C	-0.210818	1.184141	-2.186811
N	0.109963	2.108353	-2.838142
H	-3.196318	0.0	0.0
