13

C	0.0	0.0	0.0
C	-0.606483	-0.040899	-1.390713
Cl	1.790459	0.0	0.0
H	-1.712148	-0.000567	-1.172101
H	-0.307518	0.945686	0.44985
H	-0.319658	0.835638	-1.978694
C	-0.500439	-1.149478	0.849316
H	-1.597342	-1.075069	0.841979
H	-0.179726	-2.105798	0.428013
H	-0.120832	-1.069045	1.870786
C	-0.273318	-1.247571	-2.13382
N	-0.009521	-2.216619	-2.742956
H	-3.196898	0.0	0.0
