12
Coordinates from ORCA-job run
  C   0.78920383637774      0.60531914014953     -0.14928137312245
  C   -0.14265197540243     -0.60042826284615     -0.03099988121511
  Br  0.95882519068750      1.56039931266730      1.55189869628424
  H   0.25437343757773     -1.27360762275311      0.73358128006333
  H   0.38352715371862      1.33939018606115     -0.84966499340482
  H   -0.08882800632874     -1.13202452762866     -0.98794433319246
  C   2.12134530037395      0.21487088820842     -0.59405761640426
  N   3.18151405338677     -0.10752112041049     -0.98387060868137
  C   -1.58592690800364     -0.21977285543987      0.27203906019943
  H   -1.98153623556377      0.45845658603569     -0.48861371789649
  H   -1.67475891126958      0.26683676324795      1.24375298014295
  H   -2.21508693555415     -1.11191848729176      0.28316050722700
