12
Coordinates from ORCA-job run
  C   0.81359284372187      0.71494665719323     -0.22378103137391
  C   -0.48109004158603      0.37347524466671      0.51075578682802
  Br  1.71487684507843      2.23187005923387      0.62043360867917
  H   -0.23848412959594      0.12381643736749      1.54702743092507
  H   0.60316936491249      1.03854635958673     -1.24573315512099
  H   -1.09890531269083      1.27526663891844      0.52923182709408
  C   1.73092849254509     -0.41733021708624     -0.26703390836426
  N   2.43278488853659     -1.35897500908349     -0.29756693451024
  C   -1.22250330271866     -0.77620030294404     -0.16633379518463
  H   -0.63439468862357     -1.69596505807192     -0.14960902985346
  H   -2.16458912053431     -0.97107046050677      0.34999155920657
  H   -1.45638583904515     -0.53838034927402     -1.20738235832541
