12
Coordinates from ORCA-job run
  C   0.88144743543975      0.74005300512873     -0.12009917996846
  C   -0.57965205414210      0.41188674032594     -0.42873760158980
  Br  1.09783727060397      1.42964658713611      1.70070696716454
  H   -0.62575544856531      0.17673404396501     -1.49871075525307
  H   1.23720776114880      1.54509326223887     -0.76590913421882
  H   -1.16427742833444      1.32278765578255     -0.27245268924645
  C   1.75051165136149     -0.41812717082251     -0.29263633698599
  N   2.44270908377882     -1.35062781100953     -0.46961130415918
  C   -1.14684662345673     -0.74352022167238      0.38463769132275
  H   -2.18264912454177     -0.93098317549692      0.09507909136446
  H   -1.13077556056372     -0.52146852201521      1.45242419083542
  H   -0.57975696272874     -1.66147439356065      0.21530906073459
