12
Coordinates from ORCA-job run
  C   0.88851665982732      0.73829477623899     -0.11216170287181
  C   -0.56534618182793      0.40715558067180     -0.45108998161438
  Br  1.06045263664511      1.46145639567181      1.70040650855068
  H   -1.15148487897597      1.32175924918926     -0.32395028572097
  H   1.26254506623957      1.53044980771730     -0.76340856786068
  H   -0.58617843821583      0.15447053696843     -1.51793430387499
  C   1.75686919335338     -0.42598602220415     -0.23982621343429
  N   2.42485298936372     -1.38312265416477     -0.37388594339639
  C   -1.15507460571257     -0.73317011930689      0.36766562883471
  H   -0.58462505380579     -1.65428788095570      0.23052961273184
  H   -1.16780272200654     -0.49168567893022      1.43120277745181
  H   -2.18272466488449     -0.92533399089585      0.05345247120447
