13

C	0.0	0.0	0.0
C	-0.59397	0.069914	-1.398738
Br	1.923254	0.0	0.0
H	-0.739615	-0.944583	-1.76172
H	-0.354855	-0.887593	0.514477
H	-1.563786	0.567395	-1.339948
N	-0.400679	1.15885	0.88735
O	-0.447206	0.90813	2.08464
O	-0.570964	2.246344	0.357802
N	0.264197	0.744071	-2.412162
O	0.263497	1.972237	-2.450111
O	0.907695	0.016773	-3.171656
Cl	-3.375795	0.0	0.0
