12
Coordinates from ORCA-job run
  C   0.61149030774351     -0.76717623083985     -0.31751669488181
  C   -0.72762204686971     -0.67826613118602     -0.27172059753964
  H   1.03410097107297     -1.69586407321366     -0.69903769990526
  H   -1.29413701569360     -1.54088817014015     -0.62037932077813
  C   1.61373417562260      0.26931504216754      0.09821001800134
  H   1.14964764281579      1.18155754223068      0.47201812756399
  H   2.25734263320273      0.54106732054825     -0.74395649573580
  H   2.26824664190337     -0.12104646750547      0.88335551688176
  C   -1.55359607854072      0.47944500182684      0.20693091706499
  H   -2.21030940481177      0.83974272964872     -0.59065142883951
  H   -2.20015271014675      0.17380739489001      1.03510570426554
  H   -0.94874511629841      1.31930604157313      0.54764195390254
