12
Coordinates from ORCA-job run
  C   0.61171299640760     -0.76987172479492     -0.31101737704083
  C   -0.72742313829173     -0.67563704626738     -0.27848045381946
  H   1.03438954227306     -1.70007740098343     -0.68874955441070
  H   -1.29389344483639     -1.53664057376287     -0.63119039242983
  C   1.61390662394151      0.26274871968455      0.11435036548163
  H   1.14976521100415      1.17575885838041      0.48621302428905
  H   2.26620694148528      0.53346506947681     -0.72137675848640
  H   2.25975260453388     -0.13132044575897      0.90486900617088
  C   -1.55348128653046      0.48580134919575      0.19090569547329
  H   -0.94868000820341      1.32504288111037      0.53322945411360
  H   -2.20231302463913      0.84579322436324     -0.61330047775602
  H   -2.20794301714436      0.18493708935642      1.01454746841479
