14

C	-0.585994	-0.0139	-1.418541
C	0.0	0.0	0.0
Cl	0.119961	-1.315945	-2.406826
H	1.099131	0.0	0.0
H	-1.653524	-0.229621	-1.322579
C	-0.434813	1.262237	-2.115348
N	-0.313486	2.292311	-2.666412
N	-0.454788	-1.198896	0.675157
H	-1.256946	-0.971805	1.251504
H	0.291324	-1.56136	1.252271
N	-0.543219	1.195666	0.670976
H	-0.149185	2.02155	0.226305
H	-0.140969	1.187187	1.604137
Cl	3.430816	0.0	0.0
