14

C	-0.42759	0.077303	-1.462598
C	0.0	0.0	0.0
Cl	-2.207231	0.332323	-1.63961
H	1.101634	0.0	0.0
H	0.049852	0.935162	-1.94277
C	-0.069311	-1.133124	-2.194131
N	0.1976	-2.094186	-2.812762
N	-0.483667	-1.216656	0.606682
H	-1.33273	-1.010157	1.117848
H	0.215864	-1.579632	1.240008
N	-0.496877	1.188037	0.715794
H	-0.313922	2.015613	0.155415
H	0.099841	1.281437	1.532997
Cl	3.387983	0.0	0.0
