14

C	-0.594031	-0.004362	-1.40993
C	0.0	0.0	0.0
Cl	-0.118041	-1.45037	-2.364922
H	1.099908	0.0	0.0
H	-1.681265	-0.056665	-1.300838
C	-0.253338	1.201092	-2.15948
N	0.015621	2.166128	-2.769966
N	-0.535058	-1.165962	0.720147
H	-0.007267	-1.214611	1.588086
H	-0.2711	-2.003485	0.208826
N	-0.470188	1.224513	0.624231
H	-1.231356	1.003132	1.255107
H	0.28808	1.658081	1.133643
Cl	3.422516	0.0	0.0
