14

C	-0.428725	0.016512	-1.46641
C	0.0	0.0	0.0
Cl	-2.195075	0.317281	-1.662177
H	1.102532	0.0	0.0
H	0.081339	0.85346	-1.943639
C	-0.103859	-1.226414	-2.162806
N	0.13754	-2.229512	-2.72482
N	-0.567511	-1.170212	0.679655
H	-0.195599	-2.01024	0.242895
H	-0.175776	-1.163578	1.616693
N	-0.418579	1.239472	0.613598
H	0.234824	1.47759	1.348915
H	-1.344751	1.118732	1.007854
Cl	3.4162	0.0	0.0
