14

C	-0.592257	0.006001	-1.415022
C	0.0	0.0	0.0
Cl	-0.042439	-1.382513	-2.395959
H	1.093733	0.0	0.0
H	-1.680047	-0.093945	-1.327512
C	-0.316442	1.244197	-2.141649
N	-0.140511	2.210852	-2.784259
N	-0.419215	-1.222393	0.667143
H	-1.271283	-1.079259	1.197235
H	0.31479	-1.520693	1.295347
N	-0.420733	1.261348	0.615423
H	-1.220499	1.121856	1.220708
H	0.344775	1.623313	1.170716
Cl	3.384352	0.0	0.0
