14

C	-0.597425	-0.024893	-1.411614
C	0.0	0.0	0.0
Cl	-0.045912	-1.42853	-2.367834
H	1.093704	0.0	0.0
H	-1.683873	-0.128597	-1.316767
C	-0.32721	1.202346	-2.160278
N	-0.122253	2.171547	-2.789292
N	-0.41782	-1.209583	0.693098
H	-1.258586	-1.050031	1.235749
H	0.323782	-1.497753	1.317526
N	-0.420335	1.271405	0.592919
H	0.350967	1.655604	1.123539
H	-1.211143	1.142295	1.211805
Cl	3.383073	0.0	0.0
