14

C	-0.517184	-0.006425	-1.442798
C	0.0	0.0	0.0
Cl	-0.025623	1.42928	-2.374953
H	1.094	0.0	0.0
H	-0.097303	-0.87866	-1.942664
C	-1.977785	-0.105853	-1.437552
N	-3.14809	-0.179879	-1.367757
N	-0.395608	-1.300858	0.54911
H	0.303135	-1.590538	1.221949
H	-1.291447	-1.234724	1.018543
N	-0.452102	1.190517	0.691237
H	-1.36437	1.049787	1.10962
H	0.213489	1.427744	1.41481
Cl	3.400283	0.0	0.0
