14

C	-0.589035	0.006518	-1.411303
C	0.0	0.0	0.0
Cl	-0.110055	-1.431122	-2.377118
H	1.10326	0.0	0.0
H	-1.676935	-0.046258	-1.307244
C	-0.249586	1.217722	-2.151466
N	-0.02093	2.176024	-2.789741
N	-0.538526	-1.168636	0.711736
H	-0.012887	-1.225749	1.579984
H	-0.278405	-2.003319	0.194455
N	-0.465864	1.223161	0.629774
H	0.29053	1.642441	1.152913
H	-1.235543	1.002785	1.249849
Cl	3.423265	0.0	0.0
