14

C	-0.434157	0.037802	-1.47762
C	0.0	0.0	0.0
Cl	0.089125	1.527639	-2.302426
H	1.094559	0.0	0.0
H	0.041414	-0.793191	-2.00375
C	-1.887987	-0.090707	-1.594765
N	-3.049116	-0.269587	-1.632003
N	-0.409468	-1.263153	0.611846
H	-1.198487	-1.690372	0.142751
H	0.371099	-1.905738	0.605875
N	-0.534427	1.158347	0.694715
H	-1.222328	0.826312	1.357651
H	0.215849	1.586384	1.222212
Cl	3.395834	0.0	0.0
