16

C	0.0	0.0	0.0
C	-0.222402	0.066503	-1.530424
F	1.39699	0.0	0.0
H	0.216312	1.01511	-1.849069
H	-0.365787	-0.943531	0.401266
C	-0.474193	1.185916	0.791111
H	-0.12956	2.11276	0.319975
H	-0.060827	1.129	1.803915
H	-1.56968	1.092205	0.777625
N	-1.621992	0.118326	-2.081352
O	-2.060907	1.234143	-2.331597
O	-2.127097	-0.941686	-2.425367
N	0.440887	-1.014464	-2.24961
H	-0.122071	-1.847856	-2.114387
H	1.337198	-1.158445	-1.802022
F	-2.673305	0.0	0.0
