16

C	0.0	0.0	0.0
C	-0.612746	0.045364	-1.376513
F	1.391293	0.0	0.0
H	-1.717841	-0.014873	-1.110503
H	-0.316833	-0.940899	0.448938
C	-0.493721	1.157097	0.836127
H	-0.103815	1.063654	1.854177
H	-1.585594	1.073502	0.817347
H	-0.159894	2.100984	0.402461
N	-0.24323	-1.239961	-2.112403
O	-0.429441	-2.308186	-1.53466
O	0.196993	-1.14968	-3.263335
N	-0.263747	1.209932	-2.120521
H	0.699133	1.15044	-2.433132
H	-0.851115	1.281536	-2.939629
F	-2.923835	0.0	0.0
