16

C	0.0	0.0	0.0
C	-0.330664	-0.038468	-1.516969
F	1.391232	0.0	0.0
H	0.3961	-0.731199	-1.948004
H	-0.337011	-0.962432	0.398489
C	-0.589546	1.119412	0.806643
H	-0.295671	1.008593	1.85503
H	-0.256594	2.092738	0.444052
H	-1.68008	1.009743	0.706731
N	0.128872	1.301957	-2.096986
O	1.243307	1.348452	-2.625555
O	-0.634341	2.258009	-1.998978
N	-1.651471	-0.309116	-1.950542
H	-1.707812	-1.292796	-2.187988
H	-2.376498	-0.112239	-1.18106
F	-3.213101	0.0	0.0
