16

C	0.0	0.0	0.0
C	-0.400904	-0.090264	-1.490994
F	1.390402	0.0	0.0
H	0.47757	-0.466859	-2.026685
H	-0.327923	-0.943775	0.442286
C	-0.592026	1.153712	0.758972
H	-0.306169	1.089576	1.812581
H	-0.24413	2.108108	0.358413
H	-1.682614	1.038837	0.655469
N	-0.445959	1.37474	-2.045377
O	-1.520467	1.834804	-2.419157
O	0.62856	1.980488	-2.088103
N	-1.555516	-0.840166	-1.71239
H	-1.836216	-0.786053	-2.682734
H	-2.346469	-0.521622	-1.047686
F	-3.187882	0.0	0.0
