16

C	0.0	0.0	0.0
C	-0.399695	-0.065298	-1.492076
F	1.390345	0.0	0.0
H	0.474672	-0.445883	-2.03223
H	-0.327971	-0.950757	0.427206
C	-0.592106	1.142757	0.776321
H	-0.244438	2.102635	0.389046
H	-1.682783	1.03091	0.672634
H	-0.304429	1.064081	1.828628
N	-0.425065	1.407848	-2.022422
O	-1.496506	1.893196	-2.372747
O	0.658441	1.996386	-2.067939
N	-1.564181	-0.7965	-1.724939
H	-2.353912	-0.48601	-1.05196
H	-1.847514	-0.716669	-2.692652
F	-3.202688	0.0	0.0
