9
Coordinates from ORCA-job run
  C   0.85046273747831      0.11761130548389     -0.43662876611439
  C   -0.28991288970052     -0.25262490706704      0.50694636053782
  Cl  2.38739447666644     -0.51514281053682      0.20039752785455
  H   -0.35390793683750     -1.33842314701012      0.61056713258690
  H   0.69439066295215     -0.31558984516984     -1.42334739863847
  H   0.94567905804476      1.19866198631693     -0.52550434778137
  H   -0.10482854138912      0.16255207543650      1.50051201381897
  C   -1.56250383091376      0.25932410824897     -0.00039876334072
  N   -2.56677373630075      0.68263123429753     -0.43454375892329
