9
Coordinates from ORCA-job run
  C   0.97224155780475     -0.09567697668031     -0.23179116790053
  C   -0.53276603485884     -0.33236301771165     -0.22934742875499
  Cl  1.34866958636804      1.60846512018294     -0.57384667089578
  H   -0.72575750277640     -1.40583218263749     -0.13269303412099
  H   1.40902706259134     -0.34600324661832      0.73406942059027
  H   1.43731905811350     -0.70036381484825     -1.00983899527555
  H   -0.96273648413507     -0.00126295204876     -1.17761970614403
  C   -1.20687317992576      0.36248777265510      0.86578414842031
  N   -1.73912406318157      0.90954929770674      1.75628343408128
