9
Coordinates from ORCA-job run
  C   0.89933938655719      0.21055186096005     -0.27385512570868
  C   -0.35497545677361     -0.40301105667156      0.34085672418152
  Cl  2.33025711720727     -0.72721673972305      0.21734622016489
  H   -0.27493895756845     -0.40898875295580      1.43054490772307
  H   1.03798707109769      1.23511806314150      0.06777815717578
  H   0.84663293736980      0.19429149704501     -1.36135754529855
  H   -0.46521780169372     -1.43957125119442      0.01336966043601
  C   -1.54266884031875      0.35524381348365     -0.05077956631708
  N   -2.47541545587742      0.98458256591464     -0.38290343235696
