9
Coordinates from ORCA-job run
  C   0.93077652099960      0.01351684870843     -0.37550341409456
  C   -0.41889497303606     -0.51266547176951      0.09621264571500
  Cl  1.73899928367254      0.93785812193189      0.91103048003638
  H   -0.83539947924843     -1.17063754507550     -0.67354152004475
  H   0.81470676016080      0.67134407104728     -1.23576671418972
  H   1.57855654523388     -0.82162089863330     -0.64017804074359
  H   -0.29050908284247     -1.10412994384059      1.00586849075219
  C   -1.37618262410021      0.56056018358729      0.35929926738726
  N   -2.14405295083965      1.42577463404401      0.55257880518181
