9
Coordinates from ORCA-job run
  C   0.91682181696504      0.01412813872954     -0.40876021050149
  C   -0.41475146758088     -0.51287251270105      0.11101211993469
  Cl  1.77092109174266      0.93775708279090      0.84833495529474
  H   -0.85854982300521     -1.16990200514653     -0.64408144096111
  H   0.76934548804960      0.67253822009934     -1.26378808678614
  H   1.55485637271042     -0.82061564297169     -0.69744058825855
  H   -0.25402028257188     -1.10516434860626      1.01486166875938
  C   -1.36223446106433      0.55985118035148      0.40898692465348
  N   -2.12338873524541      1.42427988745426      0.62987465786500
