17

C	-0.526317	-0.024852	-1.419241
C	0.0	0.0	0.0
Br	0.317229	-1.499083	-2.389743
H	1.090271	0.0	0.0
C	-1.971131	-0.200305	-1.522397
N	-3.122813	-0.439914	-1.55037
N	-0.130118	1.225574	-2.230351
O	0.904453	1.781718	-1.914834
O	-0.871597	1.507282	-3.16595
C	-0.395926	-1.219437	0.817768
H	0.059523	-1.108954	1.800664
H	-1.482015	-1.333067	0.924044
H	0.024049	-2.114416	0.358439
N	-0.516774	1.20777	0.670923
O	-1.171037	2.023452	0.007041
O	-0.258224	1.346073	1.862959
F	2.480847	0.0	0.0
