17

C	-0.002153	0.013328	0.035579
C	-0.344878	-0.1239	-1.464063
F	1.114184	-0.908379	0.239239
H	0.608663	0.021709	-1.989802
C	0.627794	1.326067	0.322868
N	1.099616	2.381673	0.534607
N	-1.060066	-0.265908	0.868032
H	-1.078152	0.206074	1.75441
H	-1.988791	-0.557718	0.43498
C	-1.357494	0.929796	-1.893017
H	-1.044287	1.940086	-1.614861
H	-2.311049	0.676729	-1.424992
H	-1.473918	0.883687	-2.978882
N	-0.871703	-1.440198	-1.790158
H	-1.814282	-1.484743	-1.373564
H	-0.293093	-2.133328	-1.328009
F	-3.196389	-0.95601	-0.377859
