15

C	-0.194	-0.03438	-1.508807
C	0.0	0.0	0.0
Br	-2.102385	-0.317044	-2.038256
H	1.098611	0.0	0.0
H	0.039532	0.950617	-1.917421
C	0.692208	-1.093814	-2.133799
H	0.354401	-2.095078	-1.858947
H	0.705376	-1.017466	-3.222332
H	1.686807	-0.914411	-1.70355
N	-0.410164	-1.188206	0.733626
H	0.360939	-1.843187	0.706257
H	-1.231854	-1.610409	0.315513
C	-0.567454	1.207301	0.585865
N	-1.019034	2.19161	1.043682
F	2.606218	0.0	0.0
