15

C	-0.406011	-0.025286	-1.472341
C	0.0	0.0	0.0
Br	0.249025	1.593681	-2.381994
H	1.094917	0.0	0.0
H	0.159438	-0.839806	-1.931792
C	-1.896856	-0.134448	-1.748726
H	-2.099197	-0.183074	-2.821306
H	-2.418788	0.730592	-1.334058
H	-2.306924	-1.039326	-1.287929
N	-0.303263	-1.265648	0.680633
H	-1.10759	-1.749582	0.299836
H	0.52715	-1.83961	0.586255
C	-0.621539	1.112279	0.705662
N	-1.141841	2.002098	1.272013
F	2.562048	0.0	0.0
