16

C	-0.319966	-0.102524	-1.498599
C	0.0	0.0	0.0
F	-1.626445	-0.566744	-1.693
H	1.097545	0.0	0.0
C	-0.299449	1.225119	-2.167951
N	-0.254637	2.251448	-2.738118
N	0.584027	-1.042213	-2.072217
H	1.526818	-0.892415	-1.708681
H	0.592011	-0.976985	-3.082087
C	-0.471298	-1.251751	0.744676
H	-1.560368	-1.302397	0.790017
H	-0.066309	-1.233447	1.757775
H	-0.089798	-2.134754	0.232613
C	-0.541067	1.207099	0.607201
N	-0.996656	2.151275	1.13766
Cl	3.28692	0.0	0.0
