16

C	-0.309459	-0.103697	-1.500487
C	0.0	0.0	0.0
F	-1.626756	-0.527274	-1.705313
H	1.097534	0.0	0.0
C	-0.234993	1.21962	-2.174827
N	-0.133528	2.242531	-2.744283
N	0.572761	-1.073516	-2.06179
H	0.601678	-1.000959	-3.070672
H	1.514596	-0.946033	-1.686336
C	-0.480047	-1.247017	0.745914
H	-1.569946	-1.29856	0.773729
H	-0.090163	-2.1339	0.247205
H	-0.092771	-1.221081	1.765935
C	-0.541701	1.210451	0.599238
N	-0.997174	2.156561	1.126454
Cl	3.285068	0.0	0.0
