16

C	-0.518112	0.013427	-1.449559
C	0.0	0.0	0.0
F	0.01942	1.120786	-2.068669
H	1.095125	0.0	0.0
C	-0.061525	-1.200453	-2.164175
N	0.22219	-2.190465	-2.726776
N	-1.948642	0.095293	-1.619321
H	-2.319399	0.798544	-0.988253
H	-2.385489	-0.795545	-1.422551
C	-0.456724	-1.242951	0.768067
H	-0.070403	-2.1392	0.278491
H	-1.545716	-1.308201	0.847915
H	-0.035371	-1.21171	1.773566
C	-0.502137	1.208044	0.647745
N	-0.996777	2.152478	1.142372
Cl	3.285813	0.0	0.0
