17

C	-0.451795	0.028097	-1.462988
C	0.0	0.0	0.0
Cl	-2.206642	0.413644	-1.612282
H	1.090757	0.0	0.0
C	0.356824	1.058546	-2.252458
H	0.112444	0.962533	-3.311479
H	1.420094	0.868425	-2.082765
H	0.119168	2.063069	-1.911261
C	-0.226659	-1.285665	-2.070929
N	0.001063	-2.285679	-2.643479
N	-0.480723	-1.176543	0.78097
O	0.033054	-1.30423	1.886506
O	-1.337063	-1.908208	0.287957
N	-0.478362	1.21955	0.726502
O	-1.391095	1.09129	1.536934
O	0.075775	2.270234	0.42362
Cl	3.155324	0.0	0.0
