17

C	-0.484965	-0.036886	-1.45308
C	0.0	0.0	0.0
Cl	-0.102812	1.583329	-2.14267
H	1.089005	0.0	0.0
C	0.306862	-1.073565	-2.246928
H	1.370784	-0.901537	-2.070878
H	0.078339	-0.963274	-3.308156
H	0.034729	-2.075497	-1.920591
C	-1.929295	-0.228297	-1.601203
N	-3.075116	-0.374723	-1.817899
N	-0.441647	-1.189019	0.797768
O	-0.185824	-1.137818	1.993863
O	-0.982011	-2.126281	0.213607
N	-0.555835	1.176168	0.73684
O	-1.766808	1.135875	0.95809
O	0.210425	2.078366	1.043846
Cl	3.183262	0.0	0.0
