17

C	-0.472539	0.018063	-1.450681
C	0.0	0.0	0.0
Cl	-2.256396	-0.204227	-1.601016
H	1.091947	0.0	0.0
C	-0.095755	1.356573	-2.086115
H	-0.673747	2.161911	-1.632367
H	0.970799	1.535173	-1.929634
H	-0.321536	1.319314	-3.15212
C	0.166104	-1.058993	-2.210991
N	0.649274	-1.846392	-2.93702
N	-0.407465	-1.209519	0.773298
O	-0.368734	-1.109172	1.994033
O	-0.657752	-2.22702	0.134353
N	-0.509887	1.204612	0.716828
O	0.252133	2.164923	0.784152
O	-1.666656	1.168565	1.133662
Cl	3.124415	0.0	0.0
