12
Coordinates from ORCA-job run
  C   -0.34125589162022      0.68199202733583     -0.23273824144774
  C   0.28100208189108     -0.58973048248351      0.30163472028632
  F   0.54706739685708      1.15963043210520     -1.21761834612854
  H   0.26216900934299     -1.32900819785781     -0.51714423144396
  H   -0.35500587117918      1.45310556551869      0.54057287746611
  H   -0.35417779943197     -0.96566681074523      1.10851918239258
  N   -1.62892502353323      0.49967644766485     -0.79329680898743
  H   -2.36520969949527      0.98731441109474     -0.31362927544344
  H   -1.87241297544824     -0.45986054841997     -0.98025597375964
  N   1.60796536082995     -0.30992796462386      0.83261206074353
  H   2.19129840954390      0.02859042129357      0.07836236838262
  H   2.02748500224311     -1.15711530088251      1.19298166793957
