12
Coordinates from ORCA-job run
  C   -0.46646669659249      0.58891087082997      0.02004690019544
  C   0.34573467235512     -0.66292593025545      0.24934805741425
  F   0.25579394457934      1.37031553113677     -0.92359542399340
  H   -0.16629634345327     -1.25998931688734      1.00649678321872
  H   -0.50280530382731      1.19421575613954      0.92700335572192
  H   0.34887893310541     -1.23948989712607     -0.69087434863139
  N   -1.77655053041803      0.29646955484936     -0.42487200472807
  H   -2.31652645156449      1.14124485025167     -0.55367443567017
  H   -1.75468488378346     -0.21477416785019     -1.29774017072264
  N   1.66988728675077     -0.29872665980888      0.73595194824593
  H   2.15540185406923      0.21560140067936      0.01261302459999
  H   2.20763351877917     -1.13085199195873      0.93929631434943
