12
Coordinates from ORCA-job run
  C   -0.57012021009327      0.60752559085360      0.24561215877181
  C   0.87100795786378      0.15015111508904      0.23496115811883
  F   -0.57171789624255      2.00779396239204      0.07643233118020
  H   1.29113534014007      0.38477044760210     -0.75770227397336
  H   -1.02427470453901      0.40930743153342      1.21781649304669
  H   1.42049123450995      0.74162059163068      0.97043975668399
  N   -1.31526505544183     -0.05286552449478     -0.76667768263773
  H   -2.30002879127857      0.16831948181752     -0.70507826260364
  H   -0.97635037752831      0.22032683184408     -1.68151471141472
  N   0.91645383983037     -1.25505677460625      0.61342296866765
  H   0.38710053284299     -1.79234928555093     -0.06106898079770
  H   1.87056812993640     -1.59054386811052      0.61235704495797
