12
Coordinates from ORCA-job run
  C   -0.43291008472462      0.77038869959657      0.03083928128926
  C   0.58114699696055     -0.09534048044287      0.74970758582393
  F   0.20407006134955      1.73469088651030     -0.72415847869668
  H   0.00744720793014     -0.77813407069458      1.40193781739056
  H   -1.03935473857084      1.31942339442744      0.76628735393047
  H   1.17289508423178      0.55239439687116      1.40308495190845
  N   -1.20814067667116     -0.03001816735178     -0.89319223550510
  H   -1.78902484946374      0.58067905482146     -1.45483433584253
  H   -1.81613490193223     -0.65451010882669     -0.37668794580270
  N   1.45498810256061     -0.75153611457848     -0.20900521260871
  H   1.98167484277364     -1.48702869986468      0.24244194845013
  H   0.88334295555633     -1.16000879046785     -0.93742073033707
