14

C	-0.577161	0.024559	-1.404116
C	0.0	0.0	0.0
Cl	0.013497	1.444861	-2.264565
H	1.090892	0.0	0.0
H	-1.664836	0.038717	-1.415632
N	-0.191444	-1.209492	-2.189123
O	-0.852788	-1.397771	-3.205852
O	0.722713	-1.900289	-1.766381
N	-0.49035	-1.218356	0.739584
O	-1.350795	-1.907686	0.189655
O	-0.012014	-1.410109	1.84745
C	-0.480685	1.156974	0.746502
N	-0.90313	2.081118	1.336304
Cl	3.142111	0.0	0.0
