14

C	-0.409781	0.053756	-1.470179
C	0.0	0.0	0.0
Cl	0.220001	-1.293341	-2.385831
H	1.091994	0.0	0.0
H	-0.02854	0.982932	-1.890319
N	-1.920177	0.136983	-1.609311
O	-2.563412	-0.900511	-1.690926
O	-2.370869	1.28011	-1.5857
N	-0.531359	-1.250065	0.648167
O	0.193561	-2.236334	0.630197
O	-1.667843	-1.187996	1.119961
C	-0.495813	1.159831	0.726118
N	-0.846222	2.113734	1.315284
Cl	3.14706	0.0	0.0
