14

C	-0.452713	-0.072992	-1.444852
C	0.0	0.0	0.0
Cl	-2.213022	-0.142339	-1.610894
H	1.093753	0.0	0.0
H	-0.018119	-0.947321	-1.918058
N	0.061037	1.119878	-2.215968
O	-0.368663	2.222044	-1.898313
O	0.858175	0.869462	-3.115691
N	-0.342681	-1.3043	0.679753
O	-0.274751	-2.313341	-0.013092
O	-0.585951	-1.272315	1.881081
C	-0.549467	1.108757	0.756003
N	-0.993086	2.012608	1.361093
Cl	3.090051	0.0	0.0
