14

C	-0.472882	0.016732	-1.443028
C	0.0	0.0	0.0
Cl	0.482907	-0.979119	-2.51273
H	1.0947	0.0	0.0
H	-0.408929	1.044505	-1.806901
N	-1.963271	-0.325077	-1.548915
O	-2.375837	-0.839578	-2.576622
O	-2.644035	0.028534	-0.592393
N	-0.415061	-1.247904	0.720134
O	-0.767059	-2.201782	0.033236
O	-0.317295	-1.23417	1.938504
C	-0.449309	1.167231	0.7431
N	-0.761022	2.149365	1.306404
Cl	3.12217	0.0	0.0
