14

C	-0.461219	-0.040872	-1.444353
C	0.0	0.0	0.0
Cl	-2.220447	-0.135514	-1.598102
H	1.093747	0.0	0.0
H	-0.015185	-0.896091	-1.940332
N	0.033833	1.176484	-2.182091
O	-0.453897	2.262112	-1.88499
O	0.876131	0.958342	-3.045603
N	-0.353012	-1.315273	0.650891
O	-0.271658	-2.311696	-0.06009
O	-0.631467	-1.299762	1.844935
C	-0.549753	1.096504	0.775052
N	-0.979824	1.991896	1.403398
Cl	3.090672	0.0	0.0
