14

C	-0.427523	-0.028959	-1.451123
C	0.0	0.0	0.0
Cl	-2.188217	-0.02793	-1.656225
H	1.093808	0.0	0.0
H	-0.022665	-0.912397	-1.933176
N	0.133313	1.152121	-2.200098
O	0.685581	0.891992	-3.264314
O	-0.039093	2.263202	-1.714741
N	-0.357157	-1.326473	0.628153
O	-0.286978	-2.3134	-0.097507
O	-0.620208	-1.332218	1.824153
C	-0.558001	1.079407	0.791548
N	-1.008061	1.93987	1.452444
Cl	3.090267	0.0	0.0
