14

C	-0.58176	0.007691	-1.401162
C	0.0	0.0	0.0
Cl	0.001175	1.417262	-2.284704
H	1.091018	0.0	0.0
H	-1.668982	0.019925	-1.409675
N	-0.19478	-1.235244	-2.166248
O	0.737044	-1.903419	-1.746085
O	-0.874597	-1.454421	-3.165496
N	-0.484875	-1.210617	0.754208
O	-1.330019	-1.919233	0.203373
O	-0.016628	-1.378311	1.872017
C	-0.478455	1.165222	0.73433
N	-0.893314	2.098766	1.314636
Cl	3.146222	0.0	0.0
