13

C	-0.522557	0.00633	-1.419514
C	0.0	0.0	0.0
Br	-0.11906	1.666021	-2.358092
H	1.093104	0.0	0.0
H	0.014683	-0.751554	-1.998642
H	-0.300342	-0.991828	0.397386
N	-1.97491	-0.155853	-1.426035
H	-2.317661	-0.113788	-2.379487
H	-2.176832	-1.084525	-1.068114
N	-0.513577	1.117619	0.769351
H	-0.064772	1.135907	1.67562
H	-1.51379	1.024191	0.888433
Br	3.768991	0.0	0.0
