13

C	-0.444706	0.029206	-1.434184
C	0.0	0.0	0.0
Br	-2.626885	-0.109605	-1.331464
H	1.094101	0.0	0.0
H	-0.392749	1.020807	-1.87394
H	-0.325837	-0.952322	0.446737
N	0.085292	-0.952448	-2.226603
H	-0.210205	-0.96031	-3.189217
H	0.144458	-1.867181	-1.810132
N	-0.464735	1.184976	0.70699
H	-1.398223	1.036157	1.07032
H	0.168289	1.367369	1.476
Br	3.657348	0.0	0.0
