13

C	-0.507715	-0.01207	-1.434714
C	0.0	0.0	0.0
Br	0.109096	1.671853	-2.35505
H	1.091018	0.0	0.0
H	-0.023105	-0.801362	-2.008364
H	-0.358881	0.909193	0.496926
N	-1.924762	-0.161565	-1.498984
H	-2.24706	-0.194707	-2.457338
H	-2.372232	0.624136	-1.041791
N	-0.441019	-1.186571	0.734706
H	0.229054	-1.930209	0.579792
H	-1.343556	-1.486575	0.3858
Br	3.718916	0.0	0.0
