18

C	-0.451785	0.020904	-1.450674
C	0.0	0.0	0.0
F	-1.867087	-0.122845	-1.449209
H	1.098602	0.0	0.0
N	-0.17331	1.2756	-2.09889
H	-0.35151	1.983414	-1.390134
H	0.827791	1.295674	-2.270442
C	0.144248	-1.124717	-2.231691
H	1.233512	-1.071384	-2.152509
H	-0.181105	-2.070123	-1.802838
H	-0.165704	-1.051844	-3.276516
N	-0.436196	-1.229244	0.643404
H	-1.429064	-1.179923	0.846879
H	0.078912	-1.341103	1.508927
N	-0.388716	1.255858	0.66935
H	0.39164	1.537672	1.250097
H	-1.186275	1.09976	1.271174
H	2.978779	0.0	0.0
