18

C	-0.448715	0.001894	-1.458477
C	0.0	0.0	0.0
F	-0.185512	1.290125	-1.967652
H	1.102369	0.0	0.0
N	0.34322	-0.913815	-2.245908
H	0.170449	-1.832393	-1.847927
H	1.318619	-0.707116	-2.016534
C	-1.928498	-0.245721	-1.651763
H	-2.162764	-0.162585	-2.714773
H	-2.188496	-1.244488	-1.298423
H	-2.501427	0.490868	-1.084881
N	-0.399709	-1.270293	0.604461
H	0.351079	-1.569044	1.217641
H	-1.225906	-1.099172	1.167981
N	-0.566413	1.140028	0.73515
H	0.048727	1.287938	1.532492
H	-0.436121	1.955741	0.144513
H	3.00434	0.0	0.0
