18

C	-0.374022	-0.015054	-1.476338
C	0.0	0.0	0.0
F	-1.792812	-0.133514	-1.558902
H	1.096273	0.0	0.0
N	-0.015195	1.208191	-2.142722
H	0.991045	1.174053	-2.284188
H	-0.174108	1.939474	-1.453073
C	0.228004	-1.195969	-2.20361
H	-0.195178	-2.132604	-1.83844
H	1.30813	-1.205709	-2.027482
H	0.015394	-1.103066	-3.271096
N	-0.452504	-1.184365	0.733253
H	-1.190613	-1.65341	0.224113
H	0.331357	-1.819315	0.829865
N	-0.463895	1.24854	0.606214
H	-1.373184	1.070942	1.018363
H	0.173249	1.452412	1.368671
H	2.96591	0.0	0.0
