18

C	-0.475282	-0.019203	-1.449313
C	0.0	0.0	0.0
F	-0.099946	-1.291955	-1.977162
H	1.10047	0.0	0.0
N	-1.899305	0.102638	-1.487689
H	-2.233005	-0.084509	-2.426299
H	-2.257827	-0.60712	-0.854028
C	0.230816	1.003771	-2.305826
H	-0.044068	0.864808	-3.356641
H	1.308317	0.871835	-2.183757
H	-0.046545	2.012501	-1.997861
N	-0.592433	-1.169976	0.671823
H	-0.010399	-1.968098	0.434515
H	-0.464972	-0.991523	1.661738
N	-0.421785	1.200932	0.704718
H	0.339513	1.86756	0.670974
H	-1.243815	1.596321	0.265051
H	3.063665	0.0	0.0
