18

C	-0.32392	0.039083	-1.490028
C	0.0	0.0	0.0
F	-1.682664	0.408919	-1.689045
H	1.104377	0.0	0.0
N	0.485009	1.08368	-2.062227
H	1.423371	1.005247	-1.661687
H	0.56134	0.947419	-3.064164
C	-0.164778	-1.31481	-2.149426
H	0.867223	-1.651124	-2.016996
H	-0.847865	-2.030726	-1.69295
H	-0.381588	-1.231319	-3.219908
N	-0.560434	-1.194011	0.648168
H	0.202217	-1.859821	0.752723
H	-0.804902	-0.885673	1.582971
N	-0.45922	1.199376	0.688843
H	-1.182004	1.637109	0.132833
H	0.321171	1.84247	0.734996
H	2.957138	0.0	0.0
