19

C	0.0	0.0	0.0
C	-0.530804	0.233505	-1.431618
Cl	1.793273	0.0	0.0
H	-1.615407	0.348051	-1.247305
C	-0.422142	1.124599	0.945734
H	-1.514804	1.134725	0.900788
H	-0.00081	2.092007	0.672812
H	-0.080405	0.867954	1.953841
N	-0.550088	-1.274891	0.395106
H	-0.326811	-1.404671	1.378281
H	-1.575974	-1.05689	0.337475
C	-0.218107	-0.890176	-2.394722
H	-0.629012	-0.661615	-3.381776
H	0.856829	-1.044336	-2.491866
H	-0.678501	-1.799436	-2.013169
N	-0.032982	1.528914	-1.983688
O	-0.61266	2.560189	-1.635995
O	0.922185	1.512775	-2.765273
F	-2.899916	0.0	0.0
