19

C	0.0	0.0	0.0
C	-0.263141	0.201282	-1.535621
Cl	1.806836	0.0	0.0
H	0.382598	-0.532122	-2.020877
C	-0.448791	1.178272	0.85296
H	-1.542493	1.16792	0.752952
H	-0.160166	0.98369	1.890972
H	-0.002125	2.125874	0.544354
N	-0.527173	-1.26191	0.416309
H	-0.327238	-1.352599	1.411491
H	-1.559479	-1.054114	0.325329
C	0.039166	1.603915	-2.031737
H	-0.715449	2.299546	-1.669498
H	1.028332	1.922094	-1.703322
H	0.010813	1.622578	-3.123981
N	-1.619541	-0.198749	-2.091774
O	-1.797003	-1.403552	-2.248599
O	-2.360253	0.680871	-2.514802
F	-2.799755	0.0	0.0
