17

C	-0.481521	-0.042167	-1.443931
C	0.0	0.0	0.0
F	-0.247761	1.2205	-2.007317
H	1.094808	0.0	0.0
H	-0.309821	-0.942822	0.472547
C	0.30758	-1.052453	-2.246821
H	0.100767	-2.066273	-1.889894
H	1.373535	-0.854631	-2.108556
H	0.022911	-0.978668	-3.29874
N	-1.914687	-0.258207	-1.636911
H	-2.141571	-1.172362	-1.261388
H	-2.410056	0.423195	-1.069611
C	-0.518572	1.188491	0.798212
H	-0.08523	1.172034	1.801359
H	-0.209663	2.119542	0.321283
H	-1.610521	1.199013	0.905765
H	3.137052	0.0	0.0
