19

C	-0.518384	0.015026	-1.443833
C	0.0	0.0	0.0
Br	0.396686	1.423952	-2.449519
H	1.094582	0.0	0.0
N	-0.115171	-1.304648	-2.08643
O	-1.019777	-2.128784	-2.263714
O	1.069506	-1.504709	-2.311607
C	-2.006302	0.231257	-1.601861
H	-2.239441	1.192802	-1.147716
H	-2.558107	-0.561351	-1.095431
H	-2.29175	0.235879	-2.654886
C	-0.466016	-1.237593	0.753354
H	0.006463	-1.210692	1.738441
H	-0.13491	-2.158795	0.270369
H	-1.555662	-1.285029	0.885965
N	-0.443409	1.244127	0.646631
H	-0.994537	1.034028	1.470122
H	0.403055	1.712135	0.950935
F	2.630363	0.0	0.0
