19

C	-0.276479	-0.075553	-1.501574
C	0.0	0.0	0.0
Br	-2.082474	-0.747488	-1.944471
H	1.097227	0.0	0.0
N	-0.159358	1.338988	-2.072398
O	0.85961	1.929184	-1.734376
O	-1.002687	1.776455	-2.848316
C	0.796719	-0.901702	-2.194099
H	0.640073	-1.958835	-1.973148
H	0.764372	-0.762031	-3.277469
H	1.751236	-0.584675	-1.741968
C	-0.422831	-1.255343	0.741619
H	-1.510306	-1.315541	0.864758
H	-0.085828	-2.159894	0.231379
H	0.052454	-1.23866	1.72647
N	-0.576409	1.210099	0.580048
H	0.191362	1.799641	0.878464
H	-1.134225	0.978329	1.392204
F	2.698432	0.0	0.0
