19

C	-0.285036	0.242459	-1.484768
C	0.0	0.0	0.0
Br	-0.300387	-1.422957	-2.540362
H	1.094655	0.0	0.0
N	-1.685308	0.808704	-1.69901
O	-1.836793	1.675048	-2.556289
O	-2.591828	0.354289	-1.003694
C	0.770943	1.164519	-2.052809
H	0.627337	2.14506	-1.594974
H	0.706333	1.253285	-3.136479
H	1.733446	0.767099	-1.703607
C	-0.544838	-1.249235	0.665008
H	-1.637853	-1.291836	0.643741
H	-0.143867	-2.153123	0.204792
H	-0.208396	-1.237837	1.706546
N	-0.395732	1.252967	0.661918
H	0.353333	1.505001	1.295272
H	-1.250628	1.1239	1.190642
F	2.702863	0.0	0.0
