19

C	-0.300199	-0.01196	-1.500814
C	0.0	0.0	0.0
Br	-0.150962	-1.811122	-2.283445
H	1.106928	0.0	0.0
N	-1.74528	0.399052	-1.764251
O	-1.962698	1.302752	-2.566043
O	-2.617804	-0.188023	-1.125386
C	0.674231	0.898967	-2.215554
H	0.461032	1.92032	-1.902989
H	1.663355	0.613139	-1.83914
H	0.594269	0.822737	-3.300129
C	-0.545701	-1.109766	0.876992
H	-1.636223	-1.070458	0.969056
H	-0.098719	-0.987452	1.868764
H	-0.262636	-2.096272	0.508001
N	-0.407441	1.339128	0.448584
H	-1.211081	1.291565	1.060482
H	0.374171	1.749394	0.946847
F	2.686356	0.0	0.0
