19

C	-0.191249	0.129754	-1.532403
C	0.0	0.0	0.0
Br	0.249936	-1.545546	-2.446541
H	1.09529	0.0	0.0
N	-1.648826	0.425568	-1.832279
O	-1.956964	1.622651	-1.890081
O	-2.46394	-0.49418	-1.858472
C	0.743205	1.192398	-2.075104
H	0.448192	2.17256	-1.703508
H	1.727265	0.92397	-1.662981
H	0.743525	1.210173	-3.166484
C	-0.679842	-1.181549	0.655097
H	-1.772629	-1.10897	0.596172
H	-0.396243	-1.17321	1.708822
H	-0.371229	-2.130394	0.216402
N	-0.361107	1.240867	0.692756
H	0.444117	1.853861	0.664454
H	-1.150735	1.721489	0.275113
F	2.678622	0.0	0.0
