17

C	-0.471667	-0.004412	-1.464823
C	0.0	0.0	0.0
Cl	-0.077863	-1.593457	-2.190197
H	1.09496	0.0	0.0
N	-1.927552	0.11934	-1.492158
H	-2.255069	-0.061189	-2.436314
H	-2.162503	1.081921	-1.264401
C	0.284556	1.054477	-2.253534
H	0.03895	2.048696	-1.868128
H	1.360708	0.896291	-2.150144
H	0.000707	1.007302	-3.308138
N	-0.497645	-1.138014	0.742395
H	-0.020085	-1.189222	1.63549
H	-1.496968	-1.046039	0.887232
C	-0.441	1.28912	0.580863
N	-0.86008	2.273343	1.070295
Br	3.526335	0.0	0.0
