17

C	-0.392191	-0.000535	-1.471671
C	0.0	0.0	0.0
Cl	-2.265506	-0.123024	-1.558279
H	1.095389	0.0	0.0
N	0.072859	1.185668	-2.093634
H	-0.083413	1.172319	-3.093491
H	-0.350159	2.016955	-1.698558
C	0.138639	-1.221612	-2.198691
H	-0.192605	-2.127447	-1.696273
H	-0.210858	-1.233121	-3.23531
H	1.229697	-1.180214	-2.186278
N	-0.456759	-1.196565	0.67782
H	-0.012079	-1.256812	1.587231
H	-1.461361	-1.163776	0.815493
C	-0.433415	1.251048	0.629652
N	-0.79014	2.24623	1.1551
Br	2.755013	0.0	0.0
