17

C	-0.301365	0.019032	-1.499859
C	0.0	0.0	0.0
Cl	-2.111415	0.096737	-1.755505
H	1.100309	0.0	0.0
N	0.277621	1.229613	-2.024207
H	0.294768	1.19052	-3.035972
H	1.238977	1.280504	-1.69235
C	0.194283	-1.260253	-2.150737
H	-0.298749	-2.133659	-1.728308
H	0.010984	-1.217768	-3.22839
H	1.271014	-1.329402	-1.964561
N	-0.466087	-1.213911	0.65125
H	0.139211	-1.40324	1.442276
H	-1.41201	-1.083273	0.990966
C	-0.469063	1.22785	0.658647
N	-0.859241	2.153183	1.26897
Br	3.456124	0.0	0.0
