17

C	-0.493182	0.057891	-1.452164
C	0.0	0.0	0.0
Cl	0.212313	-1.466116	-2.261255
H	1.097982	0.0	0.0
N	-1.910786	0.04342	-1.471449
H	-2.230253	-0.716036	-0.878823
H	-2.259349	-0.078513	-2.415436
C	0.100674	1.235123	-2.194522
H	-0.163997	1.185507	-3.254338
H	1.188013	1.22224	-2.092154
H	-0.301681	2.158668	-1.770532
N	-0.560544	-1.189338	0.670463
H	0.055872	-1.959317	0.430174
H	-0.468358	-1.05642	1.671887
C	-0.463377	1.201764	0.697744
N	-0.814675	2.16861	1.26403
Br	3.508149	0.0	0.0
