17

C	-0.431041	-0.043946	-1.483602
C	0.0	0.0	0.0
Cl	0.012037	1.533668	-2.230551
H	1.094514	0.0	0.0
N	0.291402	-1.082133	-2.184961
H	1.286723	-0.877805	-2.093779
H	0.134164	-1.930668	-1.645495
C	-1.925735	-0.246076	-1.644219
H	-2.20661	-1.208086	-1.203335
H	-2.171166	-0.259881	-2.706712
H	-2.48243	0.556	-1.154749
N	-0.38557	-1.271749	0.62844
H	-1.243612	-1.173155	1.157355
H	0.354256	-1.542724	1.267262
C	-0.536137	1.154307	0.722859
N	-1.025898	2.014761	1.357737
Br	3.487746	0.0	0.0
