17

C	-0.453929	0.105801	-1.471648
C	0.0	0.0	0.0
Cl	-0.00131	1.745536	-2.056143
H	1.093383	0.0	0.0
N	0.243982	-0.86217	-2.290105
H	0.059753	-1.762571	-1.852615
H	1.245367	-0.699117	-2.173044
C	-1.95338	-0.059901	-1.62519
H	-2.243224	-1.050661	-1.265308
H	-2.489285	0.703054	-1.056571
H	-2.215492	0.023417	-2.680421
N	-0.380502	-1.329705	0.504636
H	0.38516	-1.673123	1.075806
H	-1.209022	-1.277685	1.085084
C	-0.526213	1.073469	0.844586
N	-1.016058	1.863439	1.563652
Br	3.455872	0.0	0.0
