17

C	-0.513616	-0.034217	-1.458379
C	0.0	0.0	0.0
Cl	0.0328	-1.624053	-2.139633
H	1.099568	0.0	0.0
N	-1.951239	0.003382	-1.568193
H	-2.257618	0.953495	-1.384517
H	-2.326562	-0.593266	-0.835423
C	0.14058	1.060573	-2.275136
H	-0.159539	0.962891	-3.319628
H	1.225796	0.984757	-2.185362
H	-0.174821	2.04065	-1.903343
N	-0.581357	-1.112582	0.770174
H	-0.049851	-1.939036	0.513537
H	-0.379105	-0.946886	1.750979
C	-0.469405	1.257019	0.590109
N	-0.884154	2.2575	1.045799
Br	3.512706	0.0	0.0
