17

C	-0.432597	1.6e-05	-1.486775
C	0.0	0.0	0.0
Cl	0.047413	-1.585977	-2.19226
H	1.09504	0.0	0.0
N	-1.886507	0.046829	-1.555198
H	-2.18801	0.959175	-1.223128
H	-2.177871	-0.044329	-2.523345
C	0.306409	1.080168	-2.259884
H	0.057834	1.020277	-3.322962
H	0.009716	2.063691	-1.883863
H	1.384278	0.962743	-2.124
N	-0.499103	-1.103665	0.798498
H	-1.390734	-1.399082	0.414312
H	0.161169	-1.865585	0.711737
C	-0.473882	1.269501	0.573788
N	-0.90409	2.290721	0.964895
Br	3.509822	0.0	0.0
