17

C	-0.342195	0.017324	-1.489025
C	0.0	0.0	0.0
Cl	-2.155429	0.086363	-1.691398
H	1.098091	0.0	0.0
N	0.203725	1.23896	-2.027052
H	1.199021	1.254923	-1.80346
H	0.100496	1.243532	-3.035847
C	0.142651	-1.25603	-2.159388
H	1.224619	-1.318506	-2.007312
H	-0.075867	-1.212677	-3.230219
H	-0.329013	-2.134202	-1.722014
N	-0.453916	-1.21392	0.659941
H	-1.406025	-1.098327	0.985403
H	0.143552	-1.384743	1.45952
C	-0.462112	1.227242	0.668362
N	-0.853514	2.135718	1.303016
Br	3.45836	0.0	0.0
