17

C	-0.321659	-0.028107	-1.519706
C	0.0	0.0	0.0
Cl	0.059677	1.665069	-2.181099
H	1.097594	0.0	0.0
N	0.529466	-1.018115	-2.076527
H	1.499774	-0.839652	-1.808727
H	0.458583	-1.039823	-3.085939
C	-1.77679	-0.27771	-1.860879
H	-2.062698	-1.280346	-1.537106
H	-2.417062	0.466508	-1.383658
H	-1.923705	-0.212509	-2.941835
N	-0.40729	-1.201409	0.719156
H	-1.395293	-1.386328	0.586243
H	0.124052	-1.979684	0.343774
C	-0.575358	1.16633	0.665266
N	-1.11772	2.049503	1.216772
Br	3.494304	0.0	0.0
