17

C	-0.251641	0.013374	-1.519108
C	0.0	0.0	0.0
Cl	-2.050657	0.064125	-1.84648
H	1.099272	0.0	0.0
N	0.333909	1.222791	-2.031784
H	0.367712	1.189415	-3.044625
H	1.290693	1.278912	-1.68088
C	0.283163	-1.261714	-2.154967
H	0.149478	-1.214159	-3.238872
H	-0.228383	-2.152268	-1.786726
H	1.351164	-1.326503	-1.922794
N	-0.466693	-1.159615	0.733056
H	-1.373806	-1.4563	0.393144
H	0.20272	-1.910038	0.627971
C	-0.501417	1.228479	0.624011
N	-0.896088	2.200943	1.150227
Br	3.462934	0.0	0.0
