17

C	-0.307693	-0.002732	-1.506248
C	0.0	0.0	0.0
Cl	-2.118423	-0.007239	-1.715379
H	1.097168	0.0	0.0
N	0.205055	1.168157	-2.176592
H	1.219222	1.144976	-2.075725
H	-0.1298	2.006981	-1.712903
C	0.266861	-1.246661	-2.148179
H	-0.151933	-2.139297	-1.687154
H	0.0508	-1.226669	-3.217022
H	1.349538	-1.242048	-1.985123
N	-0.464705	-1.191734	0.686668
H	0.120916	-1.348866	1.500414
H	-1.426649	-1.076644	0.98721
C	-0.458379	1.255347	0.616494
N	-0.837182	2.235028	1.144979
Br	3.471787	0.0	0.0
