17

C	-0.556573	0.012978	-1.435711
C	0.0	0.0	0.0
Cl	0.006694	1.546965	-2.223286
H	1.09347	0.0	0.0
N	0.006623	-1.103327	-2.129307
H	0.042036	-1.888697	-1.484867
H	-0.545511	-1.338883	-2.947314
C	-2.081305	0.053048	-1.455682
H	-2.465594	-0.851917	-0.975934
H	-2.428849	0.068602	-2.491555
H	-2.475839	0.936194	-0.949601
N	-0.379664	-1.265379	0.647608
H	-1.22067	-1.158714	1.204503
H	0.381098	-1.535694	1.263972
C	-0.480958	1.161445	0.75774
N	-0.917372	2.021281	1.429386
Br	3.518309	0.0	0.0
