16

C	0.0	0.0	0.0
C	-0.195238	0.113237	-1.5478
Cl	1.83739	0.0	0.0
H	0.189768	1.118894	-1.763362
H	0.506271	-0.581126	-2.010524
N	-0.636176	0.900052	0.840229
H	-1.690369	0.608023	0.651628
H	-0.494486	1.826607	0.451631
N	-0.358295	-1.421218	0.464568
O	-0.298572	-2.308971	-0.381899
O	-0.61667	-1.588084	1.646553
C	-1.544947	-0.060231	-2.230264
H	-1.389264	0.138682	-3.299833
H	-2.311296	0.576646	-1.80602
H	-1.905971	-1.079386	-2.106627
F	-2.838288	0.0	0.0
