16

C	0.0	0.0	0.0
C	-0.476953	-0.254186	-1.418954
Cl	1.808858	0.0	0.0
H	0.077182	-1.096129	-1.833887
H	-1.534591	-0.505157	-1.288034
N	-0.596297	1.101564	0.580308
H	-0.387095	1.109792	1.572519
H	-1.645252	0.84521	0.428797
N	-0.269157	-1.314969	0.840189
O	-0.264627	-2.394641	0.261655
O	-0.419879	-1.164412	2.048242
C	-0.341523	0.992642	-2.282041
H	-1.005878	1.769285	-1.904656
H	-0.625768	0.764072	-3.314414
H	0.680859	1.381568	-2.285128
F	-2.817694	0.0	0.0
