16

C	0.0	0.0	0.0
C	-0.508303	-0.131429	-1.435441
Cl	1.771754	0.0	0.0
H	-1.576497	-0.340944	-1.29307
H	-0.43715	0.891362	-1.819339
N	-0.591854	1.096748	0.619956
H	-1.633106	0.866484	0.458541
H	-0.390928	1.057973	1.613532
N	-0.317512	-1.32007	0.809462
O	-0.367012	-1.199326	2.029763
O	-0.456286	-2.378334	0.208564
C	0.190616	-1.085016	-2.39463
H	0.161228	-2.110722	-2.032691
H	1.232683	-0.807487	-2.572592
H	-0.329837	-1.049497	-3.357653
F	-2.834506	0.0	0.0
