12

C	0.0	0.0	0.0
C	-0.505347	0.125612	-1.422363
Br	1.931825	0.0	0.0
H	-1.614508	0.178074	-1.308081
H	-0.364448	-0.930472	0.427416
H	-0.361191	0.840831	0.583835
C	-0.112348	-0.98222	-2.27993
N	0.171617	-1.909637	-2.94215
N	-0.051263	1.424799	-2.031389
O	-0.127349	2.413624	-1.310717
O	0.324276	1.419977	-3.201375
Cl	-3.282155	0.0	0.0
