12

C	0.0	0.0	0.0
C	-0.365925	-0.262993	-1.469441
Br	1.933174	0.0	0.0
H	0.486194	0.036012	-2.090258
H	-0.420699	-0.740641	0.662479
H	-0.308146	0.994597	0.290198
C	-1.485412	0.417469	-2.131105
N	-2.042213	0.974149	-3.007687
N	-0.441825	-1.771535	-1.746599
O	-0.401131	-2.547655	-0.796497
O	-0.482461	-2.096509	-2.93422
Cl	-3.028308	0.0	0.0
