12

C	0.0	0.0	0.0
C	-0.575215	-0.035937	-1.395733
Br	1.931679	0.0	0.0
H	-1.684758	-0.023031	-1.219947
H	-0.346928	0.896913	0.504047
H	-0.34854	-0.877409	0.539959
C	-0.184935	-1.204954	-2.166761
N	0.104875	-2.186663	-2.742722
N	-0.25899	1.21379	-2.166643
O	-0.177281	1.124107	-3.389123
O	-0.172557	2.252431	-1.520597
Cl	-3.367002	0.0	0.0
