12

C	0.0	0.0	0.0
C	-0.447542	0.510135	-1.378975
Br	1.931264	0.0	0.0
H	0.44161	0.688716	-1.996115
H	-0.359587	0.642418	0.795929
H	-0.350583	-1.013843	0.153565
C	-1.171052	1.775939	-1.362964
N	-1.512568	2.898327	-1.420149
N	-1.154201	-0.538132	-2.215644
O	-1.81025	-0.121965	-3.158794
O	-0.865148	-1.705953	-1.994127
Cl	-3.024748	0.0	0.0
