12

C	0.0	0.0	0.0
C	-0.271977	-0.186641	-1.501598
Br	1.933639	0.0	0.0
H	0.416442	0.46021	-2.051804
H	-0.352107	0.962143	0.350819
H	-0.38395	-0.819596	0.593021
C	-1.566677	0.003543	-2.171643
N	-2.215102	0.108238	-3.150979
N	0.183669	-1.580712	-1.916453
O	0.006282	-2.499323	-1.128074
O	0.6765	-1.674495	-3.035948
Cl	-3.018302	0.0	0.0
