12

C	0.0	0.0	0.0
C	-0.554277	0.126142	-1.400614
Br	1.931851	0.0	0.0
H	-1.664212	0.146891	-1.244715
H	-0.351364	-0.933521	0.433048
H	-0.35134	0.834874	0.598364
C	-0.174272	-0.963618	-2.285107
N	0.098965	-1.882095	-2.964387
N	-0.179838	1.442914	-2.020469
O	0.030034	1.47278	-3.230379
O	-0.167095	2.413472	-1.271147
Cl	-3.343076	0.0	0.0
