16

C	-0.388623	-0.056079	-1.474089
C	0.0	0.0	0.0
Br	-0.165336	1.899366	-2.175489
H	1.101566	0.0	0.0
H	-0.400737	0.893383	0.477195
N	0.493019	-0.9369	-2.119531
H	0.364034	-0.969508	-3.120697
H	1.465118	-0.743038	-1.882552
C	-1.841104	-0.378295	-1.757453
H	-2.054376	-1.373538	-1.367473
H	-2.491247	0.341778	-1.261138
H	-2.043261	-0.346555	-2.831308
N	-0.535366	-1.198587	0.676932
H	-0.01691	-1.986891	0.300162
H	-0.250887	-1.131685	1.649564
Br	3.668692	0.0	0.0
