16

C	-0.549377	0.003878	-1.421087
C	0.0	0.0	0.0
Br	-0.058578	-1.74407	-2.253922
H	1.094032	0.0	0.0
H	-0.326241	0.959229	0.427592
N	-1.991675	0.09134	-1.486796
H	-2.244832	1.058542	-1.30541
H	-2.346094	-0.470172	-0.716261
C	0.111205	1.08902	-2.244074
H	-0.2474	1.058091	-3.274442
H	-0.139971	2.064232	-1.809028
H	1.195381	0.972903	-2.214867
N	-0.615308	-1.067664	0.800152
H	-0.141677	-1.931222	0.553868
H	-0.378051	-0.893409	1.770569
Br	3.708056	0.0	0.0
