16

C	-0.44311	-0.001246	-1.448344
C	0.0	0.0	0.0
Br	-2.612196	0.065775	-1.319529
H	1.097145	0.0	0.0
H	-0.325724	0.945074	0.457985
N	0.018973	1.110366	-2.124823
H	-0.073745	1.981734	-1.623328
H	-0.284008	1.183589	-3.084001
C	-0.167324	-1.28943	-2.178083
H	-0.617983	-2.118777	-1.639568
H	-0.552705	-1.254719	-3.200154
H	0.920342	-1.413947	-2.195756
N	-0.451994	-1.18354	0.716486
H	0.284435	-1.47947	1.346044
H	-1.289892	-0.988945	1.246321
Br	3.666173	0.0	0.0
