16

C	-0.452839	-0.062289	-1.46173
C	0.0	0.0	0.0
Br	-0.0906	1.717091	-2.249622
H	1.093309	0.0	0.0
H	-0.37953	0.899451	0.497473
N	0.301762	-1.034211	-2.229927
H	0.147626	-1.919694	-1.750979
H	1.291665	-0.822575	-2.103018
C	-1.937629	-0.331452	-1.614423
H	-2.203367	-0.33728	-2.671873
H	-2.157097	-1.310362	-1.18063
H	-2.528171	0.428371	-1.096432
N	-0.40891	-1.253943	0.658757
H	-1.192036	-1.097354	1.277966
H	0.367553	-1.581604	1.217906
Br	3.638043	0.0	0.0
