16

C	-0.5546	0.035499	-1.425993
C	0.0	0.0	0.0
Br	-0.036286	-1.659034	-2.288033
H	1.097473	0.0	0.0
H	-0.362703	-0.906346	0.494577
N	-2.011009	0.108986	-1.487429
H	-2.383964	-0.745301	-1.082296
H	-2.243867	0.860337	-0.83747
C	0.050502	1.181924	-2.212183
H	-0.286212	2.122071	-1.762524
H	1.140708	1.136774	-2.170135
H	-0.295867	1.150434	-3.24613
N	-0.519531	1.191742	0.709628
H	-0.680657	0.945528	1.678381
H	0.223616	1.882258	0.722139
Br	3.701095	0.0	0.0
