16

C	-0.318466	0.016215	-1.484115
C	0.0	0.0	0.0
Br	-2.326892	0.207125	-1.706864
H	1.098178	0.0	0.0
H	-0.334845	0.952533	0.429381
N	0.289542	1.191889	-2.042448
H	1.239593	1.250596	-1.677177
H	0.341661	1.112959	-3.051197
C	0.058531	-1.286509	-2.162361
H	-0.17385	-1.245282	-3.230698
H	1.139274	-1.411543	-2.028394
H	-0.455635	-2.12909	-1.702477
N	-0.493876	-1.186253	0.682472
H	0.154577	-1.424739	1.421159
H	-1.39731	-0.998721	1.096251
Br	3.604005	0.0	0.0
