15

C	-0.516967	0.011638	-1.409683
C	0.0	0.0	0.0
Br	0.289502	1.348623	-2.542443
H	1.089868	0.0	0.0
H	-0.291545	-0.94698	-1.868177
N	-2.016189	0.158767	-1.542728
O	-2.581391	0.917709	-0.764075
O	-2.549065	-0.480727	-2.442978
N	-0.460027	-1.242783	0.668667
O	0.131382	-1.576886	1.687709
O	-1.388257	-1.873681	0.146615
N	-0.428435	1.151333	0.838387
O	-1.03743	0.934025	1.882165
O	-0.091819	2.254263	0.425025
F	2.44054	0.0	0.0
