15

C	-0.598509	-0.0201	-1.395723
C	0.0	0.0	0.0
Br	0.390659	-1.191197	-2.552284
H	1.087972	0.0	0.0
H	-1.631456	-0.354494	-1.395083
N	-0.634903	1.378237	-1.968635
O	-1.69125	1.970954	-1.7474
O	0.333759	1.819689	-2.563123
N	-0.448966	-1.201705	0.750427
O	-1.223658	-1.994256	0.210453
O	0.025744	-1.329858	1.875119
N	-0.503486	1.183765	0.75241
O	0.071711	2.2425	0.517581
O	-1.449439	1.038588	1.526565
F	2.443469	0.0	0.0
