17

C	0.0	0.0	0.0
C	-0.558364	-0.26128	-1.417806
Cl	1.79274	0.0	0.0
H	-1.663895	-0.228833	-1.285552
C	-0.472148	1.364644	0.478547
H	-1.5656	1.367377	0.498819
H	-0.109924	2.156881	-0.180158
H	-0.089324	1.548093	1.484961
C	-0.470712	-1.108886	0.930035
H	-0.134826	-0.892397	1.946791
H	-1.564127	-1.140627	0.912646
H	-0.062258	-2.076129	0.627951
C	-0.181935	-1.577816	-1.935737
N	0.11064	-2.632052	-2.362672
C	-0.166428	0.774821	-2.375172
N	0.135036	1.600716	-3.153667
Br	-3.859052	0.0	0.0
