17

C	0.06234	0.026364	0.031611
C	-0.587249	0.250887	-1.349351
Cl	1.858571	-0.186634	-0.152046
H	-1.660511	0.413038	-1.148351
C	-0.116954	1.223758	0.857497
N	-0.262384	2.168673	1.540795
C	-0.50987	-1.192715	0.740793
H	-1.602161	-1.130267	0.719443
H	-0.137582	-1.236131	1.765768
H	-0.202686	-2.097598	0.215969
C	-0.50782	-0.967492	-2.269526
H	-0.903431	-0.694667	-3.249197
H	-1.154128	-1.748195	-1.871386
H	0.519412	-1.319808	-2.386
C	-0.02074	1.437163	-1.990143
N	0.430988	2.373389	-2.53785
Cl	-3.697547	-0.809434	-0.742569
