17

C	0.062559	0.025333	0.029542
C	-0.572344	0.23359	-1.360775
Cl	1.859406	-0.19901	-0.133393
H	-1.646634	0.403976	-1.172588
C	-0.118772	1.235051	0.836816
N	-0.265908	2.190274	1.505252
C	-0.522737	-1.180802	0.750114
H	-0.160634	-1.21159	1.779187
H	-1.614435	-1.11317	0.717086
H	-0.215101	-2.094556	0.241162
C	-0.490123	-0.998	-2.26289
H	0.536405	-1.35695	-2.364341
H	-1.144159	-1.769818	-1.860073
H	-0.874808	-0.73716	-3.250146
C	0.006439	1.407964	-2.012467
N	0.467998	2.334203	-2.568888
Cl	-3.693626	-0.803268	-0.769674
