15

C	-0.392637	-0.040383	-1.473875
C	0.0	0.0	0.0
Cl	-0.032979	-1.62971	-2.159424
H	1.09153	0.0	0.0
H	0.143525	0.703577	-2.053016
N	-1.855598	0.223676	-1.7108
O	-2.156145	0.814145	-2.740874
O	-2.645697	-0.200258	-0.869092
N	-0.455883	-1.013829	0.867339
H	-1.321776	-1.441101	0.583568
H	0.273257	-1.684221	1.052971
N	-0.397192	1.377067	0.517264
O	-0.374273	1.563986	1.722738
O	-0.654675	2.236026	-0.332327
Br	3.377326	0.0	0.0
