15

C	-0.487232	-0.109102	-1.445203
C	0.0	0.0	0.0
Cl	-2.240764	-0.360288	-1.555821
H	1.090894	0.0	0.0
H	0.00984	-0.963529	-1.898952
N	-0.091453	1.076255	-2.30122
O	-0.865355	2.020015	-2.3937
O	1.011994	0.970596	-2.82388
N	-0.386309	-1.08675	0.825461
H	-1.275364	-1.504856	0.603662
H	0.363077	-1.759399	0.890576
N	-0.500447	1.305957	0.572055
O	0.101179	2.31536	0.212914
O	-1.473312	1.276619	1.320224
Br	3.40034	0.0	0.0
