15

C	-0.594735	0.005251	-1.399478
C	0.0	0.0	0.0
Cl	0.057239	1.300151	-2.393622
H	1.08916	0.0	0.0
H	-1.67868	0.09438	-1.368541
N	-0.32612	-1.332286	-2.036846
O	-1.323978	-2.028118	-2.233196
O	0.833019	-1.625122	-2.286306
N	-0.477797	-1.139099	0.706374
H	-1.435597	-1.025903	1.012401
H	0.136672	-1.355016	1.479946
N	-0.485525	1.303848	0.627747
O	-1.712202	1.398025	0.764939
O	0.332837	2.148715	0.968222
Br	3.493049	0.0	0.0
