15

C	-0.434792	-0.016456	-1.455537
C	0.0	0.0	0.0
Cl	-0.192327	-1.595662	-2.191186
H	1.094024	0.0	0.0
H	0.119641	0.71541	-2.034407
N	-1.89029	0.352046	-1.622804
O	-2.639427	0.168735	-0.665268
O	-2.223193	0.801301	-2.713181
N	-0.471832	-1.053821	0.805364
H	0.142608	-1.181991	1.593962
H	-1.421256	-0.907527	1.109658
N	-0.366893	1.391987	0.526021
O	-0.310626	2.328902	-0.271691
O	-0.656473	1.490716	1.712831
Br	3.381803	0.0	0.0
