15

C	-0.57497	-0.052306	-1.40528
C	0.0	0.0	0.0
Cl	-2.343339	0.038647	-1.378517
H	1.091325	0.0	0.0
H	-0.290687	-1.012913	-1.82664
N	0.000772	0.976864	-2.357769
O	1.13903	0.709594	-2.715779
O	-0.672859	1.935639	-2.70093
N	-0.435673	-1.139904	0.730403
H	0.232246	-1.328037	1.464807
H	-1.346204	-0.983773	1.13862
N	-0.407199	1.320392	0.638976
O	-1.04156	1.286632	1.690825
O	-0.055168	2.336513	0.052033
Br	3.408375	0.0	0.0
