17

C	0.0	0.0	0.0
C	-0.529668	-0.068684	-1.459706
Br	1.965889	0.0	0.0
H	-1.617323	0.064341	-1.369491
C	-0.391391	1.247146	0.652582
N	-0.661284	2.268234	1.16925
C	-0.483488	-1.211442	0.783367
H	-0.065965	-2.120508	0.347246
H	-0.154513	-1.138672	1.820983
H	-1.577757	-1.221136	0.738063
N	-0.222245	-1.249265	-2.192558
H	0.741753	-1.534127	-2.074464
H	-0.858281	-1.991008	-1.938066
N	-0.009953	1.118625	-2.235341
O	1.000562	0.953	-2.916642
O	-0.624158	2.175897	-2.109996
Br	-3.797609	0.0	0.0
