17

C	0.0	0.0	0.0
C	-0.535737	-0.173766	-1.428904
Br	1.968057	0.0	0.0
H	-1.628484	-0.051115	-1.341778
C	-0.394782	1.267342	0.610736
N	-0.62081	2.257734	1.203442
C	-0.479781	-1.162387	0.864808
H	-0.146773	-1.01706	1.893836
H	-0.087726	-2.096194	0.465335
H	-1.573301	-1.162243	0.822689
N	-0.193702	-1.435038	-1.974767
H	0.765949	-1.428407	-2.29914
H	-0.800776	-1.647001	-2.755173
N	-0.048301	0.992564	-2.299701
O	-0.464487	2.111182	-2.019563
O	0.725654	0.730167	-3.22196
Br	-3.795404	0.0	0.0
