17

C	0.0	0.0	0.0
C	-0.465512	0.039857	-1.462037
Br	1.977359	0.0	0.0
H	-1.544929	-0.107995	-1.430006
C	-0.398534	1.167929	0.773036
N	-0.586584	2.12842	1.427835
C	-0.374578	-1.318829	0.665594
H	-1.459526	-1.390273	0.745621
H	0.091106	-1.366072	1.651828
H	0.032525	-2.137987	0.069304
N	0.156287	-0.879306	-2.373515
H	-0.283079	-1.781679	-2.348442
H	1.153846	-0.95612	-2.224839
N	-0.260296	1.415846	-2.050512
O	-1.25253	2.100199	-2.253712
O	0.896635	1.726432	-2.327371
Br	-3.556689	0.0	0.0
