17

C	0.0	0.0	0.0
C	-0.410017	0.01969	-1.513607
Br	1.962895	0.0	0.0
H	0.120008	0.853112	-1.975858
C	-0.372706	1.317039	0.520573
N	-0.63914	2.390997	0.918348
C	-0.588001	-1.099867	0.864182
H	-1.679992	-1.014468	0.829492
H	-0.260159	-0.96438	1.896496
H	-0.280851	-2.079898	0.506672
N	-1.785014	0.080515	-1.832555
H	-2.387623	-0.532916	-1.286412
H	-2.164651	1.008641	-1.694957
N	0.153762	-1.202262	-2.203069
O	-0.29085	-2.292437	-1.85281
O	0.975773	-1.019996	-3.09806
Br	-4.445773	0.0	0.0
