11

C	-0.476211	-0.031403	-1.437841
C	0.0	0.0	0.0
F	-0.030129	1.086927	-2.124592
H	1.093023	0.0	0.0
H	-1.569477	-0.024708	-1.529701
H	-0.311439	-0.925637	0.49726
C	0.023907	-1.237612	-2.127431
N	0.418964	-2.185935	-2.694103
C	-0.583578	1.130357	0.695349
N	-1.060373	2.045323	1.259296
F	2.532457	0.0	0.0
