11

C	-0.433772	-0.097197	-1.435777
C	0.0	0.0	0.0
F	-1.822839	-0.304793	-1.577864
H	1.097914	0.0	0.0
H	0.058902	-0.957368	-1.895297
H	-0.313238	-0.922202	0.502111
C	-0.094929	1.099907	-2.225147
N	0.20424	2.037872	-2.868871
C	-0.594351	1.132077	0.684274
N	-1.079283	2.036924	1.25472
F	2.527829	0.0	0.0
