11

C	-0.329181	-0.013511	-1.482367
C	0.0	0.0	0.0
F	0.047773	-1.237998	-2.013907
H	1.093084	0.0	0.0
H	0.262581	0.759607	-1.980111
H	-0.401112	-0.901849	0.469431
C	-1.759393	0.174351	-1.805491
N	-2.896439	0.318626	-2.060758
C	-0.52845	1.188113	0.636334
N	-0.953636	2.161345	1.141471
F	2.541559	0.0	0.0
