17

C	-0.360289	-0.214869	-1.472995
C	0.0	0.0	0.0
F	-0.07367	1.015258	-2.115403
H	1.092125	0.0	0.0
N	0.377269	-1.290474	-1.991704
H	0.29868	-1.347749	-2.998604
H	1.351924	-1.223483	-1.698162
C	-1.812996	-0.409169	-1.700976
N	-2.963346	-0.525568	-1.910173
N	-0.459677	-1.199862	0.767686
O	-1.578012	-1.140577	1.290047
O	0.290105	-2.16856	0.822819
C	-0.566621	1.269128	0.590754
H	-0.113798	2.118322	0.0799
H	-0.299932	1.322816	1.647626
H	-1.653341	1.314739	0.500742
Cl	3.327736	0.0	0.0
