17

C	-0.349667	0.040516	-1.492799
C	0.0	0.0	0.0
F	-1.651423	0.510197	-1.690597
H	1.091869	0.0	0.0
N	0.558569	0.952567	-2.102746
H	0.544052	0.867861	-3.110962
H	1.506948	0.804757	-1.752381
C	-0.353238	-1.305506	-2.124693
N	-0.363205	-2.32017	-2.716774
N	-0.514257	-1.260167	0.608914
O	-1.672736	-1.254313	1.035592
O	0.235009	-2.235036	0.616182
C	-0.526087	1.214113	0.733642
H	-0.126866	2.105132	0.24953
H	-0.167278	1.189817	1.764379
H	-1.613486	1.244897	0.726657
Cl	3.310369	0.0	0.0
