17

C	-0.491616	0.073299	-1.445421
C	0.0	0.0	0.0
F	0.088911	-0.976316	-2.164234
H	1.090354	0.0	0.0
N	-1.911615	0.085955	-1.571164
H	-2.262243	-0.794511	-1.21286
H	-2.166913	0.185185	-2.547104
C	0.015615	1.322857	-2.060338
N	0.347828	2.312341	-2.597083
N	-0.415865	-1.280194	0.657703
O	0.067075	-1.493543	1.761859
O	-1.219982	-2.034274	0.097792
C	-0.49474	1.15554	0.854627
H	-1.584926	1.170414	0.91591
H	-0.149802	2.094779	0.420055
H	-0.056768	1.066252	1.84822
Cl	3.281683	0.0	0.0
