17

C	-0.35943	0.088317	-1.486207
C	0.0	0.0	0.0
F	-1.708756	0.431786	-1.639364
H	1.091667	0.0	0.0
N	0.439954	1.139554	-2.037581
H	1.408871	1.032664	-1.734985
H	0.404827	1.12546	-3.049381
C	-0.21885	-1.189241	-2.241318
N	-0.093173	-2.111398	-2.960003
N	-0.480642	-1.283261	0.592077
O	-1.395308	-1.240003	1.417752
O	0.068577	-2.314601	0.211022
C	-0.520917	1.192815	0.770803
H	-0.114447	2.09575	0.316637
H	-0.171863	1.132161	1.802044
H	-1.608485	1.234305	0.763134
Cl	3.276398	0.0	0.0
