17

C	-0.352831	0.122622	-1.478907
C	0.0	0.0	0.0
F	-1.682068	0.500573	-1.660142
H	1.096321	0.0	0.0
N	0.482052	1.16764	-1.997746
H	1.441691	1.035853	-1.672611
H	0.473192	1.153184	-3.010233
C	-0.194674	-1.142241	-2.243252
N	-0.024781	-2.051621	-2.967967
N	-0.512337	-1.24756	0.626827
O	-1.357407	-1.912045	0.022067
O	-0.09768	-1.498859	1.754717
C	-0.513315	1.179496	0.808264
H	-1.604567	1.167074	0.864103
H	-0.189804	2.101868	0.327744
H	-0.088865	1.129611	1.810857
Cl	3.274576	0.0	0.0
