16

C	0.0	0.0	0.0
C	-0.46888	-0.041192	-1.470417
Cl	1.838069	0.0	0.0
H	-1.551808	0.140087	-1.416743
C	-0.351231	1.252422	0.686176
N	-0.532941	2.228301	1.314084
N	-0.491827	-1.103313	0.751216
H	-1.488177	-0.913513	0.913374
H	-0.441408	-1.917082	0.144122
N	-0.18211	-1.307818	-2.044367
H	0.768638	-1.331287	-2.391355
H	-0.818516	-1.498235	-2.805626
N	0.129057	1.114672	-2.261501
O	0.897831	0.84622	-3.184968
O	-0.203102	2.245412	-1.921631
Br	-3.625634	0.0	0.0
