16

C	0.0	0.0	0.0
C	-0.516698	0.151551	-1.462685
Cl	1.781579	0.0	0.0
H	-1.581062	0.39552	-1.375065
C	-0.36397	1.162823	0.83882
N	-0.541553	2.018322	1.626076
N	-0.504984	-1.246345	0.503572
H	-0.239958	-1.331952	1.47966
H	-1.532594	-1.159825	0.473075
N	-0.336141	-0.986293	-2.293837
H	-1.019091	-1.680257	-2.016114
H	0.592063	-1.3759	-2.171615
N	0.153267	1.345081	-2.083631
O	-0.23715	2.447248	-1.700112
O	1.04768	1.149519	-2.902453
Br	-3.632804	0.0	0.0
