16

C	0.0	0.0	0.0
C	-0.322685	0.111025	-1.541277
Cl	1.785246	0.0	0.0
H	0.219542	0.973615	-1.929543
C	-0.409538	1.290862	0.572692
N	-0.660059	2.367427	0.971033
N	-0.576583	-1.06402	0.746436
H	-0.52063	-1.922208	0.210806
H	-1.557746	-0.84907	0.930308
N	-1.673037	0.144394	-1.942445
H	-2.311046	-0.38609	-1.347569
H	-2.032771	1.089874	-1.940856
N	0.329773	-1.064609	-2.24744
O	1.076621	-0.820042	-3.188938
O	0.02361	-2.192592	-1.861794
Br	-4.213031	0.0	0.0
