16

C	0.0	0.0	0.0
C	-0.613981	0.376228	-1.354871
Cl	1.835314	0.0	0.0
H	-1.683933	0.545003	-1.127812
C	-0.312988	0.970591	1.063943
N	-0.459143	1.679383	1.988619
N	-0.520981	-1.249635	0.33754
H	-0.183901	-1.626858	1.206978
H	-0.495848	-1.890079	-0.441933
N	-0.449886	-0.67927	-2.29279
H	-1.260443	-0.727971	-2.894666
H	0.383389	-0.536193	-2.848747
N	-0.019786	1.68903	-1.825111
O	0.682838	1.674506	-2.835947
O	-0.269585	2.681667	-1.148055
Br	-3.845725	0.0	0.0
