13

C	-0.566078	0.000503	-1.412365
C	0.0	0.0	0.0
Cl	-0.048019	1.447755	-2.336032
H	1.093176	0.0	0.0
H	-1.659957	0.052956	-1.380516
H	-0.326066	0.932185	0.473166
C	-0.211723	-1.206584	-2.161257
N	0.021346	-2.199215	-2.744729
C	-0.510348	-1.203169	0.787954
H	-0.140778	-1.145337	1.813591
H	-0.1358	-2.136344	0.361278
H	-1.605308	-1.248599	0.819977
Cl	3.507567	0.0	0.0
