16

C	-0.612712	0.063698	-1.388737
C	0.0	0.0	0.0
Cl	-2.398038	-0.02029	-1.324094
H	1.091826	0.0	0.0
C	-0.242075	1.325928	-2.022384
N	0.052809	2.319675	-2.575186
N	-0.08128	-1.046418	-2.335696
O	1.112821	-0.944242	-2.566292
O	-0.858745	-1.875273	-2.775847
N	-0.411931	-1.283413	0.643025
O	-0.255899	-2.309613	-0.017902
O	-0.834017	-1.254485	1.800714
N	-0.390293	1.155903	0.735429
H	-1.208631	0.986133	1.30533
H	0.386632	1.412963	1.330826
F	2.470357	0.0	0.0
