16

C	-0.558003	-0.006757	-1.429962
C	0.0	0.0	0.0
Cl	0.083324	-1.306878	-2.43278
H	1.089165	0.0	0.0
C	-2.019544	-0.0462	-1.468389
N	-3.19079	-0.144758	-1.464279
N	-0.117682	1.340512	-2.051776
O	-0.993511	2.188611	-2.173537
O	1.061456	1.445068	-2.340877
N	-0.489901	-1.266458	0.666834
O	-1.47525	-1.177788	1.411282
O	0.115953	-2.310075	0.437201
N	-0.45801	1.17589	0.653915
H	0.251665	1.465367	1.311415
H	-1.346472	1.044956	1.116844
F	2.502193	0.0	0.0
