16

C	-0.622473	0.070801	-1.383192
C	0.0	0.0	0.0
Cl	-2.40804	0.00318	-1.304644
H	1.091842	0.0	0.0
C	-0.243742	1.329398	-2.018189
N	0.043166	2.316522	-2.587151
N	-0.108757	-1.042871	-2.336721
O	-0.90048	-1.853329	-2.785073
O	1.087592	-0.960834	-2.563023
N	-0.415561	-1.278894	0.647466
O	-0.802671	-1.246422	1.816701
O	-0.297224	-2.30629	-0.020612
N	-0.377288	1.159361	0.738055
H	-1.190829	0.995459	1.31539
H	0.406807	1.412111	1.325117
F	2.468577	0.0	0.0
