14

C	0.0	0.0	0.0
C	-0.653133	-0.024692	-1.373952
Br	1.941094	0.0	0.0
H	-1.755757	0.006483	-1.157778
H	-0.344782	-0.865678	0.562588
N	-0.437986	1.210551	0.785449
O	-0.68114	2.227927	0.149643
O	-0.456581	1.07783	2.001138
C	-0.297211	-1.242185	-2.08283
N	-0.014789	-2.230925	-2.652157
N	-0.347107	1.140111	-2.29144
O	-1.302321	1.57168	-2.923777
O	0.813168	1.523422	-2.382909
Cl	-3.433896	0.0	0.0
