13
Coordinates from ORCA-job run
  C   -0.68005127210765      0.26868628728077      0.32755470582552
  C   0.80465343379562      0.58748666210081      0.52363999505658
  Br  -1.69497772533883      1.93798510378992      0.50707447983717
  H   0.93442343763182      1.10669256085612      1.47642638577224
  H   -1.03382930000571     -0.35816761560433      1.15093296397606
  H   1.12293459225095      1.28025768651246     -0.26110896997817
  C   -1.00244745412319     -0.37279984342337     -1.00862504619403
  H   -2.07362623015458     -0.54745776946852     -1.11492478245223
  H   -0.67610748430044      0.26949580664309     -1.83012840879505
  H   -0.49555804228457     -1.33793743221905     -1.09261790778881
  N   1.68977474970255     -0.56743849124726      0.50718344149684
  H   1.41853517740786     -1.24479575150235      1.20866212312810
  H   1.68727611752618     -1.02300720371826     -0.39506897988423
