16

C	-0.435765	-0.070244	-1.432244
C	0.0	0.0	0.0
Br	0.407348	1.291787	-2.533096
H	1.092541	0.0	0.0
H	-0.18876	-1.034185	-1.863569
N	-1.92906	0.071	-1.559075
O	-2.439217	1.176719	-1.395599
O	-2.547619	-0.976208	-1.763324
N	-0.322791	-1.252888	0.66448
O	-0.531895	-1.221279	1.888493
O	-0.211295	-2.307427	0.015818
C	-0.432318	1.205363	0.798277
H	0.171021	1.243959	1.705997
H	-0.237812	2.107026	0.216029
H	-1.488814	1.178139	1.072262
H	2.438539	0.0	0.0
