16

C	-0.49895	0.061192	-1.409023
C	0.0	0.0	0.0
Br	-2.449654	-0.122574	-1.593037
H	1.093407	0.0	0.0
H	-0.266388	1.046541	-1.808041
N	0.191877	-0.874277	-2.385521
O	1.295663	-0.45725	-2.727113
O	-0.344148	-1.905399	-2.761545
N	-0.363431	-1.232563	0.670475
O	-0.677122	-1.192421	1.871049
O	-0.211662	-2.281446	0.027419
C	-0.392296	1.221297	0.800796
H	0.12216	1.184955	1.760842
H	-0.047981	2.113796	0.270963
H	-1.468817	1.283918	0.973822
H	2.468802	0.0	0.0
