16

C	-0.456867	-0.086554	-1.424007
C	0.0	0.0	0.0
Br	0.436804	1.19918	-2.573681
H	1.092608	0.0	0.0
H	-0.268695	-1.073946	-1.831288
N	-1.946344	0.125126	-1.517771
O	-2.39793	1.266752	-1.482084
O	-2.620417	-0.907085	-1.550048
N	-0.317289	-1.23963	0.691557
O	-0.511623	-1.180634	1.916244
O	-0.212684	-2.306893	0.065044
C	-0.426176	1.222461	0.775921
H	-0.236529	2.110622	0.171741
H	-1.481201	1.200865	1.058032
H	0.181657	1.283046	1.678803
H	2.43679	0.0	0.0
