16

C	-0.452301	-0.085466	-1.42511
C	0.0	0.0	0.0
Br	0.437809	1.211745	-2.567113
H	1.092534	0.0	0.0
H	-0.253884	-1.070478	-1.83409
N	-1.941951	0.115887	-1.528452
O	-2.401977	1.254173	-1.463876
O	-2.608539	-0.919513	-1.601659
N	-0.321134	-1.242186	0.685532
O	-0.530614	-1.188578	1.908522
O	-0.207919	-2.306883	0.055584
C	-0.426351	1.217572	0.781998
H	0.186147	1.272427	1.681253
H	-1.479181	1.193301	1.06826
H	-0.240597	2.10945	0.183259
H	2.438311	0.0	0.0
