16

C	-0.508867	0.05221	-1.405115
C	0.0	0.0	0.0
Br	-2.460374	-0.138863	-1.564996
H	1.093375	0.0	0.0
H	-0.281951	1.034012	-1.81394
N	0.177279	-0.889271	-2.378429
O	1.278161	-0.471356	-2.729796
O	-0.357463	-1.924095	-2.744316
N	-0.366222	-1.230605	0.671955
O	-0.671516	-1.18681	1.874655
O	-0.229505	-2.281373	0.025725
C	-0.384521	1.224409	0.80074
H	-0.04579	2.114772	0.262904
H	-1.459572	1.287418	0.985632
H	0.141656	1.192662	1.755539
H	2.464939	0.0	0.0
