16

C	-0.534478	0.035997	-1.394245
C	0.0	0.0	0.0
Br	-2.497056	-0.095142	-1.511857
H	1.0934	0.0	0.0
H	-0.29162	1.001669	-1.833885
N	0.098814	-0.949399	-2.36131
O	-0.49928	-1.948686	-2.730279
O	1.223106	-0.600146	-2.71159
N	-0.359844	-1.218802	0.696384
O	-0.598717	-1.159564	1.912729
O	-0.274861	-2.276016	0.054345
C	-0.366148	1.239078	0.786436
H	-1.4341	1.302865	1.006311
H	0.195926	1.230553	1.721016
H	-0.051764	2.118539	0.217937
H	2.46829	0.0	0.0
