16

C	-0.52436	0.05751	-1.398595
C	0.0	0.0	0.0
Br	-2.487492	-0.028796	-1.528186
H	1.093404	0.0	0.0
H	-0.253504	1.021745	-1.824671
N	0.096174	-0.934275	-2.368783
O	-0.52568	-1.90739	-2.767059
O	1.238696	-0.615599	-2.689019
N	-0.368255	-1.223641	0.680172
O	-0.317493	-2.272946	0.020901
O	-0.57827	-1.180609	1.902715
C	-0.361926	1.231147	0.80189
H	0.214558	1.219651	1.726945
H	-0.06514	2.11902	0.236084
H	-1.426633	1.283209	1.038728
H	2.462359	0.0	0.0
