16

C	-0.453228	-0.055952	-1.427153
C	0.0	0.0	0.0
Br	0.44364	1.254172	-2.548002
H	1.092573	0.0	0.0
H	-0.263432	-1.035197	-1.854168
N	-1.942726	0.15862	-1.52244
O	-2.619186	-0.870807	-1.577
O	-2.391577	1.300108	-1.461765
N	-0.320383	-1.254961	0.663738
O	-0.535098	-1.22303	1.887155
O	-0.200834	-2.308859	0.017185
C	-0.426939	1.204489	0.801648
H	-1.482413	1.179926	1.079308
H	0.178103	1.241106	1.707749
H	-0.230512	2.106679	0.219774
H	2.437088	0.0	0.0
