17

C	0.0	0.0	0.0
C	-0.636143	-0.222356	-1.370176
Cl	1.785333	0.0	0.0
H	-1.724136	-0.367014	-1.200126
C	-0.49943	1.296467	0.641505
H	-0.111756	2.151071	0.091995
H	-1.592853	1.280581	0.631142
H	-0.139001	1.334947	1.669714
C	-0.37645	-1.127323	0.867832
N	-0.603313	-1.989866	1.632879
N	-0.061732	-1.426373	-2.057926
O	0.718413	-1.241342	-2.988247
O	-0.411684	-2.509422	-1.603113
N	-0.488253	0.907817	-2.336258
O	-1.260972	0.861123	-3.288347
O	0.378994	1.756819	-2.150059
Cl	-3.585185	0.0	0.0
