14

C	-0.508779	-0.100326	-1.44571
C	0.0	0.0	0.0
Cl	0.182829	-1.480896	-2.275755
H	1.090548	0.0	0.0
H	-0.361954	0.953631	0.393576
C	-1.967882	-0.189158	-1.483101
N	-3.138898	-0.284222	-1.495273
N	-0.138373	1.210135	-2.172011
O	-0.717217	2.194437	-1.720765
O	0.672667	1.189392	-3.079131
N	-0.50018	-1.145894	0.743387
H	-1.085651	-0.855407	1.51264
H	0.28676	-1.662654	1.112631
Br	3.52552	0.0	0.0
