14

C	-0.499004	0.0023	-1.442117
C	0.0	0.0	0.0
Cl	0.168841	1.353201	-2.348437
H	1.097173	0.0	0.0
H	-0.362738	-0.923119	0.456524
C	-0.21981	-1.250015	-2.138601
N	-0.009482	-2.255382	-2.709879
N	-2.042397	0.122412	-1.37939
O	-2.592264	1.110681	-1.828682
O	-2.581581	-0.830285	-0.827987
N	-0.571174	1.159842	0.682009
H	-0.723763	0.922603	1.653219
H	0.118123	1.903489	0.668704
Br	3.542126	0.0	0.0
