14

C	-0.502621	-0.012051	-1.446777
C	0.0	0.0	0.0
Cl	0.102958	-1.41049	-2.320118
H	1.097464	0.0	0.0
H	-0.361261	0.928403	0.447105
C	-1.963438	0.005448	-1.50723
N	-3.137601	0.033582	-1.54712
N	-0.029545	1.292304	-2.128244
O	-0.494729	2.303209	-1.611642
O	0.734464	1.236891	-3.073246
N	-0.549065	-1.165948	0.683616
H	-0.860009	-0.904076	1.608412
H	0.192508	-1.844629	0.795401
Br	3.534287	0.0	0.0
