16

C	0.0	0.0	0.0
C	-0.514052	0.492274	-1.353871
F	1.387217	0.0	0.0
H	-0.159872	1.53283	-1.431085
C	-0.417406	0.896804	1.093499
N	-0.655943	1.667923	1.946125
C	-0.420067	-1.386042	0.27388
N	-0.681457	-2.499883	0.536057
C	-2.031094	0.450228	-1.4025
H	-2.522001	1.014275	-0.608544
H	-2.411252	-0.568658	-1.322468
H	-2.371298	0.864921	-2.355696
N	0.065481	-0.388754	-2.357123
H	1.003127	-0.099639	-2.602145
H	-0.509004	-0.379939	-3.189168
Cl	-5.090592	0.0	0.0
