16

C	0.0	0.0	0.0
C	-0.42207	0.207325	-1.522558
F	1.384689	0.0	0.0
H	0.533657	-0.009309	-2.016067
C	-0.435843	1.049452	0.928879
N	-0.642124	1.933536	1.674253
C	-0.410683	-1.329325	0.477509
N	-0.561192	-2.446442	0.807184
C	-0.81106	1.655387	-1.773698
H	-1.764873	1.866787	-1.284454
H	-0.050687	2.34842	-1.401722
H	-0.92851	1.798661	-2.848913
N	-1.414695	-0.673374	-2.072057
H	-1.149789	-1.642724	-1.940548
H	-2.302621	-0.523713	-1.581989
Cl	-3.679832	0.0	0.0
