16

C	0.0	0.0	0.0
C	-0.417322	0.387566	-1.488154
F	1.390012	0.0	0.0
H	0.541669	0.241875	-2.000321
C	-0.43295	0.932871	1.046927
N	-0.628751	1.733384	1.88431
C	-0.406528	-1.376963	0.316677
N	-0.608021	-2.51058	0.545047
C	-0.82136	1.851459	-1.566886
H	-0.068325	2.503507	-1.115802
H	-0.939396	2.11701	-2.619156
H	-1.7775	1.989846	-1.058332
N	-1.397938	-0.431097	-2.144562
H	-1.11834	-1.404964	-2.136405
H	-2.286556	-0.356809	-1.63956
Cl	-3.654903	0.0	0.0
