16

C	0.0	0.0	0.0
C	-0.448884	-0.104991	-1.48026
F	1.38985	0.0	0.0
H	-1.540309	-0.116184	-1.45199
C	-0.408059	1.279602	0.601811
N	-0.571112	2.349176	1.058365
C	-0.40679	-1.15247	0.819032
N	-0.524175	-2.156298	1.41804
C	0.084029	-1.389764	-2.097257
H	-0.260121	-1.433003	-3.131329
H	-0.285104	-2.269699	-1.566593
H	1.177876	-1.40883	-2.09598
N	-0.00659	1.048421	-2.246906
H	0.962363	1.260264	-2.037787
H	-0.566998	1.85582	-1.998271
Cl	-3.357393	0.0	0.0
