16

C	0.0	0.0	0.0
C	-0.468378	-0.064051	-1.489983
F	1.36396	0.0	0.0
H	0.482404	-0.240122	-2.011543
C	-0.415802	1.230052	0.70503
N	-0.595028	2.254082	1.251051
C	-0.417771	-1.175931	0.789168
N	-0.58418	-2.093709	1.502755
C	-1.05786	1.257857	-1.985342
H	-1.195683	1.180061	-3.069501
H	-0.397368	2.109307	-1.788464
H	-2.026275	1.423861	-1.507648
N	-1.293121	-1.241525	-1.693773
H	-2.207645	-1.060784	-1.262972
H	-1.436271	-1.355879	-2.691178
Cl	-3.709121	0.0	0.0
