16

C	0.0	0.0	0.0
C	-0.537608	-0.102482	-1.451521
F	1.368217	0.0	0.0
H	-1.452978	-0.692952	-1.384101
C	-0.427269	1.217631	0.711345
N	-0.56793	2.209676	1.324025
C	-0.389098	-1.207903	0.762311
N	-0.516033	-2.22852	1.329288
C	0.483992	-0.804316	-2.333192
H	0.031462	-0.995958	-3.310729
H	0.7847	-1.765422	-1.909563
H	1.37074	-0.18353	-2.471313
N	-0.808008	1.247129	-1.937378
H	-1.71775	1.497384	-1.550527
H	-0.925813	1.200956	-2.943756
Cl	-3.331059	0.0	0.0
