17

C	-0.510787	0.057829	-1.576683
C	0.193679	-0.027841	-0.213214
Cl	-0.255245	-1.495644	-2.485744
H	1.269256	-0.139686	-0.421246
C	-1.955807	0.213267	-1.399456
N	-3.111137	0.396473	-1.290134
C	0.0452	1.190589	-2.426465
H	-0.454418	1.231074	-3.396346
H	1.113657	1.023502	-2.577131
H	-0.090327	2.121365	-1.877908
N	-0.33471	-1.111817	0.599459
H	0.235077	-1.02456	1.4542
H	-0.085238	-2.002627	0.177836
N	0.035551	1.239089	0.468244
H	0.733522	1.147956	1.236672
H	-0.870932	1.192596	0.931361
H	1.759149	0.042157	2.246254
