17

C	-0.560032	0.015732	-1.551653
C	0.184353	-0.036222	-0.202363
Cl	-0.306721	-1.524896	-2.457269
H	1.240083	-0.209559	-0.43465
C	-1.999462	0.143427	-1.309845
N	-3.144933	0.285708	-1.088106
C	-0.067512	1.160713	-2.426905
H	-0.222356	2.098852	-1.897714
H	1.003859	1.029402	-2.592645
H	-0.583112	1.160697	-3.389455
N	-0.242436	-1.162971	0.607766
H	-1.142523	-0.927078	1.020644
H	0.436806	-1.13681	1.379815
N	0.114466	1.278841	0.420572
H	0.826036	1.174424	1.178562
H	-0.78239	1.342193	0.899706
H	1.899766	0.130218	2.151471
