17

C	-0.472746	0.007834	-1.576725
C	0.208651	0.038613	-0.192824
Cl	-2.254167	-0.229991	-1.398602
H	1.288215	0.104089	-0.407674
C	-0.283998	1.289897	-2.258835
N	-0.082782	2.305969	-2.814498
C	0.074781	-1.129382	-2.427191
H	-0.050776	-2.049963	-1.859635
H	1.141542	-0.965135	-2.601676
H	-0.444342	-1.186139	-3.385638
N	0.018592	-1.218949	0.488262
H	-0.893565	-1.156184	0.935283
H	0.709476	-1.146275	1.260567
N	-0.251917	1.150854	0.62113
H	0.327454	1.034251	1.468587
H	0.046895	2.027206	0.196725
H	1.781926	-0.031888	2.275983
