16

C	0.0	0.0	0.0
C	-0.44362	-0.314596	-1.446875
F	1.381284	0.0	0.0
H	0.489144	-0.608212	-1.942885
H	-0.278566	-0.857902	0.624195
N	-0.483836	1.258304	0.490111
H	-1.49394	1.254914	0.350951
H	-0.335487	1.289926	1.492856
C	-1.025186	0.882014	-2.202748
H	-2.004883	1.142225	-1.799114
H	-0.368666	1.755125	-2.152519
H	-1.164457	0.605439	-3.253847
N	-1.306497	-1.499007	-1.430319
H	-1.537796	-1.732919	-2.390696
H	-2.188917	-1.234513	-0.987501
Cl	-3.884012	0.0	0.0
