16

C	0.0	0.0	0.0
C	-0.363405	0.330837	-1.446092
F	1.393856	0.0	0.0
H	0.059211	1.336495	-1.615899
H	-0.280719	-1.037912	0.218899
N	-0.490984	0.969631	0.927419
H	-1.458058	1.181209	0.69933
H	-0.499853	0.575097	1.859254
C	-1.85192	0.340153	-1.726988
H	-2.03113	0.392023	-2.806149
H	-2.370991	1.185424	-1.27688
H	-2.345434	-0.551368	-1.343983
N	0.282762	-0.688918	-2.282397
H	1.287365	-0.599683	-2.189793
H	0.041444	-0.510827	-3.250025
Cl	-4.753657	0.0	0.0
