16

C	0.0	0.0	0.0
C	-0.431708	-0.116058	-1.47301
F	1.412314	0.0	0.0
H	0.482661	-0.437835	-1.984667
H	-0.261656	-0.938402	0.502864
N	-0.479089	1.176666	0.65762
H	-0.375139	1.058692	1.658945
H	-1.480859	1.231247	0.479455
C	-0.870296	1.215109	-2.089115
H	-1.831328	1.535044	-1.680524
H	-0.995195	1.085293	-3.169989
H	-0.122353	1.995699	-1.914291
N	-1.395723	-1.208034	-1.606099
H	-2.254605	-0.950603	-1.115441
H	-1.648651	-1.291193	-2.585162
Cl	-3.981282	0.0	0.0
