16

C	0.0	0.0	0.0
C	-0.395254	-0.297224	-1.451096
F	1.414336	0.0	0.0
H	0.1232	-1.230381	-1.713805
H	-0.331159	-0.813446	0.654421
N	-0.478378	1.277625	0.453392
H	-1.027623	1.196868	1.296813
H	0.306977	1.891032	0.610135
C	0.097281	0.812258	-2.369639
H	-0.419535	1.742	-2.120932
H	1.17498	0.969866	-2.278495
H	-0.144302	0.551181	-3.40145
N	-1.812114	-0.495024	-1.669433
H	-2.181592	-1.2651	-1.125878
H	-2.355239	0.300256	-1.345556
Cl	-4.615984	0.0	0.0
