15

C	-0.522298	0.005004	-1.439092
C	0.0	0.0	0.0
F	-0.154862	1.17792	-2.083607
H	1.100596	0.0	0.0
C	-0.00213	-1.14088	-2.202606
N	0.388531	-2.060407	-2.818788
C	-2.000385	-0.057275	-1.438517
N	-3.173322	-0.101902	-1.455822
N	-0.47207	-1.221081	0.60782
H	0.257039	-1.633642	1.172584
H	-1.293057	-1.032611	1.168539
N	-0.546489	1.190171	0.658223
H	-0.239959	2.003763	0.132267
H	-0.069662	1.256395	1.552744
Br	3.49921	0.0	0.0
