15

C	-0.519681	0.002228	-1.439274
C	0.0	0.0	0.0
F	-0.147541	-1.167249	-2.086327
H	1.100578	0.0	0.0
C	-1.998483	0.059873	-1.437706
N	-3.172009	0.108601	-1.446176
C	-0.002901	1.153078	-2.198419
N	0.392034	2.076674	-2.807086
N	-0.549603	-1.195691	0.646621
H	-0.105002	-1.247726	1.559654
H	-0.21027	-2.007083	0.137483
N	-0.470833	1.217103	0.612946
H	-1.322956	1.038607	1.129212
H	0.239373	1.60121	1.22012
Br	3.518241	0.0	0.0
