15

C	-0.504884	0.01281	-1.453851
C	0.0	0.0	0.0
F	0.082882	-0.998873	-2.171384
H	1.099995	0.0	0.0
C	-1.968551	-0.194684	-1.465601
N	-3.128964	-0.373569	-1.459136
C	-0.211694	1.29679	-2.120483
N	0.019956	2.315347	-2.656136
N	-0.457025	-1.222301	0.606169
H	-1.329281	-1.079232	1.101127
H	0.254448	-1.587447	1.224702
N	-0.559252	1.193153	0.650872
H	-0.018951	2.002592	0.354714
H	-0.366641	1.091283	1.643005
Br	3.501589	0.0	0.0
