15

C	-0.475866	-0.017073	-1.465205
C	0.0	0.0	0.0
F	0.138033	0.986865	-2.172854
H	1.099974	0.0	0.0
C	-0.174556	-1.306354	-2.117615
N	0.062726	-2.329885	-2.641869
C	-1.93619	0.204215	-1.515439
N	-3.094116	0.397213	-1.536598
N	-0.566744	-1.191455	0.644589
H	-0.408576	-1.080514	1.641225
H	-0.011682	-1.998663	0.371248
N	-0.46366	1.224416	0.593818
H	-1.349855	1.088236	1.066432
H	0.232964	1.586295	1.230725
Br	3.512314	0.0	0.0
