15

C	-0.526953	0.020288	-1.440151
C	0.0	0.0	0.0
F	-1.909329	-0.137017	-1.430764
H	1.100461	0.0	0.0
C	-0.240139	1.300568	-2.112964
N	-0.011202	2.321421	-2.645723
C	0.032636	-1.092481	-2.223102
N	0.423279	-2.002843	-2.852211
N	-0.456306	-1.230015	0.592713
H	0.218892	-1.552506	1.272309
H	-1.365226	-1.1004	1.018822
N	-0.534209	1.187673	0.687646
H	-0.015213	2.000344	0.361655
H	-0.263895	1.078399	1.661273
Br	3.483873	0.0	0.0
