15

C	-0.552614	-0.006945	-1.42362
C	0.0	0.0	0.0
F	-1.953911	-0.005856	-1.332626
H	1.094539	0.0	0.0
C	-0.168461	1.193772	-2.182496
N	0.136575	2.141366	-2.803886
C	-0.170456	-1.215946	-2.16978
N	0.132876	-2.17082	-2.780735
N	-0.417099	-1.247919	0.618999
H	-1.322659	-1.158848	1.062606
H	0.272995	-1.516938	1.307518
N	-0.41692	1.253876	0.606187
H	-1.322423	1.167365	1.048724
H	0.272177	1.531074	1.293449
Br	3.45479	0.0	0.0
