15

C	-0.514075	0.009804	-1.441581
C	0.0	0.0	0.0
F	-0.147563	-1.15961	-2.09311
H	1.100523	0.0	0.0
C	-1.991595	0.078858	-1.446514
N	-3.163874	0.137835	-1.459525
C	0.012992	1.160158	-2.193938
N	0.412487	2.08498	-2.797266
N	-0.551141	-1.197908	0.640234
H	-0.208493	-2.007765	0.130135
H	-0.112442	-1.252723	1.555984
N	-0.46866	1.215446	0.618734
H	0.240604	1.592479	1.231298
H	-1.324357	1.038864	1.131066
Br	3.522556	0.0	0.0
