15

C	-0.521866	-0.001573	-1.439202
C	0.0	0.0	0.0
F	-0.155367	-1.174294	-2.085819
H	1.100564	0.0	0.0
C	-2.000004	0.062681	-1.43873
N	-3.173102	0.108335	-1.453406
C	0.000352	1.144759	-2.200485
N	0.391537	2.064982	-2.815351
N	-0.547179	-1.190471	0.656176
H	-0.24943	-2.003294	0.123456
H	-0.062819	-1.264696	1.546565
N	-0.471269	1.220823	0.609319
H	-1.294107	1.03344	1.168723
H	0.257869	1.630189	1.176353
Br	3.501368	0.0	0.0
