15

C	-0.562471	0.001353	-1.422905
C	0.0	0.0	0.0
F	-1.963197	0.005542	-1.325837
H	1.094564	0.0	0.0
C	-0.171576	1.20405	-2.179129
N	0.125899	2.150706	-2.805563
C	-0.181408	-1.203778	-2.18032
N	0.113178	-2.146461	-2.814642
N	-0.418343	-1.251056	0.613443
H	-1.314826	-1.157739	1.070075
H	0.277648	-1.533798	1.289721
N	-0.417247	1.250861	0.614678
H	0.273566	1.526642	1.299675
H	-1.319508	1.159395	1.063594
Br	3.459268	0.0	0.0
