13

C	0.0	0.0	0.0
C	-0.53621	0.073824	-1.418092
F	1.3472	0.0	0.0
H	-1.606199	-0.183665	-1.364417
H	-0.471148	1.114227	-1.747383
C	-0.451793	1.116876	0.839645
N	-0.638843	2.100017	1.454286
N	-0.376498	-1.323598	0.673476
O	-0.277651	-1.342343	1.893791
O	-0.612925	-2.266434	-0.066491
C	0.218117	-0.765309	-2.340246
N	0.817869	-1.400314	-3.125504
Cl	-3.33994	0.0	0.0
