13

C	0.0	0.0	0.0
C	-0.526305	0.050275	-1.424162
F	1.347203	0.0	0.0
H	-0.481159	1.089963	-1.761283
H	-1.589419	-0.229889	-1.383221
C	-0.454282	1.127536	0.82209
N	-0.641525	2.109113	1.439272
N	-0.374215	-1.31364	0.688729
O	-0.30017	-1.308985	1.911
O	-0.581575	-2.273557	-0.038316
C	0.25919	-0.775889	-2.331975
N	0.886382	-1.394993	-3.106733
Cl	-3.320461	0.0	0.0
