13

C	0.0	0.0	0.0
C	-0.532984	0.02378	-1.419831
F	1.346982	0.0	0.0
H	-1.604896	-0.2256	-1.359192
H	-0.459765	1.051877	-1.786954
C	-0.449905	1.145798	0.80059
N	-0.623009	2.144637	1.393813
N	-0.377488	-1.298779	0.717009
O	-0.300843	-1.273065	1.939313
O	-0.59769	-2.270097	0.00797
C	0.217235	-0.851778	-2.312151
N	0.810633	-1.513279	-3.079592
Cl	-3.336514	0.0	0.0
