13

C	0.0	0.0	0.0
C	-0.56695	-0.039557	-1.403131
F	1.355169	0.0	0.0
H	-0.492121	0.967219	-1.822909
H	-1.646571	-0.253588	-1.288702
C	-0.446498	1.182537	0.746704
N	-0.588672	2.19658	1.322613
N	-0.372956	-1.260588	0.78975
O	-0.310875	-1.16621	2.008814
O	-0.580638	-2.269745	0.133489
C	0.108654	-0.977695	-2.290614
N	0.617303	-1.697857	-3.065544
Cl	-3.401876	0.0	0.0
