13

C	0.0	0.0	0.0
C	-0.531502	0.004506	-1.422346
F	1.347034	0.0	0.0
H	-1.594918	-0.274775	-1.366914
H	-0.491054	1.033028	-1.792056
C	-0.451905	1.154098	0.786443
N	-0.635074	2.16029	1.363808
N	-0.371328	-1.291655	0.732641
O	-0.585327	-2.273546	0.037426
O	-0.289618	-1.249819	1.953617
C	0.250345	-0.849863	-2.307142
N	0.874861	-1.494287	-3.063697
Cl	-3.329485	0.0	0.0
