13

C	0.0	0.0	0.0
C	-0.504036	0.304176	-1.390007
F	1.359811	0.0	0.0
H	-0.15379	-0.48379	-2.059635
H	-1.607601	0.287351	-1.336601
C	-0.46091	0.932453	1.034503
N	-0.72533	1.69563	1.887276
N	-0.370901	-1.430628	0.410277
O	-0.441047	-1.650561	1.611336
O	-0.421052	-2.254593	-0.492876
C	0.001275	1.596686	-1.834074
N	0.417237	2.62772	-2.210134
Cl	-3.345691	0.0	0.0
