13

C	0.0	0.0	0.0
C	-0.530217	0.047367	-1.422685
F	1.346843	0.0	0.0
H	-0.499941	1.088005	-1.757745
H	-1.59084	-0.242694	-1.378332
C	-0.452797	1.128979	0.821398
N	-0.639179	2.112426	1.435263
N	-0.370771	-1.314062	0.692582
O	-0.576401	-2.275384	-0.033363
O	-0.289169	-1.309334	1.913858
C	0.260525	-0.770961	-2.333043
N	0.890737	-1.387123	-3.108464
Cl	-3.324548	0.0	0.0
