13

C	0.0	0.0	0.0
C	-0.491712	0.299413	-1.399103
F	1.359888	0.0	0.0
H	-1.593291	0.279448	-1.361098
H	-0.126564	-0.490884	-2.058686
C	-0.460127	0.946006	1.022888
N	-0.735243	1.72971	1.853963
N	-0.371899	-1.428167	0.414523
O	-0.436933	-1.643768	1.616607
O	-0.431189	-2.254205	-0.486692
C	0.024979	1.588244	-1.837907
N	0.447696	2.61751	-2.210816
Cl	-3.317931	0.0	0.0
