13

C	-0.631482	0.0161	-1.358305
C	0.0	0.0	0.0
Cl	-0.17226	1.504673	-2.21469
H	1.087254	0.0	0.0
H	-1.718312	-0.03636	-1.347469
H	-0.243828	0.918653	0.533039
N	-0.219646	-1.158425	-2.221732
O	-0.931722	-1.350515	-3.20574
O	0.771728	-1.795022	-1.908673
N	-0.50673	-1.10655	0.781794
O	-0.196585	-1.132151	1.978978
O	-1.158134	-1.99938	0.203042
H	2.563383	0.0	0.0
