13

C	-0.622698	0.012258	-1.363303
C	0.0	0.0	0.0
Cl	-0.144216	1.494891	-2.222231
H	1.087255	0.0	0.0
H	-1.709259	-0.032315	-1.364568
H	-0.248682	0.920557	0.529813
N	-0.207075	-1.165639	-2.22232
O	0.792004	-1.792379	-1.905447
O	-0.923436	-1.375049	-3.197697
N	-0.509204	-1.106647	0.783414
O	-0.172792	-1.155676	1.97113
O	-1.194473	-1.977713	0.211608
H	2.570621	0.0	0.0
