13

C	-0.643259	0.007682	-1.354878
C	0.0	0.0	0.0
Cl	-0.232516	1.518068	-2.201722
H	1.087256	0.0	0.0
H	-1.728434	-0.069981	-1.33608
H	-0.254757	0.917669	0.532781
N	-0.217599	-1.139922	-2.24778
O	-0.972826	-1.363082	-3.193339
O	0.819283	-1.731197	-1.990198
N	-0.505177	-1.102101	0.789708
O	-1.077823	-2.041513	0.201785
O	-0.270353	-1.081045	2.004082
H	2.553849	0.0	0.0
