13

C	-0.538302	-0.114759	-1.393533
C	0.0	0.0	0.0
Cl	-2.275745	-0.522659	-1.446584
H	1.090409	0.0	0.0
H	-0.001971	-0.923939	-1.889763
H	-0.299863	-0.880726	0.566662
N	-0.267426	1.096185	-2.274815
O	0.910199	1.210011	-2.592885
O	-1.187716	1.822049	-2.617643
N	-0.467273	1.158036	0.732028
O	-0.486136	2.245046	0.13875
O	-0.692551	1.017351	1.941795
H	2.562663	0.0	0.0
