13

C	-0.544666	-0.132639	-1.391376
C	0.0	0.0	0.0
Cl	-2.292819	-0.494258	-1.43664
H	1.090398	0.0	0.0
H	-0.034199	-0.965217	-1.874417
H	-0.300835	-0.872441	0.578232
N	-0.251733	1.054319	-2.29906
O	0.923783	1.133022	-2.635032
O	-1.16063	1.799852	-2.633421
N	-0.458083	1.168984	0.720735
O	-0.678687	1.045338	1.933817
O	-0.472359	2.248451	0.113474
H	2.566449	0.0	0.0
