15
Coordinates from ORCA-job run
  C   -0.47774716925970      0.10656060874312     -0.14000478953958
  C   0.91392276284389     -0.46642669933264     -0.31601438470744
  Br  -1.02719603515731      1.01547000481074     -1.75138835977010
  H   1.26321708074590     -0.87502702922737      0.63384456477407
  H   0.91479956931180     -1.23426797093755     -1.08734194293801
  N   -0.48612160232840      1.07020045379770      1.05580997494305
  O   -1.04922523943707      2.14567458643809      0.96062947149207
  O   0.03336880120394      0.59912363250847      2.06275334945857
  C   -1.47147895785436     -0.99379221415138      0.19925443641431
  H   -1.53597904171498     -1.70431180640074     -0.62529675630873
  H   -2.45972913821716     -0.56142494559086      0.36357122155631
  H   -1.14948659807740     -1.51048744955224      1.10573458311287
  N   1.92066860409269      0.55603474102999     -0.72858298382515
  O   2.76869205164782      0.19733801468986     -1.53869235702137
  O   1.84229491220035      1.65733607317480     -0.19327602764088
