15
Coordinates from ORCA-job run
  C   -0.45235470278235      0.28694150831976     -0.09058358179370
  C   1.06815463050486      0.38637103878980     -0.01775902562031
  Br  -1.06793759349900      0.84032209457637     -1.84917880095854
  H   1.40167460906467      0.13859353257176      0.99053542153034
  H   1.41366569527442      1.37373637251753     -0.30760261041110
  N   -1.00987922642907      1.32670935787353      0.89347221589323
  O   -2.20822714901190      1.27179889421810      1.12745179845510
  O   -0.21486327240700      2.13213282773011      1.36972706499033
  C   -1.03441254484819     -1.06014440621562      0.27219368439174
  H   -2.12081584675123     -1.00265959007772      0.25849583398951
  H   -0.69961722806583     -1.34368657302451      1.27404987346334
  H   -0.70004003563924     -1.81888170737657     -0.43209533230102
  N   1.71099071015463     -0.59714079038556     -0.93692225733262
  O   1.73516489576128     -1.76965186979645     -0.56455194482198
  O   2.17749705867393     -0.16244068972052     -1.98623233947432
