15
Coordinates from ORCA-job run
  C   -0.48746990532580      0.23724293213450     -0.03899437742866
  C   1.01045475509578      0.48564771391519     -0.18531756977920
  Br  -1.39004768973674      0.62728981667011     -1.71584192142055
  H   1.50105415673869      0.33192521726610      0.77640177977946
  H   1.21058785684032      1.48213715427194     -0.56651860975282
  N   -1.00966681447078      1.27376968216503      0.96736152931285
  O   -2.15208857928044      1.11712640230361      1.37254895295038
  O   -0.24492235598187      2.17909485224680      1.28848096022162
  C   -0.87327743627316     -1.13648930435988      0.45991664691172
  H   -0.56315577413833     -1.89853312650722     -0.25187880391964
  H   -0.37693926373653     -1.32999148537571      1.41509368529477
  H   -1.95142618719697     -1.18349644698430      0.59833450596234
  N   1.62060827822191     -0.48601408167113     -1.13883738968152
  O   1.88872881951265     -0.07489053176130     -2.26430895639473
  O   1.81956013973127     -1.62481879431374     -0.71744043205602
