15
Coordinates from ORCA-job run
  C   -0.58190172711563      0.23801470363260     -0.24920183901990
  C   0.81887280306339      0.27383276432245     -0.82889695523782
  Br  -1.74576205363946      0.97281191347929     -1.63452183360671
  H   0.87140614329622     -0.30674688324283     -1.74821727747740
  H   1.13391062329075      1.29966128674561     -1.01678597268627
  N   -0.67783905611159      1.22333084811001      0.91611698280340
  O   -0.03553755874157      2.25983448723969      0.81177483330604
  O   -1.41644301391171      0.91402040826053      1.84078569043475
  C   -1.07164698667187     -1.13157067286226      0.15545592380224
  H   -0.97730343951390     -1.80880860224319     -0.69552453474870
  H   -0.48126411360418     -1.50433399886893      0.99260386137539
  H   -2.11499146908243     -1.08885586349628      0.45978978155868
  N   1.83342436988286     -0.31364253774118      0.10409780812754
  O   2.83695213473608     -0.78730641831642     -0.41598455374140
  O   1.60612334412304     -0.23924143501909      1.30950808511017
