16

C	-0.574886	-0.018143	-1.405925
C	0.0	0.0	0.0
Cl	0.101207	1.352978	-2.319823
H	1.093247	0.0	0.0
H	-0.322889	0.954915	0.427436
N	-0.150061	-1.284501	-2.150115
O	-0.597662	-1.432722	-3.284649
O	0.574904	-2.080278	-1.563922
C	-2.0868	0.031399	-1.450188
H	-2.477243	-0.829456	-0.906703
H	-2.437726	0.02831	-2.480826
H	-2.42229	0.944212	-0.954564
N	-0.576566	-1.097579	0.790705
H	-0.601939	-0.805805	1.75969
H	0.077319	-1.869468	0.738438
Cl	3.528263	0.0	0.0
