16

C	-0.364591	0.21651	-1.483865
C	0.0	0.0	0.0
Cl	-0.097209	-1.267693	-2.42684
H	1.093494	0.0	0.0
H	-0.342082	0.903445	0.520935
N	-1.854535	0.521985	-1.548029
O	-2.642712	-0.403127	-1.359113
O	-2.180991	1.70147	-1.677394
C	0.446181	1.342381	-2.076348
H	0.169322	1.52634	-3.115439
H	1.498047	1.059328	-2.002202
H	0.291665	2.253395	-1.498881
N	-0.500533	-1.180518	0.662532
H	0.074761	-1.969977	0.402144
H	-1.455635	-1.375508	0.388939
Cl	3.465835	0.0	0.0
