16

C	-0.435332	0.056575	-1.452423
C	0.0	0.0	0.0
Cl	-0.195888	-1.540349	-2.221123
H	1.099349	0.0	0.0
H	-0.368857	-0.916914	0.463968
N	-1.944822	0.289935	-1.505009
O	-2.621035	-0.217849	-0.614207
O	-2.396599	0.93872	-2.443556
C	0.292415	1.120521	-2.231012
H	-0.010313	1.127847	-3.27638
H	0.072166	2.086991	-1.775039
H	1.361933	0.917861	-2.138668
N	-0.465042	1.222832	0.65768
H	-1.240001	1.020871	1.274169
H	0.295993	1.606584	1.201903
Cl	3.46205	0.0	0.0
