16

C	-0.344025	-0.052923	-1.49793
C	0.0	0.0	0.0
F	0.092987	1.234729	-1.962961
H	1.1	0.0	0.0
N	0.420953	-1.083439	-2.074061
H	0.26023	-1.147617	-3.070968
H	1.409526	-0.932174	-1.879186
N	-1.731216	-0.189254	-1.777367
H	-2.258114	0.455054	-1.203
H	-1.888275	0.059979	-2.746668
N	-0.512853	-1.23232	0.689569
O	0.30134	-2.104241	0.967739
O	-1.719046	-1.267548	0.931599
C	-0.582117	1.171815	0.631604
N	-1.106292	2.117571	1.090684
Br	3.378223	0.0	0.0
