16

C	-0.282587	-0.058444	-1.525689
C	0.0	0.0	0.0
F	-1.653847	-0.190454	-1.701653
H	1.09201	0.0	0.0
N	0.14706	1.199462	-2.047406
H	1.056487	1.438601	-1.6579
H	0.254488	1.087729	-3.049409
N	0.320092	-1.15614	-2.219123
H	-0.010256	-2.032807	-1.834621
H	1.321427	-1.11572	-2.045201
N	-0.511166	-1.220815	0.694146
O	-1.397912	-1.087252	1.533434
O	-0.012143	-2.293685	0.361601
C	-0.546246	1.189451	0.630901
N	-0.952907	2.156792	1.158318
Br	3.338802	0.0	0.0
