16

C	-0.401824	-0.021571	-1.489039
C	0.0	0.0	0.0
F	-0.364563	1.336942	-1.882739
H	1.09879	0.0	0.0
N	0.54135	-0.791611	-2.19795
H	0.430889	-0.65774	-3.195162
H	1.49736	-0.585755	-1.906997
N	-1.775829	-0.408641	-1.691487
H	-1.810956	-1.407677	-1.838646
H	-2.133608	0.080257	-2.499903
N	-0.407399	-1.25103	0.729996
O	-0.430076	-1.180114	1.95452
O	-0.630431	-2.263429	0.073934
C	-0.551722	1.146829	0.700712
N	-1.005453	2.076048	1.255022
Br	3.379091	0.0	0.0
