16

C	-0.269898	0.021598	-1.512585
C	0.0	0.0	0.0
F	-1.615263	0.146613	-1.80141
H	1.093516	0.0	0.0
N	0.359079	1.229088	-1.983903
H	1.354796	1.18513	-1.768984
H	0.241243	1.296233	-2.988578
N	0.14408	-1.246292	-2.048575
H	0.118498	-1.195408	-3.059216
H	1.100058	-1.432505	-1.758293
N	-0.519952	-1.259738	0.615987
O	0.240014	-2.220055	0.642604
O	-1.681403	-1.245599	1.023924
C	-0.559781	1.155124	0.676787
N	-0.99049	2.082155	1.254042
Br	3.375852	0.0	0.0
