12

C	-0.561052	0.056333	-1.40821
C	0.0	0.0	0.0
Br	-0.343204	-1.721301	-2.224969
H	1.088102	0.0	0.0
H	-1.636809	0.235926	-1.408773
H	-0.310014	-0.899853	0.528405
C	0.065128	1.048629	-2.280776
N	0.514865	1.820813	-3.042893
N	-0.456781	1.139146	0.767033
O	-0.892531	2.130763	0.154973
O	-0.289959	1.096268	1.990527
H	2.550653	0.0	0.0
