12

C	-0.458463	-0.037815	-1.441347
C	0.0	0.0	0.0
Br	0.068903	1.637374	-2.317699
H	1.091378	0.0	0.0
H	0.062296	-0.837802	-1.969779
H	-0.373331	0.859214	0.552446
C	-1.90214	-0.182899	-1.591959
N	-3.068698	-0.299714	-1.689231
N	-0.404985	-1.207857	0.687706
O	-0.480326	-1.167488	1.921556
O	-0.516097	-2.244226	0.010417
H	2.55221	0.0	0.0
