12

C	-0.436183	0.068262	-1.430076
C	0.0	0.0	0.0
Br	-2.387467	0.374307	-1.63773
H	1.094769	0.0	0.0
H	0.0227	0.966619	-1.851412
H	-0.30715	0.889019	0.548463
C	-0.067648	-1.054651	-2.285241
N	0.221159	-1.877219	-3.072685
N	-0.48483	-1.151761	0.730911
O	-0.71745	-2.196118	0.107339
O	-0.534945	-1.047664	1.963052
H	2.554166	0.0	0.0
