12

C	-0.371662	0.23351	-1.434113
C	0.0	0.0	0.0
Br	-2.323991	0.389273	-1.741978
H	1.095242	0.0	0.0
H	0.038957	1.190249	-1.756776
H	-0.381659	-0.928371	0.418042
C	0.115197	-0.841234	-2.289964
N	0.472465	-1.706211	-2.999988
N	-0.414568	1.097768	0.841369
O	-0.678503	0.848036	2.026046
O	-0.35604	2.241723	0.365284
H	2.529143	0.0	0.0
