12

C	-0.573978	-0.089081	-1.385644
C	0.0	0.0	0.0
Br	0.654995	-0.908657	-2.735382
H	1.087931	0.0	0.0
H	-1.428747	-0.764408	-1.416088
H	-0.263372	0.91981	0.518683
C	-0.953027	1.218569	-1.897978
N	-1.310232	2.266908	-2.292947
N	-0.417018	-1.107743	0.815704
O	-0.667699	-2.194808	0.261352
O	-0.363553	-0.951599	2.046679
H	2.427395	0.0	0.0
