12

C	-0.402294	0.00736	-1.444214
C	0.0	0.0	0.0
Br	-2.363628	0.107985	-1.721452
H	1.093282	0.0	0.0
H	-0.007057	0.902353	-1.924482
H	-0.373613	-0.851174	0.564443
C	0.066559	-1.188945	-2.131466
N	0.41197	-2.154934	-2.704139
N	-0.401482	1.215718	0.669992
O	-0.619784	1.154242	1.888061
O	-0.372952	2.270197	0.017779
H	2.532522	0.0	0.0
