12

C	-0.410188	-0.128084	-1.452151
C	0.0	0.0	0.0
Br	0.001163	1.558826	-2.359901
H	1.095188	0.0	0.0
H	0.210037	-0.887298	-1.933188
H	-0.393611	0.882646	0.498775
C	-1.823668	-0.417118	-1.661338
N	-2.96779	-0.624671	-1.832884
N	-0.392113	-1.176885	0.740802
O	-0.446765	-2.252412	0.117384
O	-0.505341	-1.075261	1.968492
H	2.537472	0.0	0.0
