13
Coordinates from ORCA-job run
  C   -0.77028544127776     -0.31469849545636     -0.38915945771041
  C   0.58799856431876     -0.31989005500600      0.36016757644642
  Cl  -0.65116880578231     -1.43864806023054     -1.77095529853160
  H   0.78532504089104     -1.33381793241617      0.71532948183627
  C   -1.78449745275590     -0.80636115126289      0.54683081350368
  N   -2.57058640326309     -1.21485098858991      1.32025321724921
  C   -1.14770107254987      1.01804638722116     -0.86177742924923
  N   -1.51326816472124      2.07430516893706     -1.22732674621447
  C   0.57979197154827      0.64219666411272      1.45179668006815
  N   0.55984757967053      1.40914296300361      2.34220614821502
  N   1.71072648921073      0.01650410381510     -0.60202581169080
  O   1.65778146198923      1.12105323161473     -1.12566622331077
  O   2.55503623272160     -0.85498183574250     -0.76067295061148
