13
Coordinates from ORCA-job run
  C   -0.76615679323831     -0.30039332024868     -0.40642681781003
  C   0.57034900111166     -0.33010692126418      0.37988363565416
  Cl  -0.63599010700571     -1.44381711479560     -1.77183662065005
  H   0.73365924730882     -1.34480951941427      0.74940510080946
  C   -1.81806071530242     -0.75646725151317      0.50568060702598
  N   -2.63689240277015     -1.13478040199902      1.26020445176563
  C   -1.09905659472918      1.03475341482141     -0.90517997725144
  N   -1.43408126528581      2.09342040795469     -1.29209962378955
  C   0.55658402154148      0.64310853021242      1.46166341010040
  N   0.53617237823027      1.42309420353393      2.34061041396967
  N   1.72687874633678     -0.03013721506471     -0.55357675544456
  O   1.71313896353403      1.06845037197587     -1.09206614315292
  O   2.55645552026853     -0.92131518419868     -0.67726168122674
