13
Coordinates from ORCA-job run
  C   -0.95419830812902     -0.05687799388925     -0.02303570690986
  C   0.42843792510129     -0.04416560505194      0.67752306774603
  Cl  -2.16822385130057      0.23631544728374      1.26093082823409
  H   0.40316328991215     -0.74243418804116      1.51660841893922
  C   -1.08246201486923      0.98930126726199     -1.03613024082793
  N   -1.23656494880169      1.84789855089841     -1.82440293577190
  C   -1.18081848944751     -1.37933281907931     -0.60819800731579
  N   -1.33499750700920     -2.45488485863021     -1.05750275576221
  C   0.79506533987788      1.29488942204998      1.11275635433887
  N   1.09688369372943      2.37449638851352      1.46553871832115
  N   1.49268627898254     -0.56699633077254     -0.27233858155040
  O   2.24671850352505     -1.41358259500641      0.18714919612738
  O   1.49431008842890     -0.08562668553683     -1.39789835556866
