13
Coordinates from ORCA-job run
  C   -0.80898466030095      0.12260604014528     -0.31206550485410
  C   0.55210503395632     -0.19350413092790      0.36163586344751
  Cl  -0.79966785791317      1.80702148172805     -0.89805336761484
  H   0.59236702661559     -1.26540985364581      0.58989031874001
  C   -1.11118113163278     -0.80054067023202     -1.40938017298571
  N   -1.43882562416392     -1.56247388479927     -2.24272045196679
  C   -1.85076463423908     -0.02559461989712      0.70934499672788
  N   -2.67649929551788     -0.16331369252825      1.53537496183983
  C   0.73024264775930      0.59198467025014      1.57311511598199
  N   0.84468056975585      1.20826764700058      2.56715682358092
  N   1.71253276643343      0.05389034832595     -0.60042391691910
  O   2.74101375002181      0.49571031013192     -0.11217822935371
  O   1.51298140922548     -0.26864364555155     -1.76169643662389
