13
Coordinates from ORCA-job run
  C   -0.94632244835254     -0.06393664407643      0.12818589999333
  C   0.53553423692451     -0.18494374965270      0.56785135102223
  Cl  -1.91841383767795     -0.08200000087501      1.63232738169634
  H   0.63708326542024     -1.05285131944802      1.22265550348673
  C   -1.22010372312290      1.17872745285195     -0.59147887452524
  N   -1.48443285152841      2.18804759248390     -1.13342444099369
  C   -1.29632385029793     -1.22825895130460     -0.68696927686421
  N   -1.54114888293011     -2.18337442416931     -1.32756655626983
  C   1.00211547737199      1.02876894150787      1.22044081178663
  N   1.38845854493482      2.00456512550866      1.74928089709259
  N   1.40839556705495     -0.46753984599763     -0.64311012893905
  O   2.19448275071954     -1.39772716411165     -0.52762706896954
  O   1.24067575148378      0.26352298728296     -1.61056549851632
