13
Coordinates from ORCA-job run
  C   -0.77589092882532     -0.29968332407586     -0.38801530988111
  C   0.58884298320614     -0.33353368435472      0.34835492797515
  Cl  -0.68000535135405     -1.39737761810004     -1.79295364948036
  H   0.77988412667289     -1.35676309521847      0.67922959002958
  C   -1.78768819017496     -0.79940207507459      0.54629257945763
  N   -2.57591902305182     -1.21195777165194      1.31532122363661
  C   -1.14444314815791      1.04563249891644     -0.83128881301344
  N   -1.50431169770912      2.11228007930092     -1.17113944856781
  C   0.59933266999713      0.60476664198332      1.46056271284321
  N   0.59390568690019      1.35497013320522      2.36530095362323
  N   1.70607318168963      0.01344947341898     -0.61622816873049
  O   1.65875437684419      1.12933847734992     -1.11586954274712
  O   2.54146531396300     -0.86171973569917     -0.80056705514506
