13
Coordinates from ORCA-job run
  C   -0.94961546801048     -0.15079382742630      0.00550284104178
  C   0.45775931987472     -0.00957126451388      0.63038137215020
  Cl  -2.11468103293906      0.15228850151207      1.33485411621342
  H   0.55446988705899     -0.72923422413250      1.44864066343603
  C   -1.17302416250098      0.83266135004858     -1.05248728774108
  N   -1.38028466304298      1.64850157643757     -1.87319531487888
  C   -1.14577341106982     -1.51719067614095     -0.48000815547478
  N   -1.30889106792815     -2.63102171066466     -0.81836403155390
  C   0.70956335228796      1.34265168993271      1.10749130522777
  N   0.91296959663823      2.43548718839826      1.48830106851430
  N   1.55185510515343     -0.37287857669625     -0.36880666506788
  O   2.66921703230233     -0.46955464916079      0.11368513193033
  O   1.21743551217582     -0.53034537759386     -1.53599504379731
