13
Coordinates from ORCA-job run
  C   -0.79100172554017     -0.05343254727366     -0.36065836625861
  C   0.53046120755765      0.17436808028357      0.42660492177445
  Cl  -0.50260000135634      0.17673411237219     -2.10467693578759
  H   0.34659106113633     -0.04995833930805      1.48169835203864
  C   -1.32229922481760     -1.39764888885486     -0.12303546880983
  N   -1.79559261193222     -2.45738851899616      0.06553233148176
  C   -1.76228704171253      0.93693653751880      0.11113714861578
  N   -2.52888167807530      1.73268766119231      0.51377021905642
  C   1.01542989294908      1.53391463684670      0.25662547594504
  N   1.38817580330064      2.64345396410735      0.15535040388004
  N   1.57114385847645     -0.83314678941247     -0.03382617873320
  O   2.44142417870481     -0.44161909669892     -0.79775199576273
  O   1.41043628130922     -1.96390081177680      0.41023009255981
