13
Coordinates from ORCA-job run
  C   -0.81826913320854     -0.00066577107073     -0.30299467363617
  C   0.56700787342139      0.13298294188589      0.39062105176049
  Cl  -0.64572032401696      0.27386018043858     -2.05580291893264
  H   0.44799073654638     -0.11599015863384      1.44950684724311
  C   -1.40023110112070     -1.32395636644458     -0.06693158111837
  N   -1.90764787022049     -2.36703913331257      0.12514508076009
  C   -1.69861119839293      1.02150725872272      0.26889416441939
  N   -2.38886188803846      1.84424506013946      0.74820281571607
  C   1.11139550492821      1.47042473058418      0.22535691817931
  N   1.53785962025243      2.56109359154340      0.13060024050321
  N   1.51651913724478     -0.91097071996214     -0.17409183455777
  O   1.33267198546786     -2.04481479164499      0.25277698421917
  O   2.34589665713702     -0.54067682224538     -0.99228309455588
