13
Coordinates from ORCA-job run
  C   -0.78515283146101     -0.28203932026401     -0.38254471643045
  C   0.57547144820936     -0.34466274708881      0.35904162941712
  Cl  -0.72110174878213     -1.41375930776080     -1.76248643204242
  H   0.73145157405726     -1.36576984105709      0.71373606772194
  C   -1.81644213461044     -0.72762752601717      0.55769613568086
  N   -2.62366165678523     -1.09786869245464      1.32866537137126
  C   -1.10775813261545      1.06421060453634     -0.85772702125369
  N   -1.43069237571728      2.13358463452940     -1.22483890165014
  C   0.61660144343377      0.61834171187181      1.44911616606743
  N   0.64193671938339      1.38992794742327      2.33524099882390
  N   1.70649590037225     -0.05784575054517     -0.60986938995880
  O   2.51460105872832     -0.96316777637259     -0.76806612805665
  O   1.69625073578720      1.04567606319945     -1.13796377969035
