13
Coordinates from ORCA-job run
  C   -0.96115880054909     -0.04779165635395     -0.02950749209144
  C   0.43149203285306     -0.09871395526766      0.64069146025177
  Cl  -2.13152170159730      0.29495470056159      1.28514050263963
  H   0.42470184689039     -0.87477967019430      1.41160752781135
  C   -1.04273884487757      1.01843195720117     -1.02608825455925
  N   -1.13081764548825      1.89944115108073     -1.79927229316648
  C   -1.28370490695895     -1.35233205394343     -0.60884651681847
  N   -1.55114746983641     -2.42090671809549     -1.01924070514738
  C   0.80847951966586      1.18597584013132      1.21259290844372
  N   1.11498082744367      2.22537436828546      1.66698818789578
  N   1.51478304841149     -0.51232364103822     -0.35108794761944
  O   1.20470102134872     -0.56207391058111     -1.53437613438030
  O   2.59995107269440     -0.75425641178609      0.15339875674051
