13
Coordinates from ORCA-job run
  C   -0.72386781440123     -0.43291890927502     -0.36239266073774
  C   0.58803181071720     -0.21226646718563      0.43501210416405
  Cl  -0.45599939187730     -1.76466697852873     -1.52116498087805
  H   0.83366604886257     -1.13687647423529      0.96198698658763
  C   -1.75660973698727     -0.82908308904614      0.59823953375008
  N   -2.56380047121846     -1.14880808846768      1.39132727605211
  C   -1.15929709499386      0.76795300360976     -1.07687865949429
  N   -1.57618321973493      1.71357467780116     -1.63805768017103
  C   0.45453639730460      0.91142460189500      1.34990104409588
  N   0.33548484916607      1.80987751802695      2.09815842915193
  N   1.73670348349314      0.04739632276855     -0.51996275879368
  O   1.64194245233090      1.04883692312533     -1.21661567684904
  O   2.64239268733855     -0.77544304048826     -0.49955295687785
