13
Coordinates from ORCA-job run
  C   -0.83314190024265      0.04566174530884     -0.37653398297193
  C   0.50963883359372      0.17462486282184      0.39824730123234
  Cl  -0.73499274561942      0.67291996629122     -2.03814255711671
  H   0.31873571485826     -0.03910226645753      1.45351974899091
  C   -1.23957699479451     -1.36187335299408     -0.38814140604703
  N   -1.54829056532144     -2.49625508369124     -0.36592704358011
  C   -1.81965381390190      0.84079244085783      0.36151310767017
  N   -2.58335176710695      1.48936589266939      0.97668624730172
  C   1.09829094812552      1.49578941821866      0.24513121777392
  N   1.57418615383748      2.56507769319063      0.14076123231291
  N   1.51096170570086     -0.88306929595996     -0.03969284744585
  O   2.11543620392441     -1.43091304642541      0.87273201628852
  O   1.63075822694660     -1.07201897383020     -1.24115303440887
