13
Coordinates from ORCA-job run
  C   -0.95280637128982     -0.07299615118336      0.00921588648367
  C   0.45745639686980     -0.10257157285605      0.65244334425059
  Cl  -2.11816720012279      0.06385498293349      1.36230030764352
  H   0.47836820481242     -0.88339486722307      1.41538836767002
  C   -1.13910499070495      1.06728137862853     -0.88647401924198
  N   -1.33824509821222      1.99773033955317     -1.57710165293927
  C   -1.18056585115530     -1.33432389295409     -0.69774706118545
  N   -1.33448315077380     -2.36374800426094     -1.24454749466383
  C   0.81984919705246      1.19224544980117      1.20792090274903
  N   1.12000813745489      2.23440904975218      1.66042692375831
  N   1.48682929053470     -0.50501130311221     -0.38974259379585
  O   1.45753965349796      0.11710235016519     -1.44358627996839
  O   2.24332178203665     -1.41157775924401     -0.06949663076038
