13
Coordinates from ORCA-job run
  C   -0.93881183348981     -0.16791403314714      0.12273292118580
  C   0.55065972664334     -0.12816342759022      0.53666015791751
  Cl  -1.87730664041999     -0.16026097554401      1.65102249310889
  H   0.76471202095178     -0.99438059557027      1.16939682377624
  C   -1.31092004463539      1.00479811137068     -0.66656966297502
  N   -1.62952240379064      1.96800057372781     -1.26034141528943
  C   -1.22722779918897     -1.41203470950276     -0.59170303279351
  N   -1.46040532484298     -2.43765954905599     -1.11664888334620
  C   0.89001041820975      1.10700823323819      1.22858762273005
  N   1.16194855284793      2.10871154051005      1.77933012181109
  N   1.47111987871291     -0.26284208957105     -0.67254971597193
  O   2.64932701850267     -0.42878527910287     -0.39841920978720
  O   0.95641643049939     -0.19547779976242     -1.78149822036628
