13
Coordinates from ORCA-job run
  C   -0.94950537030950     -0.08719873693575      0.00662577829942
  C   0.45718206837644     -0.09984906009039      0.65974811273076
  Cl  -2.12841430692532      0.03155965977670      1.34881604572637
  H   0.48450192642962     -0.88796529324189      1.41471892157388
  C   -1.13933393437028      1.05310982218940     -0.88878028049137
  N   -1.34048525601770      1.97960909286998     -1.58413778217650
  C   -1.15629489636225     -1.34717909434547     -0.70937759564146
  N   -1.29038333627696     -2.37141111911627     -1.27122978882224
  C   0.79281227849828      1.19653736261569      1.22742339151501
  N   1.06950591176156      2.24053805646949      1.69036111432831
  N   1.49207678920368     -0.47820914974741     -0.38462692517740
  O   1.54572253475693      0.24161773413174     -1.37339965155604
  O   2.16361559123550     -1.47115927457582     -0.13614134030875
