13
Coordinates from ORCA-job run
  C   -0.96013683737898     -0.07576386183668      0.02339122254548
  C   0.47551205513586     -0.19209247757300      0.58595323533085
  Cl  -2.04636536226714     -0.00406398677769      1.44813583279344
  H   0.53879465440253     -1.08649831207043      1.21258439573003
  C   -1.13261955709069      1.14243670576246     -0.76584706300308
  N   -1.28833574254627      2.14252328224546     -1.36369861818740
  C   -1.29108525969024     -1.27150307108809     -0.75251917219013
  N   -1.56098007722993     -2.25972502345196     -1.32901969995447
  C   0.86155658984532      0.99023763226206      1.34282358870818
  N   1.17407150660549      1.94832356921773      1.94711337136417
  N   1.49817526161421     -0.39610402360728     -0.52807322466355
  O   1.11118558475207     -0.25104792353477     -1.68049644990611
  O   2.61922718384776     -0.68672250954781     -0.14134741856742
