13
Coordinates from ORCA-job run
  C   -0.93730608452702     -0.17427321206600      0.13766742305923
  C   0.56251792076708     -0.16102008911570      0.51450373305731
  Cl  -1.83730279340569     -0.25776560027893      1.68583720501565
  H   0.79233913700410     -1.06498544955509      1.08608515727564
  C   -1.32589719921177      1.04361432387778     -0.57113308164722
  N   -1.65451604318236      2.03898833854734     -1.10339011699294
  C   -1.24461145454606     -1.37268046749695     -0.64413347559072
  N   -1.48637465840238     -2.36537907898188     -1.22538371153496
  C   0.92298449306998      1.02842580144080      1.27256320630232
  N   1.21280954805881      1.99233618454126      1.87894992215640
  N   1.45097696614564     -0.22114173255704     -0.72495378322826
  O   0.90826315814990     -0.07926698196568     -1.81310924337842
  O   2.63511701007978     -0.40685203638992     -0.49250323449403
