13
Coordinates from ORCA-job run
  C   -0.86953930662986      0.18966389221168     -0.21382730966124
  C   0.50986757470089     -0.21678582825927      0.38075690953989
  Cl  -1.15644904525606      1.94407719116620     -0.15517954479995
  H   0.52621643242406     -1.30363980447179      0.49930383598232
  C   -0.94845430634763     -0.28984096728503     -1.59588813170443
  N   -0.98713027407991     -0.69928149713925     -2.69743200445607
  C   -1.89027868443043     -0.47564405941191      0.60166392721129
  N   -2.68196785647499     -1.02661614058045      1.27406722787025
  C   0.76799596106181      0.44111964478263      1.65185393150072
  N   0.98750663442895      0.96291865954172      2.68140995285980
  N   1.64159926508187      0.08949616044140     -0.58750391425574
  O   1.64655364941248      1.19812211867775     -1.10156245548146
  O   2.45307995610883     -0.81458936967368     -0.73966242460539
