13
Coordinates from ORCA-job run
  C   -0.81826603923591      0.14645124946827     -0.38939024383359
  C   0.50047826981551      0.08421281793833      0.43405601047629
  Cl  -0.63392771635685      1.02619899565589     -1.92401107014791
  H   0.26235089580699     -0.28511563216410      1.43533845449450
  C   -1.28291646519374     -1.22037450774859     -0.63923207853034
  N   -1.63512372036134     -2.32966920280595     -0.80581327936141
  C   -1.79356387143477      0.85931236543377      0.44164609409290
  N   -2.54374363055476      1.43376192565684      1.14134820708733
  C   1.15243440111697      1.38207251887393      0.51177229671542
  N   1.68001283449862      2.42883415350917      0.59466655344270
  N   1.46977316597616     -0.93762657157651     -0.13948723504853
  O   2.01432559907822     -1.65529851038519      0.68928177989668
  O   1.62916627684490     -0.93375960185587     -1.35117548928405
