13
Coordinates from ORCA-job run
  C   -0.95467051767171     -0.05013804974609      0.11276378399784
  C   0.52347073096661     -0.22473246413492      0.53165909379783
  Cl  -1.89812795506501      0.00598897892458      1.63669052843844
  H   0.61875358874316     -1.14154979703342      1.12069984913317
  C   -1.16371579295439      1.19742361561012     -0.61980758310298
  N   -1.34594932741051      2.22020459773282     -1.16987848660596
  C   -1.39543015171040     -1.21006102685263     -0.66294706023487
  N   -1.75319951959702     -2.17031096865123     -1.23893927820578
  C   1.01494082440155      0.92006082897614      1.28502703544627
  N   1.41273397460341      1.84862363337296      1.88527288644146
  N   1.42945088604409     -0.41828039223944     -0.68091353452674
  O   0.93813331106477     -0.22789878928057     -1.78602106921753
  O   2.57360994858544     -0.74933016667831     -0.41260616536114
