13
Coordinates from ORCA-job run
  C   -0.77388728275282     -0.31320669679066     -0.38300861294569
  C   0.58907510553306     -0.32162399993693      0.35743142080856
  Cl  -0.66805205928673     -1.44378234763371     -1.76094516150276
  H   0.78526941964801     -1.33564640392405      0.71273321792692
  C   -1.78473867645882     -0.79646568186333      0.56088180979110
  N   -2.57005404154864     -1.19591517003375      1.33975222563097
  C   -1.14842898879538      1.01896259126300     -0.85957633808593
  N   -1.51095487570360      2.07548498153314     -1.22700404984803
  C   0.59133113246277      0.64224488531643      1.44760471754897
  N   0.58074338357801      1.41221151067117      2.33551534038965
  N   1.70704207656309      0.00921824625692     -0.61198369372001
  O   2.54733541796264     -0.86564006657842     -0.77431707179744
  O   1.65531938879840      1.11315815172020     -1.13708380419630
