13
Coordinates from ORCA-job run
  C   -0.94732184684372     -0.17089698858249     -0.00543219961701
  C   0.45113476234093     -0.01083529968728      0.63485573568322
  Cl  -2.13038960567795      0.08886901623965      1.31684330370390
  H   0.55580945272495     -0.74002652205282      1.44357442913714
  C   -1.17914482215249      0.82457843685647     -1.05037535595153
  N   -1.38951536013221      1.65049544522547     -1.86001324742543
  C   -1.11131603400473     -1.53335634904343     -0.51348619136623
  N   -1.24870290205193     -2.64532358897027     -0.86899533119042
  C   0.67075989852428      1.33941220217747      1.13314176952557
  N   0.84894989714553      2.43163474915638      1.52826200875310
  N   1.56204708512236     -0.33599821661594     -0.35925696180343
  O   2.67703816701953     -0.41313018803907      0.13216555932117
  O   1.24165130798548     -0.48642269666414     -1.53128351877006
