13
Coordinates from ORCA-job run
  C   -0.95044216817290     -0.15232778501472     -0.02773589327102
  C   0.42380481255402      0.05145370176531      0.65123261972655
  Cl  -2.18039075963649      0.27499203309803      1.20499141836288
  H   0.47826738253005     -0.58610442362475      1.53849871417885
  C   -1.11563051166516      0.72442582298698     -1.18554815805742
  N   -1.27319803893187      1.45680965163966     -2.09147018976792
  C   -1.12487787672361     -1.55989316938133     -0.38819764129552
  N   -1.27200748202667     -2.70334474837299     -0.61806293238654
  C   0.65438152305315      1.44417551239287      1.00740453455162
  N   0.84396928900511      2.57048260709760      1.28324567048581
  N   1.56719836480758     -0.40128212586986     -0.25245083340717
  O   2.65949237677541     -0.44059235986224      0.29158918457849
  O   1.29143308843138     -0.67879471685456     -1.41249649369861
