13
Coordinates from ORCA-job run
  C   -0.94772598122589     -0.13934470598180      0.10777146961212
  C   0.52859053383450     -0.07903552926374      0.56447937763581
  Cl  -1.93366878776622      0.04342866590489      1.59421625629564
  H   0.70748278647066     -0.87730636587631      1.29087719473981
  C   -1.27188087587275      0.94895160498341     -0.81256871410354
  N   -1.55155488624659      1.84712480192468     -1.51752568342568
  C   -1.23417804032619     -1.44762201457625     -0.48154037328663
  N   -1.45697801026206     -2.52174072207831     -0.90374656974189
  C   0.87026275246267      1.21534589293210      1.13709014703287
  N   1.15149895414340      2.25950740879445      1.59696904800369
  N   1.48384827311350     -0.35303279072658     -0.59301095150603
  O   2.64917230137084     -0.50931030011672     -0.26428678352320
  O   1.00613098030413     -0.38796594591982     -1.71972441773295
