13
Coordinates from ORCA-job run
  C   -0.94414562928628     -0.10581084738974     -0.02828437084690
  C   0.43479843356218     -0.08474856042341      0.68308971166494
  Cl  -2.18526936344743      0.07319957141064      1.24736025136505
  H   0.45361990451526     -0.88747719463967      1.42308939836538
  C   -1.07377219008143      0.99375373739803     -0.98371850173726
  N   -1.20392578803560      1.88076676711463     -1.74466458262510
  C   -1.12753596089762     -1.39264045679984     -0.70154516709786
  N   -1.26313546685765     -2.43214122830911     -1.23450369457926
  C   0.70551460028404      1.21003242424885      1.28621569956832
  N   0.92972618503358      2.24512274923881      1.79493517887600
  N   1.51175598738979     -0.41636106154440     -0.33578263372874
  O   1.94836155958351     -1.55991908477275     -0.28866818402495
  O   1.81400772823765      0.47622318446796     -1.11752310519961
