13
Coordinates from ORCA-job run
  C   -0.95955987861486     -0.07268945229501      0.01358862258234
  C   0.46702017961437     -0.14544362814322      0.60588061643237
  Cl  -2.06735723264819      0.11324694739487      1.41136835405225
  H   0.51886877185732     -0.98915911511306      1.30023493360610
  C   -1.11849221341857      1.07879843180150     -0.87258837393757
  N   -1.26813116901420      2.02742514966024     -1.55059168138987
  C   -1.28114175544385     -1.32622830592207     -0.66948451466025
  N   -1.54506118737155     -2.35741912007774     -1.16824521824610
  C   0.84256745040567      1.09117179238494      1.27627291902413
  N   1.14720850534890      2.09152228329683      1.81219620390165
  N   1.50642476060019     -0.43491876497135     -0.47293786453588
  O   1.13610933000680     -0.38340461897941     -1.63875726032078
  O   2.62154443867795     -0.69290159903653     -0.04793673650838
