13
Coordinates from ORCA-job run
  C   -0.84802493501635      0.09935793479534     -0.33437136353054
  C   0.53590255520159      0.14073331622851      0.37489886828645
  Cl  -0.79530198093573      0.74485656153432     -1.99072467247664
  H   0.38441112628905     -0.07523003771639      1.43606527505938
  C   -1.33383661711662     -1.28290764819985     -0.34241946963870
  N   -1.70413747663512     -2.39852144514656     -0.31611622074078
  C   -1.75030292168187      0.93692340659487      0.46218448759987
  N   -2.44435170421351      1.61510891176985      1.12614937768728
  C   1.19440560945472      1.42642240195372      0.20450035915174
  N   1.73411948194886      2.46254590959624      0.07887736138046
  N   1.45279636814196     -0.96630594576969     -0.12257212605626
  O   1.49718672534300     -1.15118077866564     -1.32986468053985
  O   2.07713376922003     -1.55180258697473      0.75239280381761
