13
Coordinates from ORCA-job run
  C   -0.77851497848469     -0.12041727814874     -0.38939888173448
  C   0.51162604186119      0.17667360682456      0.41852710906955
  Cl  -0.42421190496737     -0.00259439057339     -2.13321021206227
  H   0.31906831090852     -0.02851072299817      1.47850885694684
  C   -1.34171527501436     -1.43437200921245     -0.06711282206016
  N   -1.87295051259370     -2.44395097185488      0.21683236090914
  C   -1.76641111188612      0.90173387912869     -0.02910411640952
  N   -2.54987888960115      1.72145961673557      0.28295750732045
  C   0.93504047104576      1.55683903512533      0.23839199750944
  N   1.24310711301041      2.68347258166228      0.11053828826102
  N   1.64234059943330     -0.77358618213747      0.02910108342670
  O   1.30801306782045     -1.92113616707508     -0.22387647789903
  O   2.77348706846776     -0.31461099747624      0.06784530672231
