14
Coordinates from ORCA-job run
  C   -0.41364258634153      0.23403686393090     -0.04047336939354
  C   1.06316370277771      0.59493472279392      0.17326045444382
  H   -0.99170873338706      0.67525743024662      0.78687399763516
  H   1.20326290582385      1.67803502543237      0.09519434000296
  H   1.65431214391636      0.13359872585076     -0.62305744353479
  C   -0.61807764781644     -1.27152156125822     -0.03086707453129
  H   -0.29512195734873     -1.71046987388208      0.91491791571310
  H   -1.67496968762075     -1.51619836203569     -0.16915032163991
  H   -0.05257574817670     -1.72555420849030     -0.84848738108686
  N   -0.79194192991961      0.76313122389950     -1.35004096977667
  H   -0.83841639781058      1.77560919400281     -1.31796457691394
  H   -1.71704345918611      0.43087077864274     -1.59677841973603
  C   1.55471047945627      0.15348927035208      1.47656175611342
  N   1.91804891563332     -0.21421922948540      2.53001109270456
