16
Coordinates from ORCA-job run
  C   -0.31825825627248     -0.59943406512551     -0.37224192010447
  C   0.84615360762423      0.25301121928339      0.13350266741751
  F   0.13914906071551     -1.52447783106409     -1.27598354184278
  H   1.59101150224630     -0.42784440982164      0.55772771760223
  N   -0.85766149366160     -1.50686636874474      0.77087210007704
  O   -1.95416927699889     -2.02058636940165      0.57495046022664
  O   -0.15209639905872     -1.67305855279984      1.76402335415317
  N   -1.32307895975928      0.18013055571563     -0.94253709809277
  H   -1.52814870899607      0.95252594056934     -0.31883683461414
  H   -2.14928072476206     -0.36535926154352     -1.15117157993287
  N   0.29627195376223      1.20410591909051      1.08970385060251
  H   0.22966780473854      0.77656897651175      2.00559915429913
  H   0.94223256405809      1.98220250622666      1.14324033332935
  N   1.47086168122056      0.99596853044163     -0.93845696644566
  H   2.01558286749591      0.36887826477597     -1.51639923325431
  H   0.75076277764774      1.40523494588610     -1.52399246342057
