16
Coordinates from ORCA-job run
  C   -0.68893906761452     -0.19876143621130     -0.47688280102746
  C   0.67212802073804      0.45964830837208     -0.28452596716080
  F   -1.23448490514964      0.11013820984242     -1.68365018709087
  H   1.29782420027999      0.18262014712177     -1.13749334037145
  N   -0.48173574577778     -1.74434002332446     -0.60249751978365
  O   0.61612426595750     -2.15722331911588     -0.96998722754135
  O   -1.46548615631851     -2.43769965610476     -0.36654797269799
  N   -1.56938808259853      0.12857089216548      0.55578448425193
  H   -2.43888577757847     -0.38209495162212      0.47157693740713
  H   -1.11618874859289     -0.06621602493323      1.44064923614528
  N   1.19123268345471     -0.05240145079880      0.99546823966483
  H   1.82616719864678      0.63012383178901      1.38902952643938
  H   1.70918869853711     -0.91050652601059      0.84197912763648
  N   0.46863925053956      1.88015082639478     -0.31845326392906
  H   1.34706978236536      2.37940973180309     -0.29216498829692
  H   -0.13426561688871      2.17858144063248      0.43671571635453
