16
Coordinates from ORCA-job run
  C   -0.46512536225414     -0.57297175226975     -0.31810346355261
  C   0.80083689716117      0.13887233533738      0.13368410871938
  F   -0.12273073769654     -1.40440767554210     -1.39521196657666
  H   1.54648157343035     -0.63222043474391      0.35042133556708
  N   -0.91438564356981     -1.56392274731345      0.74362501720597
  O   -2.11113508091031     -1.61800137777461      1.00402608563131
  O   -0.03710820447571     -2.28013234929590      1.20893900483866
  N   -1.48490033482411      0.32740822636152     -0.59167098818952
  H   -2.36151828618003     -0.11591055942410     -0.82386651819424
  H   -1.17139884690120      0.99345275611642     -1.28503570657668
  N   0.49575875593123      0.82570099111740      1.35624965977593
  H   1.32997590418977      1.16273282689988      1.81640478789034
  H   -0.14260472532460      1.59066444996637      1.17911317174450
  N   1.17740688173363      1.02462415515794     -0.97725710113550
  H   1.90675094951919      1.65250196351070     -0.66139051648224
  H   1.55469626017112      0.47160919189623     -1.73992691066573
