16
Coordinates from ORCA-job run
  C   -0.59862397113298     -0.38605912632443     -0.29841169838573
  C   0.49024535848409      0.37491886829832      0.44671559343886
  F   -0.28122220609120     -0.33242282591682     -1.65218484898528
  H   0.30056179540356      0.23176160456476      1.51077153029186
  N   -0.51961513454780     -1.86221746372541      0.08144656588676
  O   -0.50489791519753     -2.68655823379758     -0.82309608903712
  O   -0.51456761042741     -2.09071520224149      1.28285917396214
  N   -1.88029650513941      0.07559223183020     -0.00514444747396
  H   -2.57631111349289     -0.30087059810861     -0.63538445593153
  H   -1.87561436566446      1.08803767496804     -0.00430233447504
  N   0.29089728774646      1.78963570029404      0.14014738259691
  H   0.63452156774542      1.98874762697396     -0.79273054356612
  H   0.80326333286055      2.36599706227875      0.79527970743669
  N   1.75140161739735     -0.25288439767307      0.12048558028835
  H   1.97874429155888     -0.11960249316356     -0.85690181782409
  H   2.50051357049738      0.11563957174290      0.69045070177731
