16
Coordinates from ORCA-job run
  C   -0.41503684927178     -0.57737249601103     -0.23937797846362
  C   0.85451286638157      0.24103048577816      0.00412073843969
  F   -0.13305046043182     -1.49074092024296     -1.26730087107811
  H   1.66649718307824     -0.47018108243518      0.18768386448283
  N   -0.74042901005690     -1.49878073705099      0.92589469240092
  O   -1.86966969212346     -1.97625433795681      0.93793498661018
  O   0.15450275033303     -1.74308135378318      1.73103539548128
  N   -1.51667064189085      0.23262499509707     -0.47820460150344
  H   -1.28087399079323      0.91049768070164     -1.19259612362404
  H   -2.35386927319938     -0.29352350359948     -0.68559833099625
  N   0.77887859249228      1.14233493513928      1.12684195298042
  H   0.85533917442099      0.62492902052119      1.99200616981654
  H   -0.11156180897827      1.62617379700250      1.11284742947203
  N   1.02639974307575      1.04497543940025     -1.20207864011142
  H   1.36963322355609      0.47009368992344     -1.96199145112242
  H   1.71539819340776      1.75627438751607     -0.99121723278460
