16
Coordinates from ORCA-job run
  C   -0.53236712341081     -0.30509794233137     -0.48644348415620
  C   0.69133246351543      0.55963311391669     -0.13254576560550
  F   -0.25707478756580     -0.91064224027150     -1.70174635462093
  H   0.77456609873673      1.26077105221223     -0.98285490716628
  N   -0.66074370918522     -1.44536965496537      0.51505892729454
  O   -0.91536922566928     -1.10750559419173      1.66611247638126
  O   -0.48664848182492     -2.58676246102197      0.11296779744105
  N   -1.73430595560284      0.41935586186959     -0.49125225500254
  H   -1.66755752809962      1.20243642241255     -1.12935767298311
  H   -2.52172490471058     -0.16109763114641     -0.75383983191627
  N   1.81514968751079     -0.33910481097667      0.01387077974170
  H   2.62525691816478      0.20698654800628      0.27732645726792
  H   2.00792599571834     -0.82802253530493     -0.85073895724617
  N   0.60383687252085      1.34346222950670      1.07049516619823
  H   0.44495316051927      0.71669928356825      1.85136151888444
  H   -0.18622948061712      1.97425835871767      1.02258610548787
