16
Coordinates from ORCA-job run
  C   -0.49474628295263     -0.43412524120395     -0.52425805036814
  C   0.62916260963655      0.55231309176058     -0.19442167319033
  F   -0.17330019040199     -1.19064121511101     -1.62745623141591
  H   0.55740493670046      1.32228750512323     -0.98106001292652
  N   -0.64111499422505     -1.46251871123579      0.59853266212176
  O   0.38140518648829     -2.05649770608988      0.91243010438606
  O   -1.76027217279393     -1.66239405733028      1.05790713018441
  N   -1.71812803160588      0.25286580791076     -0.65129465614673
  H   -1.72891677394133      0.76715192805813     -1.52283485682555
  H   -2.50588150989221     -0.38003827310094     -0.60199553046163
  N   1.93738934460855     -0.02712714498450     -0.31582486592888
  H   2.64050873640563      0.69956413481559     -0.31008352192597
  H   2.10434053751646     -0.66787831052767      0.44852463410694
  N   0.32136979483041      1.05327110236878      1.14268137715908
  H   1.03236480015202      1.71420166268812      1.42911424458144
  H   -0.57858599052536      1.51956542685882      1.14203924664997
