16
Coordinates from ORCA-job run
  C   -0.43279037947936     -0.66575318242309     -0.37372627024738
  C   0.78575910258741      0.14589055823931      0.05734736311083
  F   0.00989908194665     -1.62201469157441     -1.28262932458523
  H   1.56386143612424     -0.58022544358252      0.31680132041282
  N   -0.88072225905828     -1.49698064300063      0.83146563859370
  O   -0.03576211718234     -2.25288906487434      1.29072715452177
  O   -2.02766363418781     -1.35738933078156      1.24110974795183
  N   -1.48189334639723      0.08351100331421     -0.88166895092667
  H   -2.35350243607926     -0.04192401002109     -0.39258578324079
  H   -1.22777149891614      1.04019367418552     -1.07118550399605
  N   0.44098331624591      0.88156753038657      1.24828282128565
  H   1.25816110557590      1.08940233057448      1.80447573394430
  H   -0.02010410282406      1.74819024531659      1.00095746947391
  N   1.12141164750761      1.01924089185006     -1.06533835374564
  H   1.32449033642196      0.46140127906218     -1.88889248245834
  H   1.95464374771479      1.54877885332874     -0.83714058009470
