16
Coordinates from ORCA-job run
  C   -0.39185153842877     -0.61636645921416     -0.45418002773526
  C   0.85705118164365      0.09138533762327      0.05302095981578
  F   -0.10987806513930     -1.51820401373999     -1.43153360114309
  H   1.53662331630397     -0.68306894661880      0.41166814230059
  N   -0.91892229970611     -1.51381404375031      0.70831512596515
  O   -2.13119311874358     -1.53476126130645      0.89273876241308
  O   -0.08447880100821     -2.17088660769637      1.32140303331732
  N   -1.35659107231995      0.29452476903883     -0.90789677587989
  H   -2.17132150446875     -0.19588521999074     -1.25561484479828
  H   -1.63448041920401      0.87962055561746     -0.12934743920240
  N   0.40291270713895      0.92580886161150      1.17822215234141
  H   0.91964017459801      0.72038954400257      2.02250686728854
  H   0.53660331500577      1.90295319486869      0.95302207161541
  N   1.46219064003383      0.76314847332749     -1.06537521618438
  H   2.28766017761668      1.27361135284280     -0.78251886363690
  H   0.79703530667783      1.38054446338422     -1.51343034647705
