16
Coordinates from ORCA-job run
  C   -0.68623348310925     -0.36095780297020     -0.51856588351837
  C   0.59915698620527      0.44347650894336     -0.24152451985314
  F   -1.05926335368642     -0.08132106507362     -1.79158957827266
  H   1.25767825083113      0.26751029180995     -1.10472436982058
  N   -0.30273253020190     -1.83614827191631     -0.48705547654685
  O   0.25387121929384     -2.27388155967783     -1.48746160432273
  O   -0.49914115802194     -2.44523819021572      0.56223795945394
  N   -1.78649910364597     -0.16091613970019      0.34036872913717
  H   -1.54796176907379     -0.45241618345266      1.27937395902343
  H   -1.99468617912343      0.83131686665044      0.33111139595643
  N   1.14970543801518      0.04457236597186      1.04411905472643
  H   1.35871500938285     -0.94560261818035      1.08857365341741
  H   2.01444917482367      0.54758602336638      1.20328872702825
  N   0.21166915246642      1.83873634439837     -0.20424268797278
  H   0.21579948061050      2.16282959053197      0.75410389017374
  H   0.81647286523384      2.41845383951456     -0.76601324860970
