16
Coordinates from ORCA-job run
  C   -0.52828205553423     -0.35622614628923     -0.27862536271144
  C   0.49746626969608      0.49616497983125      0.47227490726513
  F   -0.16429343303930     -0.34193895070756     -1.63194829074371
  H   0.28865940893621      0.38246392553974      1.53663047505831
  N   -0.44381749440846     -1.82942524116998      0.09513871548361
  O   -1.07732742522493     -2.59381019785108     -0.62306360091792
  O   0.19415643918551     -2.13828776172042      1.09785699640208
  N   -1.84022281928732      0.03442029322608     -0.04023732295654
  H   -1.90988682656623      1.04326481353715     -0.06273124130317
  H   -2.49944498544298     -0.42775266456574     -0.65238058248813
  N   0.20165826071537      1.86919246180860      0.08988588989302
  H   0.49425455471319      2.00703262888473     -0.87243386969611
  H   0.77432577688589      2.47996341256714      0.66014768475601
  N   1.87881394825615      0.12514671566524      0.24024752735179
  H   2.04092990358873     -0.01218216153796     -0.75078071603419
  H   2.09401047752633     -0.73902610721797      0.72101879064125
