16
Coordinates from ORCA-job run
  C   -0.63551847792660     -0.20204052599469     -0.42732842056557
  C   0.46535228610076      0.48948420132272      0.38444758708218
  F   -0.46501846511369      0.03976691889132     -1.74957906193009
  H   0.19605250334908      0.40973406542105      1.44469672548076
  N   -0.43200826371029     -1.72733212638634     -0.27243552331484
  O   -0.55682582611993     -2.44360542224883     -1.25431724673800
  O   -0.25355441631983     -2.10398565882398      0.88639532692296
  N   -1.93840611037109      0.16170992482375     -0.05493222887806
  H   -2.64174771848871     -0.38555699195660     -0.53366438305537
  H   -2.07449435905878      0.14512147002481      0.94442338385670
  N   0.44315606803270      1.88243526444448      0.02265123781267
  H   0.71749574115789      1.98869871242085     -0.94629751639796
  H   1.07268490644616      2.41396956064687      0.60912717816203
  N   1.72858679726045     -0.17912215115907      0.06967722626143
  H   1.88484273316163     -0.96673566099514      0.68707504387635
  H   2.48840260160026      0.47645841956878      0.19206067142481
