16
Coordinates from ORCA-job run
  C   -0.58980564141673     -0.43553742140476     -0.48478748658701
  C   0.52316418805587      0.57930117699401     -0.21145518183418
  F   -0.33649010937422     -1.01992129702641     -1.70127232855043
  H   0.54453259455260      1.18710948893099     -1.12946482428053
  N   -0.44722822990340     -1.58210001060846      0.54342584401131
  O   -0.15679671649810     -2.70140453562660      0.14748379826830
  O   -0.64041332340414     -1.24188382984103      1.70320644261678
  N   -1.87526907911645      0.09777424897223     -0.41255702974252
  H   -2.46901314529759     -0.18068790697668     -1.17697947632358
  H   -1.87443622839680      1.08443758290469     -0.20371242357647
  N   1.75366839433711     -0.16034585450566      0.03021785982917
  H   1.95900939914264     -0.77280759485714     -0.75256861176383
  H   2.52618131639751      0.48686598706376      0.12827790030222
  N   0.14168380083740      1.45926943480753      0.86386947462571
  H   0.77011392175171      2.25034618049061      0.91577277675520
  H   0.17109885833257      0.94958435068292      1.73954326624986
