16
Coordinates from ORCA-job run
  C   -0.65954276607723     -0.30481217946163     -0.41350573699301
  C   0.64772146878996      0.47608246256042     -0.22092149960539
  F   -1.09203702088095     -0.07232271508352     -1.72201111575622
  H   1.13023906014135      0.49672822273256     -1.20505620964769
  N   -0.40575051366088     -1.80658503918026     -0.43141594162252
  O   0.63557051461887     -2.16931760965127     -0.97345740680635
  O   -1.28299863810039     -2.54319222493463      0.00293951382240
  N   -1.61793253251204     -0.01788362021516      0.55089422915445
  H   -2.42876261337389     -0.61516065981239      0.46461098368511
  H   -1.86171678005200      0.96135514279809      0.48495256663408
  N   1.44916718598497     -0.13363757440055      0.83066914238260
  H   2.20180535629030      0.50219744939160      1.06533230563456
  H   1.86651281779030     -0.99602253809284      0.50251716432091
  N   0.26568439485736      1.83076852115971      0.12957079740746
  H   0.94635565822706      2.49791402914481     -0.20512639905498
  H   0.20668440795723      1.89488833304505      1.14000760644458
