16
Coordinates from ORCA-job run
  C   -0.59125521978328     -0.35425127176029     -0.36642758146665
  C   0.46567860631840      0.52453183829545      0.32370781140194
  F   -0.27792725266457     -0.38047725867622     -1.69876701521689
  H   0.22292927927680      0.52035269464498      1.39003678176284
  N   -0.40754187818382     -1.77046842202870      0.15409443892777
  O   0.15219773832183     -2.58513632434938     -0.56449263058157
  O   -0.78802737508460     -1.95372560850085      1.30922084064911
  N   -1.94476964135545      0.00519892059448     -0.19408913767413
  H   -1.99754328380517      1.01709701375263     -0.16454391539753
  H   -2.30472687914259     -0.38424111612431      0.66687080476314
  N   0.23898751579434      1.86252149383439     -0.19029660780121
  H   0.52580406378995      1.89347876081869     -1.16296770303141
  H   0.83884581349522      2.50240903844827      0.31638966866722
  N   1.83124652027907      0.05891719786246      0.17262413919215
  H   2.00235415888004     -0.23893583837439     -0.78099656174452
  H   2.03274783386382     -0.71827111843721      0.78963666754974
