16
Coordinates from ORCA-job run
  C   -0.54695844268585     -0.25238752900522     -0.44289889147436
  C   0.58208583518289      0.38064375644237      0.36661109426071
  F   -0.27509126983974     -0.20154317470447     -1.76467859285997
  H   0.32374238193177      0.23274379125287      1.42425371418938
  N   -0.57108522229854     -1.74732294250941     -0.06641956809417
  O   -0.89235003475521     -1.95959684526076      1.10121346110449
  O   -0.30879473270995     -2.58108516709310     -0.91676575007826
  N   -1.80312789056462      0.36367977842799     -0.21059006899890
  H   -2.11868726598977      0.15967851677921      0.72959797979559
  H   -2.48715177223581      0.02770547611845     -0.87885127488991
  N   0.67558514276043      1.77376696764591     -0.04402488719166
  H   1.25186065248285      2.28294852091831      0.61480193821820
  H   -0.24761327097434      2.19249794467937     -0.05750580390017
  N   1.78187737976882     -0.37898588963284      0.10943551053508
  H   2.47784437846568     -0.20373201703502      0.82137777598684
  H   2.15686413146139     -0.08901118702366     -0.78655663660289
