16
Coordinates from ORCA-job run
  C   -0.56172096887991     -0.37121559974437     -0.39492767719093
  C   0.43483371226265      0.53810779614440      0.34392552288740
  F   -0.17327005635424     -0.40315360122501     -1.70720071370591
  H   0.13184448560674      0.53894365005300      1.39477075680599
  N   -0.37635112336330     -1.77775707779965      0.15056132891963
  O   0.24214927119177     -2.58589523438778     -0.52603273089128
  O   -0.81838655150580     -1.95895810616280      1.28387376419146
  N   -1.93057245479727     -0.04107755768606     -0.30293378976372
  H   -2.32877569897390     -0.42891746316868      0.54181183561213
  H   -2.00710002946857      0.96966328554528     -0.28835991116509
  N   0.20826229233182      1.86528699902072     -0.19718021416757
  H   0.54673855759514      1.89237774475434     -1.15320023718534
  H   0.76546575016212      2.52369340227826      0.33385575216474
  N   1.81669125717247      0.10240275075624      0.27578846855020
  H   2.04935762865518     -0.19815124927550     -0.66383382356145
  H   1.99983392836511     -0.66534973910237      0.91008166849974
