16
Coordinates from ORCA-job run
  C   -0.53558726089974     -0.30354235691840     -0.42386267057066
  C   0.57443380916200      0.42120496722784      0.33334317715872
  F   -0.22141383677896     -0.42623729511200     -1.73171432500424
  H   0.28069307242705      0.41419462135593      1.39215347343295
  N   -0.58852856843429     -1.73652245075795      0.14149998550468
  O   -0.95001215443796     -1.79343749544527      1.31519339888121
  O   -0.30664059616252     -2.67497097688532     -0.58427518043348
  N   -1.79141995618931      0.34668389993996     -0.31458109068645
  H   -2.13870429920617      0.26747658075476      0.63325209314533
  H   -2.45765347654155     -0.06853733986826     -0.95579217047622
  N   0.69739906303292      1.74777532927643     -0.25171797249456
  H   -0.21988446880052      2.16747113830001     -0.35261943677393
  H   1.25740164434276      2.33532364093181      0.35365702220714
  N   1.77263494700273     -0.37490219321979      0.21767035586719
  H   2.17934451824932     -0.20874991739538     -0.69582292318139
  H   2.44793756323423     -0.11223015218436      0.92261626342374
