16
Coordinates from ORCA-job run
  C   -0.60892911159040     -0.33889590266062     -0.35029750381175
  C   0.56328933766776      0.44275604744797      0.28136556120065
  F   -0.60190764963268     -0.15060162396200     -1.68781220364481
  H   0.41598317899301      0.39150539506156      1.37012271522790
  N   -0.37429453804423     -1.81353031212417     -0.07795527709227
  O   -0.37893034469041     -2.09991531646351      1.12027805746744
  O   -0.18025155546112     -2.57183952416321     -1.01292030842745
  N   -1.92177257142281     -0.05950450336889      0.12959085299728
  H   -2.19572523637358      0.87704086188256     -0.13592918455858
  H   -1.96999126862986     -0.17284698556159      1.13335854574573
  N   0.56115828354251      1.83565259811363     -0.10240314279679
  H   0.52195304674782      1.91078874094982     -1.11197706510288
  H   -0.20862106843825      2.34325699760059      0.31116251863473
  N   1.81264204517939     -0.12176722529542     -0.18513588225094
  H   2.54986132172980      0.53198864536550      0.04654217464042
  H   2.01453613042305     -1.00408789282223      0.26901014177133
