16
Coordinates from ORCA-job run
  C   -0.53739650070826     -0.25902013624018     -0.39532905413747
  C   0.58408902527652      0.51996047107623      0.31250749971161
  F   -0.28872848269172     -0.38102796472009     -1.71510401626751
  H   0.32666212912374      0.52430207753251      1.38355523662453
  N   -0.47629342005224     -1.69534753666196      0.17410577781733
  O   -0.04702178675490     -2.60152158929951     -0.52682069428763
  O   -0.84272324994350     -1.78814806289435      1.34549354481034
  N   -1.81094538004326      0.32725497162230     -0.21179623575544
  H   -2.09008005646893      0.26037533264815      0.75863486466262
  H   -2.50257735603939     -0.12448872418270     -0.79879688676455
  N   0.63893102487049      1.81978108306653     -0.31662140813489
  H   -0.25910566970648      2.28181279632434     -0.26249290339634
  H   1.34471482973075      2.37263019524183      0.15174006294377
  N   1.89033193821439     -0.07589271399244      0.18573751992171
  H   1.97467402802347     -0.93876471328658      0.70633965435816
  H   2.09546892716931     -0.24190548623408     -0.79215296210625
