16
Coordinates from ORCA-job run
  C   -0.59679586171527     -0.19519766083255     -0.34183225965786
  C   0.59946018062862      0.48055457282644      0.34786095235661
  F   -0.60882051934993      0.07454332515942     -1.66592500055351
  H   0.41679795058894      0.42681291873825      1.43004153725321
  N   -0.42499255482704     -1.71976022782784     -0.22671008852876
  O   -0.48392294023003     -2.41710813582985     -1.22726160779949
  O   -0.27227596478904     -2.11062184250071      0.93238857413814
  N   -1.82667715490673      0.22789577218207      0.21657024005180
  H   -1.90100237297479     -0.06104911238562      1.18320553765887
  H   -2.60968704165433     -0.13396135670600     -0.31527829477004
  N   0.69943411356943      1.87410583489896     -0.01982619089764
  H   -0.14357648787642      2.36183728562777      0.25753835560930
  H   0.77422859622452      1.93200605887099     -1.03002210371573
  N   1.81754048268836     -0.17506197617469     -0.08482202574838
  H   2.58344387552383      0.46010608000256      0.10244762752707
  H   1.97584569909990     -1.02510153604920      0.44162474707642
