16
Coordinates from ORCA-job run
  C   -0.59547446456198     -0.45562298020048     -0.51040256828486
  C   0.54043974809538      0.55584301389697     -0.31209137746774
  F   -0.46465916753083     -1.02349170474267     -1.74735701247384
  H   0.57038676820479      1.07979246550914     -1.27306886544817
  N   -0.41664542805185     -1.62808819004600      0.47036443688767
  O   -0.05329000049308     -1.30994471213852      1.60190673701752
  O   -0.71654659946367     -2.75082729879141      0.09833734585702
  N   -1.86935163367289      0.07368040594247     -0.28982588385197
  H   -1.86777717640316      1.08083470690028     -0.23832337504194
  H   -2.57306468661284     -0.32311242962293     -0.89371652714126
  N   1.79214125658714     -0.16660752725245     -0.19083362239141
  H   1.94846216239518     -0.45123106336307      0.76765950680866
  H   2.56600238943383      0.40792155685352     -0.49483638440538
  N   0.16323484894331      1.53467998363212      0.69386439291580
  H   0.84225884765563      2.28495526936820      0.71474156281103
  H   0.13688313547504      1.09121850405482      1.60458163420888
