16
Coordinates from ORCA-job run
  C   -0.65538625033293     -0.18777306253694     -0.36669344473498
  C   0.73793773132984      0.43282794714234     -0.25709278163420
  F   -1.25109542043890      0.20712104798545     -1.53753125117452
  H   1.30118942190882      0.13342286002255     -1.14672415938262
  N   -0.54494010337490     -1.72689408003375     -0.56584936714067
  O   0.53767401239073     -2.19171507195757     -0.91759376062799
  O   -1.57547389877817     -2.36643714550449     -0.38248888432333
  N   -1.45879552349909      0.14486694686688      0.72259005425006
  H   -2.32826174978287     -0.37251712146589      0.72048567048232
  H   -0.93050801621344     -0.00823721886399      1.57412422280548
  N   1.31489415201794     -0.03143863457396      0.99706407013026
  H   2.03407199462449      0.63144787895755      1.25957815302323
  H   1.74502800437033     -0.93917910205697      0.86634116879233
  N   0.67944839809529      1.87733742113529     -0.22373998769919
  H   -0.06327771294952      2.16638109578846      0.40369239600939
  H   0.45749496063239      2.23178623909505     -1.14516209877557
