16
Coordinates from ORCA-job run
  C   -0.60411693182838     -0.29391718621599     -0.40175345092657
  C   0.67095214800135      0.55203815894484     -0.23177238789505
  F   -0.52534179367048     -0.89080140738042     -1.64913840363061
  H   0.63373026524685      1.25996435168984     -1.07966646777465
  N   -0.59550288430313     -1.44205064760810      0.59887766728337
  O   -0.66510286840770     -1.11246128982423      1.77797313442018
  O   -0.50457407819013     -2.58184527404455      0.16587620427983
  N   -1.78273713702932      0.44598832098182     -0.21805088728726
  H   -1.80186174045236      1.23439276916395     -0.85285850182548
  H   -2.60863429736570     -0.12194137224716     -0.36426995468943
  N   1.79139938965047     -0.36264907046051     -0.26465621735507
  H   2.63974560326493      0.17130192032620     -0.12604544363571
  H   1.84232497096340     -0.84592889735883     -1.15220022977276
  N   0.77885769684316      1.32580469851072      0.97610931740496
  H   -0.00033291761643      1.96706191873921      1.05403218328615
  H   0.73219457489349      0.69404300678320      1.76754343811809
