16
Coordinates from ORCA-job run
  C   -0.54890209024508     -0.24558256156638     -0.32876950595396
  C   0.60302393829136      0.42446174585373      0.42554926112176
  F   -0.32124838717066     -0.17164249083893     -1.66921078005865
  H   0.36662123245150      0.35004109691954      1.49169237390242
  N   -0.52596457526240     -1.74126098936815      0.02868505658486
  O   -0.85200951254394     -1.97160799518767      1.19105223594000
  O   -0.20424565097699     -2.55776134007215     -0.81984454628154
  N   -1.80328720396382      0.34592813749335     -0.05047609696731
  H   -2.06639643494443      0.15658917618832      0.90860562272349
  H   -2.51325572615227     -0.02398344056065     -0.67232966552083
  N   0.73958930277012      1.83138018879223      0.09155737494054
  H   0.88681880875226      1.92010327607107     -0.90870747253610
  H   -0.12178882512286      2.32094838776074      0.30961695941742
  N   1.79032922763734     -0.35456849727916      0.17214903280878
  H   2.57014443549317      0.07709856626369      0.65173661145050
  H   1.99857146098670     -0.36014326046956     -0.82030646157141
