16
Coordinates from ORCA-job run
  C   -0.58501878419823     -0.28383769820198     -0.37388831342199
  C   0.71116922967158      0.50353909200496     -0.17091320379211
  F   -1.18067952679859      0.18955925996911     -1.55370750952397
  H   1.29664724354506      0.40376339115755     -1.09074804101939
  N   -0.32831751928530     -1.74438821382288     -0.70964142445618
  O   -1.29387348973219     -2.49520554909473     -0.62416231255594
  O   0.79660528058070     -2.05696584890291     -1.09162103254160
  N   -1.40601410653950     -0.22961214123538      0.74422014914875
  H   -1.51250065631631      0.73625072594180      1.02952685450179
  H   -2.28667497570396     -0.70559704747650      0.60727334457942
  N   1.52000518379134      0.05104797489276      0.93323473470318
  H   1.99042934472151     -0.80946337500422      0.68781033031820
  H   0.92912700785385     -0.11778196045534      1.73910357737157
  N   0.28468391999793      1.86918843512486      0.11973532226480
  H   -0.02921100493918      2.32715070696478     -0.72734372480796
  H   1.09162285335127      2.36335224813811      0.48012124923144
