16
Coordinates from ORCA-job run
  C   -0.58076243475327     -0.39295943565622     -0.46567601909581
  C   0.63326752338637      0.51775851793151     -0.26216487700411
  F   -0.44267721755170     -1.14367784244351     -1.61020124100815
  H   0.51467406738079      1.30684338245616     -1.02377862314654
  N   -0.65348163573235     -1.43385242253633      0.65228046343591
  O   0.36141664253584     -2.09320882396218      0.83197746567434
  O   -1.71926254352048     -1.57721389648156      1.24138741781304
  N   -1.76579256762354      0.36860230322479     -0.43305399249017
  H   -1.84926682848358      0.90012519849605     -1.29027315009191
  H   -2.57941661343448     -0.21750936249728     -0.29833246640996
  N   1.87910877248120     -0.13573740037539     -0.54991971520959
  H   2.09718438655272     -0.80176660730567      0.17909251096737
  H   2.62118562705127      0.54752268869242     -0.61986382823415
  N   0.52105521155563      1.00844282908778      1.10904759269966
  H   1.30249849992972      1.61738763073744      1.31596237585935
  H   -0.34073088977416      1.52924324063197      1.22451608624072
