16
Coordinates from ORCA-job run
  C   -0.53864355632532     -0.29812671399613     -0.42441337146350
  C   0.57736390485404      0.41551458866353      0.33458618552825
  F   -0.22784754521414     -0.41545452146169     -1.73349226621981
  H   0.28580491650619      0.40503759467584      1.39395023999034
  N   -0.59956675447840     -1.73369739425302      0.13326406193614
  O   -0.32372318167570     -2.67002087274383     -0.59750751883739
  O   -0.96090227414151     -1.79464203335561      1.30684608828501
  N   -1.79001542193767      0.35975345413159     -0.30912416969750
  H   -2.13739510209799      0.27544530903790      0.63820465156871
  H   -2.45906920910573     -0.04646939578033     -0.95314871627886
  N   0.70751672101982      1.74437254545197     -0.24397143793592
  H   1.27624684449052      2.32308348228261      0.36181682332767
  H   -0.20697403439988      2.17213519041925     -0.33596759258212
  N   1.77065866124088     -0.38692156696856      0.21218595740571
  H   2.17782773449055     -0.21666852188705     -0.70028500980677
  H   2.44771829677435     -0.13434114421647      0.91905607478004
