16
Coordinates from ORCA-job run
  C   -0.55064050894039     -0.38209847469560     -0.34357649845693
  C   0.56307730526147      0.40185360088116      0.36696564829113
  F   -0.26815967043949     -0.36822595209387     -1.67970371666605
  H   0.33391646286792      0.36784704217862      1.43598924310302
  N   -0.47901295042449     -1.82097851144175      0.13461196713526
  O   -0.08733844235928     -2.67602185061158     -0.64012200294612
  O   -0.82289512796792     -1.97812815151576      1.30381544217126
  N   -1.89637655828758      0.03024723677753     -0.16437439848339
  H   -1.99192053280012      1.01611138594085     -0.36818154557558
  H   -2.19835919667184     -0.16531597383780      0.78100642893430
  N   0.60729301435036      1.80092376713714     -0.03010977509503
  H   -0.14094834834143      2.34659318937456      0.37777120067498
  H   0.58853254947530      1.89541357585381     -1.03866874929257
  N   1.79913355328012     -0.30750563904754      0.14336244419459
  H   2.55451658933819      0.21136212158666      0.57347140602989
  H   1.98918186165920     -0.37107736648643     -0.85025709401875
