16
Coordinates from ORCA-job run
  C   -0.58552882345352     -0.42610706720309     -0.49971214025415
  C   0.51952415926020      0.58757838883864     -0.19162736494611
  F   -0.32404068891063     -0.97137950528222     -1.73207438670019
  H   0.53971160410984      1.22337939155605     -1.09053639981882
  N   -0.43975569993497     -1.60090394920273      0.49422201782341
  O   -0.63795487785311     -1.29606686167260      1.66300123437879
  O   -0.14203822271028     -2.70653956537345      0.06653923785542
  N   -1.87615047161383      0.09570349277958     -0.41720331130293
  H   -2.45765522499660     -0.15399216279448     -1.20094112803994
  H   -1.88095925539338      1.07473588963242     -0.17435771424254
  N   1.75433334414921     -0.15045760750617      0.03190534619310
  H   1.97142306257077     -0.73141615237037     -0.77137084123725
  H   2.52008927035137      0.49914315381892      0.16162721320061
  N   0.12875133190661      1.43186865678430      0.90862724703044
  H   0.16173208076451      0.89760873484467      1.76931441457528
  H   0.74851841175381      2.22784516315053      0.98358657548488
