16
Coordinates from ORCA-job run
  C   -0.64530124327160     -0.35455808627023     -0.23339935912899
  C   0.55703571172040      0.33855858731766      0.39415905715411
  F   -0.51055544557107     -0.23702700075179     -1.61322055478991
  H   0.50729364139284      0.14384561591933      1.46572241341486
  N   -0.56252402936980     -1.85035118844682      0.05921033634408
  O   -0.69699113150313     -2.62557290053749     -0.87830675641193
  O   -0.40286410340349     -2.14238234842526      1.23596398685151
  N   -1.86094421127338      0.12216856258405      0.25316969227625
  H   -1.82357567242262      1.13257452881267      0.30573081241661
  H   -2.64694147269793     -0.20154543761508     -0.29521286223709
  N   0.36344529337581      1.77203499385716      0.18734953571153
  H   0.58120207591351      2.01060952785879     -0.77376677677337
  H   0.98064984053780      2.29974158570211      0.79114505651401
  N   1.74276506978437     -0.30220337894424     -0.13013543401705
  H   2.57224079982363      0.01523379014840      0.35261515109919
  H   1.84306487696467     -0.12112685120926     -1.12102429842381
