16
Coordinates from ORCA-job run
  C   -0.58542405393967     -0.38527660302810     -0.32442849983608
  C   0.47024080397715      0.37494299171667      0.46755992535905
  F   -0.20693593995048     -0.33620892954447     -1.66232982383757
  H   0.23190693756734      0.23511088480307      1.52222256364252
  N   -0.52734289225956     -1.86062622997545      0.06287799843748
  O   -0.57862892722559     -2.08550143163740      1.26385019664558
  O   -0.47275955380170     -2.68760341237563     -0.83770610764088
  N   -1.87810071532044      0.08015369295102     -0.09076234008619
  H   -1.87044603583068      1.09262656665263     -0.09304726253356
  H   -2.54508116834312     -0.29591251807599     -0.75193640880422
  N   0.28906745841971      1.78931310275552      0.14847705713394
  H   0.67622496919436      1.98506509648266     -0.76791824741040
  H   0.77219684050036      2.36597449799164      0.82521176532203
  N   1.74343086008853     -0.25711456300565      0.20095312896710
  H   2.46668844144728      0.11273300508373      0.80262679900643
  H   2.01496297547653     -0.12767615079425     -0.76565074436524
