16
Coordinates from ORCA-job run
  C   -0.55064989605947     -0.37703073754873     -0.60591976214143
  C   0.56236287552445      0.60386775129422     -0.22890596017315
  F   -0.22045370541336     -0.98504861524973     -1.78406116895018
  H   0.63242097309718      1.26571081554393     -1.10398909937356
  N   -0.53297189667974     -1.52729890339002      0.43662247231209
  O   -0.97079375639791     -1.21449457318208      1.54121361804802
  O   -0.09169645384841     -2.61976177322505      0.11296203817758
  N   -1.78613380122248      0.25924313997932     -0.70090405691192
  H   -1.88409783362264      0.92004648146711      0.05907735672918
  H   -2.56507283382913     -0.38200936069977     -0.75502787499298
  N   1.76604164090008     -0.16895429201387      0.03986703093597
  H   1.96568343610294     -0.79957539601243     -0.72937161727522
  H   2.55488760505559      0.45783260555015      0.14098560140605
  N   0.14674874763851      1.41583557340015      0.89134893097406
  H   0.27704103466378      0.88978508555288      1.74817036335562
  H   0.69568386409064      2.26385219853392      0.93793212787988
