16
Coordinates from ORCA-job run
  C   -0.59136940906089     -0.44911650239780     -0.52164326658310
  C   0.53691881553751      0.56572293296877     -0.29891323222341
  F   -0.45317279318349     -0.99015133159547     -1.76985803492865
  H   0.56568487333066      1.10975766281975     -1.24868858731797
  N   -0.40670619000573     -1.64055710826527      0.43478723445964
  O   -0.69359607572088     -2.75809467721673      0.03773028550751
  O   -0.05146325743929     -1.34288085838904      1.57447864909366
  N   -1.86937589278703      0.06732285481298     -0.29440086390115
  H   -2.56846739700590     -0.32055597016844     -0.90931861268026
  H   -1.87400071844564      1.07318646853764     -0.22176621666236
  N   1.79329045306825     -0.15060447079581     -0.18883373318466
  H   2.56393377746762      0.43571850245331     -0.47824573103253
  H   1.94880516329374     -0.45332488229853      0.76426923657328
  N   0.15024942896873      1.52057419019671      0.72638314033353
  H   0.82584264015617      2.27315835780880      0.76706781000240
  H   0.12242658182617      1.05684483152911      1.62695192254406
