16
Coordinates from ORCA-job run
  C   -0.54360171870106     -0.25730841995746     -0.32824694583353
  C   0.59644101212398      0.43712742300104      0.42230579895966
  F   -0.30658704829531     -0.20406357610450     -1.66818838881510
  H   0.35455465312029      0.37708790231223      1.48809397179153
  N   -0.50894561006086     -1.74615137492112      0.05500444365205
  O   -0.17698640341644     -2.57440114324658     -0.77795875643296
  O   -0.83716673694360     -1.95855974746892      1.22027208971018
  N   -1.80588531116781      0.32631452156360     -0.06964240855279
  H   -2.07330794160973      0.15359709604395      0.89137049941621
  H   -2.50796290003387     -0.06270826325302     -0.68878675718190
  N   0.72070574448563      1.83985547178108      0.06683864927388
  H   0.86976439409896      1.91474291978087     -0.93432244702396
  H   -0.14552331835460      2.32504423087155      0.27525151843763
  N   1.79319353837131     -0.33356533589174      0.18743152973015
  H   2.00635790138521     -0.35162494512377     -0.80390187032827
  H   2.56594974499789      0.11461324061279      0.66347907319723
