16

C	-0.56626	0.003648	-1.404186
C	0.0	0.0	0.0
Cl	0.207879	-1.303852	-2.350344
H	1.092944	0.0	0.0
H	-0.344721	-0.93773	0.452919
C	-2.068372	-0.14132	-1.491253
H	-2.347513	-1.095116	-1.039139
H	-2.409758	-0.115805	-2.524634
H	-2.519789	0.674399	-0.923534
N	-0.178888	1.301899	-2.117488
O	0.712063	1.985052	-1.629457
O	-0.789566	1.570346	-3.154732
N	-0.556445	1.161473	0.723198
H	0.220299	1.802594	0.837105
H	-0.831263	0.869953	1.652211
F	2.67742	0.0	0.0
