16

C	-0.551677	0.010712	-1.417172
C	0.0	0.0	0.0
Cl	0.08601	-1.378114	-2.324442
H	1.098414	0.0	0.0
H	-0.3832	0.902069	0.48731
C	-2.06541	-0.011123	-1.496421
H	-2.396186	-0.907754	-0.972799
H	-2.464939	0.874232	-0.995011
H	-2.408833	-0.033004	-2.534295
N	-0.087903	1.300085	-2.094365
O	-0.443852	2.324552	-1.512865
O	0.543969	1.272289	-3.142703
N	-0.499722	-1.210248	0.692911
H	-0.717228	-0.958128	1.648123
H	0.299977	-1.829219	0.74896
F	2.66254	0.0	0.0
