16

C	-0.270694	-0.030413	-1.495032
C	0.0	0.0	0.0
Cl	0.054979	1.56849	-2.203265
H	1.09914	0.0	0.0
H	-0.362033	-0.953926	0.395208
C	0.665705	-1.043985	-2.125987
H	0.623908	-1.006739	-3.217134
H	1.662564	-0.789505	-1.739338
H	0.394601	-2.043036	-1.778412
N	-1.72879	-0.394192	-1.781537
O	-2.48061	0.384492	-2.355146
O	-2.059199	-1.508349	-1.373988
N	-0.683082	1.10657	0.676157
H	-0.046529	1.895723	0.665625
H	-0.787647	0.849689	1.650116
F	2.728227	0.0	0.0
