16

C	-0.214305	0.022015	-1.513628
C	0.0	0.0	0.0
Cl	-0.064296	1.710753	-2.105237
H	1.093809	0.0	0.0
H	-0.460427	0.869949	0.467791
C	0.808734	-0.843206	-2.209574
H	1.770419	-0.568166	-1.748207
H	0.796734	-0.711826	-3.290709
H	0.598448	-1.891593	-1.980228
N	-1.639643	-0.37935	-1.891696
O	-2.547103	0.03188	-1.171155
O	-1.807736	-1.094778	-2.879127
N	-0.423594	-1.234361	0.644999
H	-1.328193	-1.563972	0.334236
H	0.279422	-1.945628	0.497379
F	2.716361	0.0	0.0
