16

C	-0.584594	-0.003929	-1.394048
C	0.0	0.0	0.0
Cl	0.052829	-1.418498	-2.285674
H	1.094773	0.0	0.0
H	-0.347463	-0.931313	0.464432
C	-2.096236	-0.013637	-1.455824
H	-2.459314	0.865702	-0.921698
H	-2.44709	-0.007584	-2.486556
H	-2.458178	-0.912379	-0.952277
N	-0.112861	1.226449	-2.174622
O	0.700301	1.972229	-1.645137
O	-0.604858	1.393976	-3.291609
N	-0.530815	1.171881	0.731354
H	0.264384	1.79153	0.84442
H	-0.80507	0.8798	1.660767
F	2.666674	0.0	0.0
