14

C	0.0	0.0	0.0
C	-0.528359	-0.334658	-1.386678
Cl	1.773332	0.0	0.0
H	-0.161722	-1.314038	-1.693685
H	-1.626501	-0.367517	-1.311018
N	-0.52803	1.193361	0.483699
H	-0.262609	1.332156	1.45116
H	-1.553548	1.123711	0.415497
N	-0.322186	-1.228711	0.934779
O	-0.426086	-0.968634	2.125785
O	-0.387749	-2.341338	0.430355
C	-0.116485	0.672808	-2.356713
N	0.200425	1.45511	-3.172046
Cl	-3.528029	0.0	0.0
