14

C	0.0	0.0	0.0
C	-0.27261	-0.219552	-1.501293
Cl	1.776544	0.0	0.0
H	0.346014	-1.065517	-1.802433
H	0.152397	0.671234	-1.972456
N	-0.546864	1.163651	0.533396
H	-1.570106	1.07591	0.396048
H	-0.37001	1.187442	1.532297
N	-0.344545	-1.286503	0.807793
O	-0.403052	-2.346154	0.198614
O	-0.464126	-1.135496	2.016647
C	-1.569775	-0.455074	-2.140382
N	-2.296218	-0.701374	-3.033554
Cl	-3.398206	0.0	0.0
