14

C	0.0	0.0	0.0
C	-0.270334	0.154098	-1.532032
Cl	1.771735	0.0	0.0
H	0.461454	-0.465787	-2.049175
H	-0.006223	1.194992	-1.749553
N	-0.534073	0.913638	0.917744
H	-1.560607	0.788663	0.880907
H	-0.300729	1.855883	0.6279
N	-0.394933	-1.425777	0.431294
O	-0.583497	-1.623285	1.619684
O	-0.403565	-2.266484	-0.460843
C	-1.530912	-0.143475	-2.213087
N	-2.280409	-0.409135	-3.079168
Cl	-3.393484	0.0	0.0
