14

C	0.0	0.0	0.0
C	-0.54182	-0.242742	-1.40481
Cl	1.766691	0.0	0.0
H	-0.430038	0.70579	-1.936601
H	-1.61817	-0.443187	-1.299616
N	-0.536725	1.180449	0.526445
H	-0.296854	1.25029	1.508908
H	-1.561224	1.100548	0.441046
N	-0.332699	-1.241581	0.895022
O	-0.309267	-1.0396	2.103657
O	-0.550357	-2.310506	0.342245
C	0.123345	-1.288259	-2.169866
N	0.627449	-2.093703	-2.858826
Cl	-3.52519	0.0	0.0
