14

C	0.0	0.0	0.0
C	-0.261578	0.194966	-1.527457
Cl	1.771516	0.0	0.0
H	0.072268	1.219207	-1.731424
H	0.42816	-0.466178	-2.053001
N	-0.534687	0.891781	0.940088
H	-0.333431	1.840845	0.648211
H	-1.557955	0.74782	0.917392
N	-0.406075	-1.430745	0.394493
O	-0.422422	-2.251145	-0.515617
O	-0.603676	-1.652121	1.577562
C	-1.541742	0.003836	-2.213828
N	-2.288745	-0.11954	-3.114576
Cl	-3.386826	0.0	0.0
