13

C	-0.315422	0.045204	-1.4702
C	0.0	0.0	0.0
Cl	-2.117651	0.353268	-1.766472
H	1.096047	0.0	0.0
H	-0.187913	-0.955582	-1.890715
H	-0.33456	0.938343	0.462074
N	0.45704	1.086503	-2.079413
H	1.390325	1.045922	-1.660842
H	0.541498	0.928976	-3.07484
N	-0.500447	-1.210973	0.63895
H	0.172688	-1.489253	1.344558
H	-1.384269	-1.028581	1.09744
H	2.970775	0.0	0.0
