13

C	-0.428958	-0.036201	-1.463229
C	0.0	0.0	0.0
Cl	-0.655244	1.674908	-2.073303
H	1.09207	0.0	0.0
H	-1.418315	-0.488446	-1.561672
H	-0.408217	0.858849	0.535409
N	0.504292	-0.729238	-2.303041
H	0.285538	-1.719547	-2.297758
H	1.443004	-0.603068	-1.913046
N	-0.407765	-1.287753	0.612204
H	-0.898091	-1.110192	1.48106
H	0.453694	-1.766694	0.859962
H	3.006204	0.0	0.0
