13

C	-0.441798	-0.01886	-1.433694
C	0.0	0.0	0.0
Cl	-2.398902	-0.068438	-1.435654
H	1.093024	0.0	0.0
H	-0.22764	-0.976967	-1.900015
H	-0.340144	0.944067	0.458037
N	0.031433	1.051089	-2.183293
H	-0.087758	1.941458	-1.723528
H	-0.309912	1.074236	-3.130955
N	-0.455954	-1.19763	0.693993
H	0.173693	-1.361741	1.470384
H	-1.394156	-1.067662	1.050531
H	3.032448	0.0	0.0
