13

C	-0.304213	-0.021343	-1.476319
C	0.0	0.0	0.0
Cl	-2.090217	0.222652	-1.782932
H	1.095293	0.0	0.0
H	-0.088838	-1.017446	-1.863499
H	-0.334349	0.961639	0.421431
N	0.442108	0.959449	-2.232493
H	1.422984	0.75328	-2.017287
H	0.26315	1.86848	-1.814502
N	-0.501185	-1.176918	0.699222
H	-1.393922	-0.982806	1.134691
H	0.164847	-1.413689	1.425066
H	2.989427	0.0	0.0
