13

C	-0.477125	0.012981	-1.439097
C	0.0	0.0	0.0
Cl	-0.055463	-1.605346	-2.214626
H	1.091346	0.0	0.0
H	0.092897	0.742844	-2.016522
H	-0.385162	-0.896148	0.502126
N	-1.879019	0.296445	-1.55399
H	-2.403456	-0.415039	-1.056372
H	-2.171785	0.283932	-2.522585
N	-0.407611	1.217584	0.708062
H	-1.193627	1.64547	0.236838
H	0.378813	1.858014	0.68594
H	3.010357	0.0	0.0
