13

C	-0.498847	-0.006269	-1.417369
C	0.0	0.0	0.0
Cl	-2.416652	-0.544467	-1.33895
H	1.093522	0.0	0.0
H	-0.118379	-0.836886	-2.007021
H	-0.328858	-0.915388	0.501337
N	-0.350433	1.218025	-2.030886
H	-0.783634	1.300822	-2.935987
H	-0.592073	1.957733	-1.382279
N	-0.437532	1.225288	0.674755
H	0.333229	1.546496	1.24845
H	-1.237528	1.048974	1.266991
H	2.970865	0.0	0.0
