13

C	-0.564728	0.001347	-1.411889
C	0.0	0.0	0.0
Cl	-0.310592	-1.611167	-2.160109
H	1.097621	0.0	0.0
H	0.003382	0.707013	-2.02105
H	-0.375991	-0.87584	0.542753
N	-1.977816	0.335946	-1.521994
H	-2.058559	1.191186	-0.975306
H	-2.495535	-0.376993	-1.014452
N	-0.41955	1.268639	0.642048
H	-0.917626	1.074366	1.500064
H	0.437259	1.749096	0.903421
H	3.002563	0.0	0.0
