13
Coordinates from ORCA-job run
  C   -0.50975618158059      0.07064155993896      0.08628138329087
  C   0.75259792792417     -0.13151473046101      0.56726806512704
  N   -1.30943632061935      1.23315186010796      0.37231340370520
  O   -2.46985386991207      1.24524663287064     -0.02177200682070
  O   -0.76380597963087      2.12794131522913      1.02935378931858
  N   -1.16299309910201     -0.92821041945476     -0.74928550853251
  O   -1.40523169177737     -0.58322468183348     -1.90472439005752
  O   -1.42494898134320     -2.01034272989194     -0.22937734348127
  N   1.51678005701709      0.73819992853932      1.26737680544256
  H   2.34398666943257      0.38766650186727      1.72023219829920
  H   1.06967437010823      1.56942390309976      1.62468063025109
  C   1.40092286742659     -1.36427178566689      0.20436307429079
  N   1.96106423205681     -2.35470735434497     -0.09271010083333
