13
Coordinates from ORCA-job run
  C   -0.53880474936585      0.00617816636365      0.12498291554224
  C   0.74465421644276     -0.07552843496388      0.58428197766698
  N   -0.88629141341451      0.30252696888392     -1.24170338594444
  O   -2.04100788981046      0.09478310711018     -1.59418302198574
  O   0.02380074414294      0.71552478709505     -1.96954382022194
  N   -1.67317309004293     -0.20279527211044      1.01618869767595
  O   -1.72202153373063     -1.26931584979094      1.62631727122163
  O   -2.47935391374795      0.72122957134169      1.08173473891352
  N   1.87962714795261      0.09280238145502     -0.13212194933860
  H   1.79619769009334      0.50450408478700     -1.04914569355009
  H   2.74721192502477      0.18624051070652      0.36906283623091
  C   0.94860149191685     -0.41695160353956      1.96793583735166
  N   1.20255937453906     -0.65819841733822      3.09119359643791
