13
Coordinates from ORCA-job run
  C   -0.53313798322679      0.05106983477460      0.13823870183402
  C   0.76359924716217     -0.12114210282987      0.50171827864431
  N   -1.32151751612104      1.18896603555887      0.49524657735306
  O   -2.39783702883725      1.31268452568813     -0.08879033530227
  O   -0.81061198404971      1.94179954087168      1.33666666866416
  N   -1.22844907025949     -0.94767724854634     -0.66750597784264
  O   -0.81274733662662     -1.16722691705553     -1.79695713628012
  O   -2.18367970515278     -1.51537609972030     -0.12201502557228
  N   1.51403480011154      0.71871309742607      1.30792425548918
  H   2.51218982448572      0.56182773649863      1.34417239936077
  H   1.12311061781641      1.63790148602068      1.54893396659789
  C   1.41080314816382     -1.34406118295044      0.08924095741836
  N   1.96424298653403     -2.31747870573619     -0.21187333036443
