13
Coordinates from ORCA-job run
  C   -0.52586765378819      0.16187981421517      0.16288770910700
  C   0.73406764548932     -0.18725878069273      0.55771385884309
  N   -0.85764784486002      0.60619262122343     -1.16685148881725
  O   0.00683008372206      0.45047429781026     -2.03699239704474
  O   -1.95019343675804      1.13403579479273     -1.33569838977162
  N   -1.65006451086009      0.09960043175057      1.08891780776074
  O   -1.55555325328741      0.74061955365421      2.13398684458119
  O   -2.59332940871403     -0.60437625484897      0.73881828484415
  N   1.85738001746756     -0.17401238972263     -0.19554768031681
  H   2.67885238364786     -0.62688661860634      0.16863802216384
  H   1.74944574967686     -0.08162257766408     -1.19413814432009
  C   0.93143980775306     -0.57830665274034      1.92907390924661
  N   1.17464042051106     -0.93933923917126      3.02219166372389
