13
Coordinates from ORCA-job run
  C   -0.50470215005943      0.14592408494067      0.13416897790440
  C   0.74637658927179     -0.14933401017288      0.58745524572407
  N   -1.65849909325611      0.09198184476828      1.02410736667790
  O   -1.88927025351192      1.09834029674560      1.69098600891030
  O   -2.30283679873604     -0.95466125718629      1.01329711402818
  N   -0.82885881812966      0.47315338139712     -1.22458465109192
  O   -2.00576717454416      0.70423244564292     -1.48302381634869
  O   0.10715197730232      0.50474992448278     -2.03109623783031
  N   1.90712772936361     -0.10264183231919     -0.10779735775933
  H   1.84253731384836     -0.00318330656042     -1.10961318289396
  H   2.71361964262862     -0.55845318817156      0.28571822092984
  C   0.86703439127770     -0.48160425817137      1.98191078638828
  N   1.00608664454491     -0.76650412539566      3.11547152536124
