13
Coordinates from ORCA-job run
  C   -0.52465488171632      0.06540961840892      0.15631487574388
  C   0.76662695635512     -0.15072311913015      0.53466648872725
  N   -1.30524344790512      1.21325435792016      0.51706348115768
  O   -0.75979948873773      2.05628289083589      1.23814257511270
  O   -2.45249915767906      1.27248527206958      0.08625262641455
  N   -1.22884124077677     -0.88328067881168     -0.69981263918648
  O   -1.83008835520996     -1.79178408222031     -0.13045695367895
  O   -1.17066968277933     -0.67468673036557     -1.90954031206506
  N   1.51698780142733      0.60348547203753      1.37262622292218
  H   1.15939301535920      1.51360029468263      1.62078311701485
  H   2.51204775560668      0.45336036696658      1.38106418160205
  C   1.38788642880544     -1.35377028952286      0.04935087566327
  N   1.92885429725050     -2.32363337287073     -0.34045453942792
