13
Coordinates from ORCA-job run
  C   -0.52460791120703      0.14937609846125      0.14355510287091
  C   0.70896031253309     -0.26917195878359      0.55367258580289
  N   -1.66050514409984      0.15151389624559      1.05813704188057
  O   -1.96343654854049     -0.92014350169351      1.57967259447612
  O   -2.21039732127693      1.23592503593254      1.22865132576344
  N   -0.81330225833416      0.62271437769324     -1.18598012215153
  O   0.15674684480286      0.82523686081942     -1.92577767466825
  O   -1.98913505266350      0.75766750934664     -1.50172046702300
  N   1.83973309494958     -0.32522595769791     -0.18476710686556
  H   2.71287362577990     -0.48401685198202      0.28952039886423
  H   1.84192122276538      0.13543210973016     -1.08152319626381
  C   0.84673328933373     -0.74973496416177      1.90406164333531
  N   1.05441584595740     -1.12857265391004      2.99849787397869
