13
Coordinates from ORCA-job run
  C   -0.65051703240338      0.03391051781685     -0.07806330124101
  C   0.56511746190112      0.05310784817266      0.78891584790289
  N   -1.02313953705515     -0.50241085249654     -1.34396452522359
  O   -2.18187134430341     -0.31873355025371     -1.70769450536413
  O   -0.12810858086148     -1.09564976249614     -1.94102461724073
  N   -1.44222877608010      0.52451513745677      0.87372349260120
  O   -2.56731912820731      0.81288267900963      1.12573859981524
  O   -0.31430720562287      0.65893368074200      1.84399606427167
  N   1.64658850377781      0.81716462785097      0.34125804061228
  H   2.40787798952942      0.85503794531819      1.00654080007390
  H   1.36459915565686      1.74307596492919      0.04642466373329
  C   0.99141114204195     -1.26454108902718      1.26545006656600
  N   1.33189735162655     -2.31929314702270      1.65469937349299
