13
Coordinates from ORCA-job run
  C   -0.53189096122610      0.09602937323906      0.11666822634811
  C   0.72606625102282     -0.20712947532667      0.55381223098954
  N   -1.25100723202828     -0.79527910581518     -0.78630147901044
  O   -1.62433615506790     -0.29563386188026     -1.84371101046034
  O   -1.40670527688824     -1.95981189901589     -0.42435642546149
  N   -1.24486203132151      1.29040055028922      0.48974415773315
  O   -0.58891676791141      2.18152796591941      1.04097101562512
  O   -2.44967588524758      1.32648425966123      0.26861894122947
  N   1.50480712307140      0.53514774518147      1.37157107258941
  H   1.22658698750715      1.48539519171457      1.56076676350530
  H   2.46375433823514      0.26093283909897      1.50190436629109
  C   1.30429405953864     -1.46338513067937      0.15434471396685
  N   1.87088555031587     -2.45467845238655     -0.13003257334578
