13
Coordinates from ORCA-job run
  C   -0.55799418281161      0.01668326057624      0.19961335662667
  C   0.77953846669992     -0.10358959405061      0.44807743284451
  N   -1.25219321769448     -0.93091700855324     -0.66375421129096
  O   -1.18371702782281     -2.12142867848841     -0.36388062557654
  O   -1.83910146212384     -0.44615965109562     -1.62728913664725
  N   -1.38606585869878      1.06246359794393      0.74401132384429
  O   -2.60108190850414      0.92515578791013      0.66914060849714
  O   -0.80237983989274      2.01110058601605      1.28076321895487
  N   1.53998341723353      0.70209868270913      1.22382403329518
  H   1.14666049965426      1.58663834586499      1.50699597216047
  H   2.54013355489168      0.60282833350929      1.17556499064819
  C   1.47986356727060     -1.22017130018316     -0.13097932713624
  N   2.13535399179840     -2.08370236215871     -0.58808763622033
