13
Coordinates from ORCA-job run
  C   -0.71465564243166      0.01613500278139     -0.01331202410820
  C   0.44451170496790      0.00944814949897      0.91997253296551
  N   -1.50111669727578      0.67365308580677      0.83281616698258
  O   -0.40497802232368      0.66346993442165      1.90584873632017
  O   -2.57079565080983      1.15753021710260      0.97656418585114
  N   -0.92001860368403     -0.26877157722791     -1.38881842917889
  O   -2.03918435351191     -0.08232857609600     -1.85520592132325
  O   0.08323786163465     -0.68240167417117     -1.97297734913880
  N   1.51280719778859      0.84390312851218      0.48584431561158
  H   1.85805370918069      0.52224372151053     -0.41207634162756
  H   2.27212191040119      0.84557800533501      1.15741471735539
  C   0.81260045681524     -1.32237732775909      1.42786392194454
  N   1.16641612924863     -2.37608208971493      1.81106548834579
