13
Coordinates from ORCA-job run
  C   -0.51710925681325      0.13122003890330      0.10818830773460
  C   0.75495826903694     -0.18682261924615      0.48987383491122
  N   -1.16101920210385     -0.55035577667394     -1.00784831678959
  O   -2.22342561309389     -1.11045489085054     -0.75172420240946
  O   -0.58778049547440     -0.51639203294548     -2.09519516145165
  N   -1.32349135607987      1.13516390458334      0.75437354416795
  O   -2.33694902271371      1.51065079901439      0.17738749435834
  O   -0.91020784228239      1.56923019197528      1.83571912477218
  N   1.46614510588361      0.36668243875195      1.49876552895860
  H   0.96684133527130      0.93639437532953      2.16468583977416
  H   2.31699934884312     -0.08827774849585      1.78460823189098
  C   1.46051845325566     -1.18625554301560     -0.26872044776267
  N   2.09552027627071     -2.01178313733022     -0.81611377815466
