13
Coordinates from ORCA-job run
  C   -0.53211068381786      0.10651097253547      0.12977141364133
  C   0.75237502249076     -0.19401603135465      0.48821935584123
  N   -1.26636710943506     -0.73075480106463     -0.81140465079589
  O   -1.36836260913024     -1.92622204958987     -0.54203556430434
  O   -1.71361607483474     -0.15848848916035     -1.80140145204599
  N   -1.26882138405284      1.22501594256928      0.65569931593887
  O   -2.48269550932668      1.23898791377737      0.48835461564902
  O   -0.61970043885567      2.07579647858005      1.27676934923970
  N   1.57740517922470      0.54764409735508      1.25666351058211
  H   2.44519959815182      0.15026895560677      1.57409101345375
  H   1.21179390803278      1.37812553775727      1.69608481499308
  C   1.35056506954724     -1.38412819101885     -0.05923826898344
  N   1.91633503200579     -2.32774033599293     -0.47557345320943
