13
Coordinates from ORCA-job run
  C   -0.53408784117797      0.09138594499636      0.12599528771715
  C   0.72574797859859     -0.20661867516629      0.56126293027000
  N   -1.26483863765744     -0.82440561011563     -0.74232580019821
  O   -1.65400843878701     -0.35541900194397     -1.80848732791003
  O   -1.41826611835017     -1.97720016445466     -0.34327211631038
  N   -1.23607035147172      1.30267751062687      0.46592769253318
  O   -0.57096171593290      2.20013437058153      0.99571321614265
  O   -2.43950950895021      1.34710572623097      0.24180042111302
  N   1.51012592042294      0.54670078609121      1.36490955623691
  H   1.23540881565995      1.50519518782182      1.51922542226036
  H   2.47921142427250      0.29240133711898      1.45766596093619
  C   1.30081441369937     -1.46727785383364      0.16959872502830
  N   1.86543405967405     -2.45467955795353     -0.13101396781914
