13
Coordinates from ORCA-job run
  C   -0.63884795346549      0.15936959382325     -0.05497077795671
  C   0.60489121477987     -0.00813633516156      0.75587927074701
  N   -1.31868800935204      0.69921617146434      0.95826696932715
  O   -0.14394838456919      0.68628667865692      1.86263662087868
  O   -2.39865416322704      1.08494744386501      1.28065156266612
  N   -1.16449684051459     -0.33905276333284     -1.28344477878961
  O   -2.36011368916085     -0.15263691803687     -1.49287648792666
  O   -0.34609175988164     -0.89293014764486     -2.01140103267352
  N   1.76776233088889      0.59483320059005      0.28250003066906
  H   2.55559360552701      0.52010265937627      0.91220402185738
  H   1.61872739287593      1.53969190248845     -0.04040919285294
  C   0.83330460692099     -1.38856431377598      1.18513813195361
  N   0.99256164917815     -2.50212717231218      1.52182566210040
