13
Coordinates from ORCA-job run
  C   -0.65593575401815      0.16857386818063     -0.02606180427812
  C   0.50757073266338     -0.00281942418671      0.89946541169918
  N   -1.45118495514418      0.63560988109844      0.93344026511491
  O   -2.56497104760631      0.99126980032496      1.15920140506942
  O   -0.38072881669855      0.58302552655801      1.95389603843538
  N   -0.96113830802465     -0.17524810261226     -1.36939146064274
  O   -2.09197439018326      0.07012025669528     -1.77966784704603
  O   -0.02854772882601     -0.68721808184587     -1.98897460766616
  N   1.68666255380582      0.71738058945044      0.69553321694575
  H   2.52347294641865      0.16350156619165      0.61535887537538
  H   1.62384579612639      1.44986995150838      0.00672263561898
  C   0.77361092717427     -1.39816370451007      1.25497294342655
  N   1.01831804431258     -2.51590212685286      1.51950492794749
