13
Coordinates from ORCA-job run
  C   -0.52936810852248      0.13014592620873      0.12834031591842
  C   0.71514737603684     -0.18685085630368      0.59594125728896
  N   -0.79412152358752      0.54916543910241     -1.22270869514120
  O   0.11425094576347      0.38178193891959     -2.04585233292716
  O   -1.88064417271011      1.06491776328634     -1.45788103654662
  N   -1.69842238946092      0.06462912329211      0.99663532354374
  O   -2.61317214372101     -0.65679153615195      0.60856058424864
  O   -1.66622372501159      0.71885799745454      2.03703151237340
  N   1.85599893148848     -0.27462612619881     -0.11911268861445
  H   1.83750278118456     -0.04121218621929     -1.09916729656650
  H   2.73242592312304     -0.38372722947733      0.36246135859599
  C   0.85704951003410     -0.52796969294514      1.98716299727370
  N   1.06957659538315     -0.83832056096752      3.10258870055311
