13
Coordinates from ORCA-job run
  C   -0.59360694517429     -0.06885434631116      0.35074907333126
  C   0.76781827337524     -0.17194192131882      0.50456867554591
  N   -1.27033544689235     -0.86550071955158     -0.67153338520969
  O   -1.79423306973232     -0.18954897193463     -1.58206495148716
  O   -1.20488692144324     -2.04988982011693     -0.50996874563555
  N   -1.38370223008307      1.06411915391805      0.81300946851823
  O   -2.62254582905035      0.91046687731680      0.85782681505446
  O   -0.71361665074426      2.08518353848616      1.22131988535170
  N   1.54449568706654      0.57472666758461      1.31717413221301
  H   2.52993438249992      0.47032991295885      1.16027482870782
  H   1.22183425542177      1.50608046805141      1.47064355619645
  C   1.43246317835893     -1.21903667231368     -0.21788594418004
  N   2.08438131639749     -2.04613416676907     -0.83811340840641
