13
Coordinates from ORCA-job run
  C   -0.53137112957175      0.08249428818613      0.11837424078561
  C   0.72419817893064     -0.18545018318786      0.58418435253153
  N   -1.70717478279292     -0.13885599247820      0.95102095499763
  O   -2.42881918403073      0.83875857300789      1.12835791885059
  O   -1.86937524374307     -1.26856292685035      1.40870636562901
  N   -0.80684678894032      0.59795714758588     -1.19863438870625
  O   0.15961018758442      1.02069942663688     -1.84357918583452
  O   -1.96367352615501      0.55073986187841     -1.59893802801638
  N   1.89142264894504     -0.02671953567984     -0.08040832094818
  H   2.74885881802181     -0.09270982318196      0.44205026708915
  H   1.87555085750024      0.51263378326298     -0.93254824838887
  C   0.85421075538637     -0.73506827476008      1.90844500416041
  N   1.05340920886527     -1.15591634441988      2.98896906785026
