13
Coordinates from ORCA-job run
  C   -0.53468387337979      0.07938801206461      0.13295170825854
  C   0.73300742829288     -0.19473723390492      0.55964954006064
  N   -1.25768809955560     -0.84766845379905     -0.72821861531109
  O   -1.40628497941611     -1.99797007881780     -0.31966606867700
  O   -1.64585807222236     -0.39030815522516     -1.79963902385274
  N   -1.25616384799208      1.28200654399705      0.46764836429711
  O   -0.60409676728973      2.19413174960784      0.98794676411850
  O   -2.45949355149297      1.30589430603756      0.24223037282216
  N   1.50974850050497      0.57625240228657      1.35498214941813
  H   1.22162624718386      1.53129994852178      1.50292349174553
  H   2.48510629666424      0.34179666986374      1.43553497237455
  C   1.32172532235941     -1.44961469730335      0.17232871850996
  N   1.89405539634327     -2.43147101332885     -0.13267237376429
