13
Coordinates from ORCA-job run
  C   -0.52921823002066      0.00885642341081      0.09699176938744
  C   0.72863006311697     -0.08417573096496      0.62035577504731
  N   -0.80589116863279      0.34421724490314     -1.27673389799251
  O   -1.93965973827632      0.14390628074495     -1.69539764734090
  O   0.13931455495961      0.78056763876906     -1.94365587808883
  N   -1.70853145832017     -0.22473327587130      0.92171227956191
  O   -1.78682755802232     -1.30705876353726      1.49988709915475
  O   -2.51830428943192      0.69711873976774      0.96989419527779
  N   1.89949185442560      0.10294815898366     -0.03182635804086
  H   2.73703521668714      0.19258440444541      0.51891170057557
  H   1.86086071525290      0.54516174846069     -0.93767720031705
  C   0.86148270225147     -0.46398793254350      2.00259798397272
  N   1.06061733601049     -0.73540493656845      3.12994017880267
