13
Coordinates from ORCA-job run
  C   -0.52251741539280      0.19550098358300      0.18020062318843
  C   0.71544171223595     -0.25307059016306      0.54057227482218
  N   -0.80572311601688      0.84683194038878     -1.07490641576428
  O   -1.86095431003385      1.46129085762547     -1.17481454925241
  O   0.06304087837292      0.76677635887585     -1.95067144172526
  N   -1.67058181478894      0.03931664666903      1.06588881797449
  O   -1.56094749940162      0.46905066032803      2.21219065022170
  O   -2.64837214466614     -0.52005580823316      0.57871183264917
  N   1.85827862542402     -0.16246024095541     -0.18077059247383
  H   2.64263677082667     -0.71972981688395      0.11748055007143
  H   1.77450871769217      0.06750283044957     -1.15895673605581
  C   0.88234513376256     -0.83881331030067      1.84500571155305
  N   1.13384446198593     -1.35214051138348      2.87406927479112
