13
Coordinates from ORCA-job run
  C   -0.54618390556202      0.07876953898379      0.16800169695416
  C   0.75190844259550     -0.18778683040268      0.49823553235702
  N   -1.32064962167488     -0.84573274110445     -0.65078718295648
  O   -1.42166587289584     -2.00408638737197     -0.25072365345288
  O   -1.79688852129948     -0.37774823521839     -1.68136316201405
  N   -1.25279934986447      1.26518394616046      0.57930888495157
  O   -0.57358056955912      2.17600650768904      1.06683672026871
  O   -2.47107424589649      1.27642642154323      0.45102229740367
  N   1.57685263302036      0.57969322200332      1.24634092471328
  H   2.55658330250981      0.35066201322044      1.26042534534962
  H   1.29189116110554      1.52905745197617      1.43291359358850
  C   1.32414321403788     -1.43122769266902      0.05215749048789
  N   1.87946333348321     -2.40821721480995     -0.29636848765102
