13
Coordinates from ORCA-job run
  C   -0.53403125342825      0.07160612137599      0.12638997696670
  C   0.75325701100767     -0.16444300788128      0.51793444113880
  N   -1.16780922756382     -0.73555849250290     -0.90944850639154
  O   -2.20610239524411     -1.30399186975239     -0.58321949329374
  O   -0.61238845011129     -0.78437255197877     -2.00524657808932
  N   -1.35500197662212      1.12671885669102      0.65968832266630
  O   -0.94071050508478      1.69318364167369      1.67816516257663
  O   -2.38089477990702      1.41256658851168      0.05384984291127
  N   1.41503177999153      0.42010040965320      1.54138854446831
  H   0.97672979904541      1.20268045492189      2.00254017973747
  H   2.41403860831001      0.31098676918079      1.59076260775560
  C   1.48714397549410     -1.20529147942252     -0.15410936012718
  N   2.15173741411267     -2.04418544047040     -0.64269514031931
