13
Coordinates from ORCA-job run
  C   -0.53779804463222      0.09631614653565      0.15381397003710
  C   0.73716664234481     -0.19781879565116      0.54577700176761
  N   -1.67099156697071     -0.10419430240874      1.04900159274286
  O   -2.37207519361510      0.88262396744219      1.25356852286195
  O   -1.82205934638082     -1.22865765024106      1.52286023776558
  N   -0.87873810582397      0.61243486248964     -1.14892101927224
  O   0.05555397480151      1.02119020176532     -1.84799184211108
  O   -2.05586479027728      0.57620276219927     -1.48587546183622
  N   1.86458018464414     -0.05749047593573     -0.18682036472280
  H   1.80127884484706      0.47906938418890     -1.03935822807524
  H   2.75528091614603     -0.15729673241027      0.26948361596923
  C   0.93338748255191     -0.75015207237167      1.86017695243370
  N   1.18927900236463     -1.17222729560234      2.92828502243954
