13
Coordinates from ORCA-job run
  C   -0.53643673838487      0.12659787718254      0.14580882398366
  C   0.72390426293840     -0.11007604659013      0.61447297571659
  N   -1.71376644361096     -0.12565612343842      0.96826522111563
  O   -2.51972007486266      0.79757306789893      1.03546226328241
  O   -1.80500042130067     -1.22582628971621      1.50910643419445
  N   -0.81820435025415      0.53370777332761     -1.20826452409619
  O   0.12788396372958      0.99488689193831     -1.85606968869724
  O   -1.94860106652078      0.33940492945673     -1.63657512406749
  N   1.88838962065125      0.18403206483160     -0.00392159975670
  H   2.74022885607437     -0.21445592265310      0.35350830061434
  H   1.84929851315268      0.52309734662735     -0.95408216664700
  C   0.87929952833187     -0.66857754382219      1.93291147131789
  N   1.13372435005593     -1.15470802504304      2.97437761303967
