13
Coordinates from ORCA-job run
  C   -0.52774750769710      0.08579289320937      0.10972742511292
  C   0.74865113103070     -0.16661923681031      0.52639404593374
  N   -1.21185426950422     -0.82062269362446     -0.80636829280977
  O   -1.30933133690075     -1.99780052341449     -0.46486190120641
  O   -1.61735515155846     -0.32083398993729     -1.85173662202240
  N   -1.30031879717051      1.22576062621493      0.52863650701604
  O   -2.50324463744212      1.21759431798312      0.29801819406918
  O   -0.68999316345998      2.12045551898635      1.12594588844753
  N   1.54279311488311      0.64367820208690      1.26112935455398
  H   1.13196258401950      1.47535861779143      1.65735818899287
  H   2.38113840322666      0.26050475826883      1.66522547205397
  C   1.38189518376274     -1.38010482428287      0.07742811906272
  N   1.97240444681041     -2.34316366647152     -0.25189637920437
