13
Coordinates from ORCA-job run
  C   -0.54670469734772      0.08782379582373      0.18355432674205
  C   0.75891279770156     -0.12014774494892      0.52695777539010
  N   -0.97070982153588      0.58085555502729     -1.10037203482441
  O   -2.15583041937347      0.46964735086486     -1.39109866294043
  O   -0.09198340148393      1.05031875771503     -1.83345693576946
  N   -1.62929409906671     -0.21729307219489      1.11174732033853
  O   -2.37843928541646      0.71673458242399      1.38386460655316
  O   -1.69554237868882     -1.36677916968011      1.54300640802514
  N   1.85485390251341      0.23140402798657     -0.18182284498948
  H   1.72122453621948      0.57315988130006     -1.12135079411025
  H   2.74241737579587     -0.16325242794988      0.08083218127161
  C   1.03858503748508     -0.69455397083185      1.81745753432983
  N   1.35451045319759     -1.14891756553588      2.85568111998359
