13
Coordinates from ORCA-job run
  C   -0.53373950670833      0.07502272471912      0.12381506949278
  C   0.73179196490672     -0.18189874899708      0.56833359355141
  N   -1.25149431339927     -0.88808698708756     -0.70188339603183
  O   -1.40139986639050     -2.02049645466794     -0.24700144897676
  O   -1.63488452631543     -0.47558646087230     -1.79313807754829
  N   -1.25740102310619      1.28652088048869      0.41314397870455
  O   -0.60883655426309      2.21807991695548      0.90382425297144
  O   -2.46085010054498      1.30104463949324      0.18381537805953
  N   1.50587937102755      0.62003374565518      1.33524068148822
  H   1.21702301371930      1.58031418417301      1.44541360615447
  H   2.48088183596803      0.38921130991186      1.42827245966546
  C   1.32300206042468     -1.45134895180072      0.23391140955190
  N   1.89002764468150     -2.45080979797099     -0.01874750708288
