13
Coordinates from ORCA-job run
  C   -0.53776061216476      0.02218104332791      0.12151336586538
  C   0.74018758737339     -0.09927298501184      0.58729310935638
  N   -1.68367729318672     -0.19792144664092      0.99528572778247
  O   -2.47513258649602      0.73666733334449      1.08472986783226
  O   -1.75449209417173     -1.28258848557727      1.57007100271494
  N   -0.86802742393984      0.37347525008824     -1.23639801048762
  O   0.05496827891552      0.79817334903900     -1.94077342273956
  O   -2.02190849170988      0.19492840393064     -1.60690191939769
  N   1.88349003870632      0.07864327113764     -0.11289716583255
  H   1.81559374580850      0.52035426300212     -1.01701955594324
  H   2.74876664112279      0.13644816725880      0.39782780621478
  C   0.92787066485211     -0.49543210538847      1.95859025391983
  N   1.17112154489031     -0.78565605851033      3.07267894071462
