13
Coordinates from ORCA-job run
  C   -0.51161844627001      0.09640486681160      0.07743561220046
  C   0.71964971812348     -0.19972657431518      0.58949083562659
  N   -1.11377305946250     -0.72715964530145     -0.96455846964357
  O   -2.21414230641043     -1.20334716930034     -0.69987816393653
  O   -0.47384901102944     -0.87934671678739     -2.00336737105034
  N   -1.29720462201520      1.23286361875700      0.48094535080511
  O   -2.24619509346185      1.55009824526600     -0.22632411384553
  O   -0.92957184362110      1.82926755292437      1.50027202649573
  N   1.33446931840357      0.39941699999803      1.63359911641758
  H   0.91590238218884      1.23486900645507      2.01329252831368
  H   2.31593537613134      0.22808179459087      1.77451099893827
  C   1.43131966793483     -1.32418172206070      0.03937402636696
  N   2.06907791948848     -2.23724025703789     -0.33979237668843
