13
Coordinates from ORCA-job run
  C   -0.54793643070909      0.07526702925531      0.16156137420405
  C   0.75410019613672     -0.17756103967991      0.49027246759003
  N   -1.32270712347088     -0.86897053023455     -0.63425420638943
  O   -1.38462226215610     -2.02907052077862     -0.23132770621563
  O   -1.83520919338303     -0.41504805188951     -1.65348000958188
  N   -1.26072943930291      1.25901725650052      0.56947587661102
  O   -2.48126458333872      1.25494676137482      0.46507746159238
  O   -0.58387474095060      2.18283975779765      1.03643080160404
  N   1.57939616483705      0.61191715411334      1.21312515429733
  H   1.28838132411106      1.56066800832537      1.39310032972374
  H   2.55778991766857      0.37995680083172      1.24542972982233
  C   1.33535796023850     -1.42622599975667      0.06947230255607
  N   1.90131821031942     -2.40673662585946     -0.24988357581404
