13
Coordinates from ORCA-job run
  C   -0.51397198853433      0.09576614249766      0.13644848943229
  C   0.75072789897076     -0.20435653358525      0.54601049150081
  N   -1.66525584378955     -0.15421892304130      0.99793238852378
  O   -1.98640910005809      0.75516305581076      1.75984693922454
  O   -2.21690619094632     -1.24478888228731      0.86807041040529
  N   -0.84974150589349      0.69781188328030     -1.12105604774194
  O   -2.03461585482837      0.93417747289158     -1.33381843100253
  O   0.08468921162316      0.93489017041616     -1.89486733612696
  N   1.89566900451612     -0.08895579450246     -0.16789568453753
  H   2.76992366460856     -0.13470594322823      0.32835226519987
  H   1.85087069879941      0.43204700817967     -1.03072133734036
  C   0.88454070783328     -0.77909919000283      1.85770415309234
  N   1.03147929769886     -1.24373046642876      2.92899369937041
