13
Coordinates from ORCA-job run
  C   -0.53217307190237      0.08914400422617      0.12894939419907
  C   0.76251884175978     -0.16524075382828      0.48211917721687
  N   -1.26732476810225     -0.81566048466468     -0.74690327903816
  O   -1.72071226717680     -0.31526504658985     -1.77246765461310
  O   -1.36409665417228     -1.98902740699826     -0.39257595977521
  N   -1.28449157994921      1.22351331861204      0.59649542641966
  O   -2.49933053171718      1.20690891388890      0.43702717475202
  O   -0.64594997299095      2.12020984598129      1.16052061871252
  N   1.59294091211725      0.64473762358089      1.17657773069410
  H   1.20007355009897      1.47178447529102      1.60011977314415
  H   2.44035972291002      0.25202685245998      1.55100010257134
  C   1.37030735127657     -1.38028067128151      0.00524761997630
  N   1.94587846784844     -2.34285067067772     -0.35011012425958
