13
Coordinates from ORCA-job run
  C   -0.50274028788606      0.13575608086376      0.07613853293417
  C   0.73844661603216     -0.20027024063561      0.53604433868618
  N   -1.13318456123011     -0.61044305448493     -1.00591067653279
  O   -2.23021333611953     -1.09939881097714     -0.75026434604551
  O   -0.51650571893688     -0.69472993283507     -2.06639909327728
  N   -1.28825311010911      1.22295773052551      0.60244696083318
  O   -2.25771329027314      1.59324707718002     -0.04859812911340
  O   -0.90088544030792      1.72648226368182      1.66312599150838
  N   1.43335411367607      0.40683201864138      1.52526003638309
  H   2.25128598754407     -0.05707623434225      1.88364562593731
  H   0.93244395831764      1.04749810269112      2.12198616324780
  C   1.42878172813356     -1.28739395597375     -0.10746616572795
  N   2.04618334115923     -2.18346104433487     -0.55500923883316
