13
Coordinates from ORCA-job run
  C   -0.53556966147368      0.09357393225061      0.13412215490153
  C   0.73771495176083     -0.20227398207654      0.52922583964185
  N   -1.28217192810459     -0.80273804963248     -0.74109139793005
  O   -1.69352363392971     -0.30788666386227     -1.78667037088047
  O   -1.42251006929639     -1.96645254514007     -0.37034940665290
  N   -1.24378383258247      1.28365941567036      0.53028401702133
  O   -0.57531044480989      2.17989946670509      1.05895194832087
  O   -2.45533977067186      1.31153383105735      0.35086874091745
  N   1.53818948458674      0.54379393179333      1.32151619200943
  H   1.26155752496614      1.49211887212255      1.52136953892587
  H   2.50263216887093      0.27637450716731      1.42181779586362
  C   1.30709233713326     -1.45590673865999      0.10879349028669
  N   1.86302287355070     -2.44469597739525     -0.20383854242522
