13
Coordinates from ORCA-job run
  C   -0.48127418526896      0.15853082744655      0.09197002911463
  C   0.74376963842845     -0.22606521783284      0.54864288608276
  N   -1.13272667706213     -0.54906483828940     -1.00559417395802
  O   -1.87458426626253     -1.47751799985182     -0.69282217756376
  O   -0.89398565729689     -0.13778308550742     -2.13908070875437
  N   -1.25923743612461      1.23542703685570      0.63264514287067
  O   -2.35751267291244      1.44555803347373      0.12758521607076
  O   -0.76056308214810      1.87061422547394      1.56847265675286
  N   1.49065890911930      0.37302014453005      1.50670102742329
  H   1.03791933594279      1.07454941342561      2.07304667307948
  H   2.25967820826863     -0.14462385987447      1.89850534272187
  C   1.35378786942216     -1.34946997511837     -0.11068742276163
  N   1.87407001589433     -2.27217470473126     -0.62338449107854
