13
Coordinates from ORCA-job run
  C   -0.55229821197959      0.01896370174970      0.20042563656409
  C   0.76721935244914     -0.13279919229101      0.51177740628911
  N   -1.23071756547491     -0.92474303807792     -0.68113035751564
  O   -1.64038267099169     -0.45790305667974     -1.74030757093196
  O   -1.34961626786267     -2.08120766493667     -0.28599164933237
  N   -1.36201971225681      1.13202246537321      0.62047724661954
  O   -2.56907473543055      1.07259533814523      0.41566828553501
  O   -0.77375956973171      2.06188489224562      1.18696906492396
  N   1.51993639973527      0.66200472312588      1.30851513434635
  H   1.14489360710744      1.56953132366116      1.54059820143743
  H   2.51901162663329      0.53945029543651      1.27377246166106
  C   1.44715817953624     -1.28513125926771     -0.01875998254115
  N   2.07964956826655     -2.17566852848427     -0.45701387705544
