13
Coordinates from ORCA-job run
  C   -0.50293629404710      0.14515583319969      0.08482566451855
  C   0.69462406635774     -0.27489827557344      0.58890674930925
  N   -1.22804064830332     -0.64760941083560     -0.90232552419971
  O   -0.63070317211333     -0.95080134698596     -1.93318719298295
  O   -2.37951208282143     -0.94984365342377     -0.60151211366829
  N   -1.12937208708602      1.39383230166618      0.43580363163761
  O   -0.67992300364449      1.98125298455484      1.42647898534568
  O   -2.03812080381828      1.79580852252877     -0.28014400325258
  N   1.39985523688803      0.29177108237060      1.59403049519098
  H   1.09757510615160      1.19181948237454      1.93480687345985
  H   2.35950121150528      0.01464407308322      1.71736878006236
  C   1.25436915203643     -1.50150454304938      0.08313072365224
  N   1.78368331889489     -2.49062704990969     -0.27218306907299
