13
Coordinates from ORCA-job run
  C   -0.54884439363406      0.03466727298892      0.16167700609363
  C   0.77243083445907     -0.11353230465237      0.47605638869375
  N   -1.24112688126366     -0.94613951225501     -0.66582068360776
  O   -2.23644032036530     -1.46178922456817     -0.16477708603437
  O   -0.77153062775402     -1.17679198386662     -1.77854732396888
  N   -1.35220570454594      1.15358154522168      0.57765472814511
  O   -2.43240076785766      1.31788122422929      0.02288986800396
  O   -0.87142985690436      1.89113651225415      1.44651105757826
  N   1.49973718653796      0.64920586951697      1.32141757408054
  H   1.07826818001325      1.48906397499716      1.68749890056476
  H   2.50120519766857      0.55319886383284      1.31745690058827
  C   1.47809492932515     -1.24461194075976     -0.06823007839707
  N   2.12424222432099     -2.14687029693909     -0.45878725174020
