13
Coordinates from ORCA-job run
  C   -0.54314666726061      0.06407807019499      0.14818447218571
  C   0.74923854030205     -0.16701308826039      0.52411322024019
  N   -1.26139050671364     -0.87891259163166     -0.70042793882933
  O   -1.71585820962433     -0.41998266661065     -1.74485961989189
  O   -1.34164299684070     -2.04166743373728     -0.30813758209224
  N   -1.29738315877433      1.22817281970019      0.53777556326760
  O   -2.51049044437997      1.20386199648777      0.36957321811831
  O   -0.66150864187878      2.15585383069986      1.05109030033291
  N   1.52469462014444      0.61895262452074      1.30495524954166
  H   2.50936674915161      0.41803005883693      1.35247875051800
  H   1.20504485107808      1.55859091119579      1.48528626504191
  C   1.37360275402653     -1.39100568452236      0.09316931122390
  N   1.97047311076965     -2.34895884687394     -0.23920120965672
