17

C	-0.58696	-0.012556	-1.427592
C	0.0	0.0	0.0
Br	0.19168	1.511362	-2.407065
H	1.089529	0.0	0.0
N	-0.16535	-1.209385	-2.110333
H	-0.398898	-2.031605	-1.562686
H	-0.611985	-1.272408	-3.017672
C	-2.094852	0.212792	-1.403435
H	-2.338193	1.15133	-0.905972
H	-2.572531	-0.620063	-0.874114
H	-2.481995	0.243121	-2.424509
C	-0.451787	-1.228348	0.672917
N	-0.899518	-2.189379	1.181914
N	-0.419109	1.193444	0.740296
H	0.396836	1.561178	1.21619
H	-1.123747	0.974843	1.432859
Br	3.476987	0.0	0.0
