17

C	-0.422359	-0.005577	-1.491101
C	0.0	0.0	0.0
Br	0.116928	1.746145	-2.223077
H	1.093098	0.0	0.0
N	0.290332	-1.012047	-2.243026
H	1.284545	-0.940303	-2.027108
H	-0.029957	-1.928158	-1.940643
C	-1.919109	-0.140627	-1.677435
H	-2.168008	-0.059635	-2.736207
H	-2.431025	0.642371	-1.115988
H	-2.249319	-1.118363	-1.308782
C	-0.427869	-1.280007	0.576536
N	-0.860614	-2.26755	1.046615
N	-0.535472	1.123609	0.767214
H	0.249288	1.672218	1.10074
H	-1.065071	0.800052	1.568388
Br	3.469284	0.0	0.0
