17

C	-0.374577	-0.0807	-1.491861
C	0.0	0.0	0.0
Br	0.00123	1.826473	-2.269891
H	1.099165	0.0	0.0
N	0.45955	-1.035749	-2.074405
H	1.438582	-0.899126	-1.823756
H	0.343052	-1.112942	-3.075236
C	-1.844455	-0.303426	-1.769545
H	-2.050507	-0.244812	-2.840604
H	-2.43297	0.45159	-1.24989
H	-2.119255	-1.297281	-1.405242
C	-0.452352	-1.243248	0.634026
N	-0.820976	-2.21755	1.176704
N	-0.620618	1.127366	0.698315
H	-0.134262	1.962367	0.388536
H	-0.407262	1.021414	1.684883
Br	3.49725	0.0	0.0
