17

C	-0.218167	0.027013	-1.532844
C	0.0	0.0	0.0
Br	-2.171166	0.271175	-1.898218
H	1.099954	0.0	0.0
N	0.469285	1.131906	-2.154527
H	0.240008	1.986981	-1.657901
H	1.468464	0.966487	-2.011435
C	0.2373	-1.267737	-2.171765
H	1.289925	-1.416076	-1.904397
H	-0.343431	-2.11801	-1.814446
H	0.145078	-1.187649	-3.255652
C	-0.537415	-1.216333	0.610797
N	-0.990208	-2.186431	1.095036
N	-0.428764	1.169028	0.743861
H	-1.293534	1.544047	0.373574
H	0.301853	1.867331	0.727785
Br	3.450252	0.0	0.0
