17

C	-0.330853	-0.170057	-1.487847
C	0.0	0.0	0.0
Br	-2.456672	-0.321583	-1.598338
H	1.099317	0.0	0.0
N	0.097993	0.935792	-2.207789
H	-0.220481	1.813807	-1.826083
H	-0.085067	0.871386	-3.197962
C	0.20254	-1.461884	-2.056058
H	1.288032	-1.446137	-1.90477
H	-0.023069	-1.537813	-3.122606
H	-0.228283	-2.322568	-1.545895
C	-0.466034	-1.155911	0.772361
N	-0.829255	-2.083096	1.394726
N	-0.436585	1.231879	0.619346
H	0.245816	1.961487	0.463389
H	-1.362271	1.50146	0.309797
Br	3.46217	0.0	0.0
