17

C	-0.489875	-0.020878	-1.458483
C	0.0	0.0	0.0
Br	-0.235423	-1.828569	-2.198715
H	1.106729	0.0	0.0
N	-1.914444	0.249738	-1.472766
H	-2.019331	1.177071	-1.067545
H	-2.235076	0.286617	-2.434987
C	0.36243	0.929455	-2.287228
H	0.04121	0.910304	-3.332454
H	0.226932	1.938918	-1.88742
H	1.420028	0.66528	-2.215415
C	-0.514899	-1.117365	0.792836
N	-0.955734	-1.940538	1.506218
N	-0.402276	1.2938	0.590189
H	-1.131684	1.156441	1.279513
H	0.408419	1.682154	1.059821
Br	3.493029	0.0	0.0
