17

C	-0.508647	0.096998	-1.444336
C	0.0	0.0	0.0
Br	0.173078	-1.552735	-2.407294
H	1.096992	0.0	0.0
N	-1.930779	0.14014	-1.46042
H	-2.317583	-0.727873	-1.108722
H	-2.26768	0.278522	-2.404986
C	0.106224	1.285104	-2.149266
H	-0.172994	1.287769	-3.205715
H	-0.252443	2.191594	-1.66139
H	1.191749	1.233607	-2.062958
C	-0.514237	-1.216453	0.649116
N	-1.001861	-2.130072	1.206183
N	-0.397001	1.21584	0.709273
H	-1.360723	1.155802	1.014137
H	0.212162	1.330516	1.511144
Br	3.502494	0.0	0.0
