14
Coordinates from ORCA-job run
  C   0.98416299950466     -0.42689801912328     -0.56126130039268
  C   0.00797247881911      0.12743060844261      0.47135252161830
  Cl  2.40172491588987     -1.14440353479724      0.24866354562858
  H   0.53004224571890      0.79112949381814      1.16165846065248
  H   0.49637478257954     -1.22942429529651     -1.11861591837664
  C   1.40753797604558      0.62947322104326     -1.47271320007834
  N   1.71882553015695      1.49852707989023     -2.19884330932013
  N   -0.47144709215787     -1.02172880838126      1.31185909847256
  O   -0.47900436799212     -0.85635689662732      2.52719627405212
  O   -0.86192526960477     -2.01913912505538      0.71066737882042
  C   -1.20693790154845      0.78832161129073     -0.15805404182941
  H   -1.90517055811146      1.09113399436064      0.62443946995803
  H   -0.90902290928601      1.67681435549591     -0.71588636375017
  H   -1.71313283001392      0.09412031493945     -0.83146261545511
