14
Coordinates from ORCA-job run
  C   1.08838150918224      0.49710268735521     -0.45277176061965
  C   -0.20665726362174      0.45476480268946      0.36475667890512
  Cl  0.96888013947657      1.78253313778622     -1.68649923193914
  H   -0.36291861183766      1.45157471497310      0.79006437510907
  H   1.92303841707832      0.76180098169153      0.19352831283649
  C   1.35840337049750     -0.79132410506061     -1.08207697752307
  N   1.55210074239499     -1.84144127537526     -1.57083563941085
  N   0.03356263234785     -0.43523014289210      1.57219187961535
  O   -0.94547839550638     -0.97531012871567      2.07217698759964
  O   1.18534917356270     -0.50749674811056      1.99543808493387
  C   -1.42220249808083     -0.01393822983691     -0.40460886433858
  H   -2.30847722422638      0.03582553301629      0.22425688669255
  H   -1.29273301252617     -1.04462359294837     -0.73928906698483
  H   -1.57224897874103      0.62476236542768     -1.27533166487596
