14
Coordinates from ORCA-job run
  C   0.79080952609171      0.05369775590537     -0.87263804477646
  C   -0.14387878094541      0.29522300572657      0.32003087391923
  Cl  0.34244852832136     -1.41578579060623     -1.77856527949942
  H   0.28783199973289      1.11250669620051      0.90443665235610
  H   0.65716693936721      0.89302031877736     -1.56077106720565
  C   2.20119256075884     -0.00263164428521     -0.49804336679908
  N   3.34856877641527     -0.01627484405513     -0.24816134863770
  N   -0.07678673360848     -0.89792432229892      1.23746196327737
  O   -1.03295348966072     -1.66666513852231      1.25219227594217
  O   0.95671607166851     -1.01117706609721      1.89221280787841
  C   -1.56718465027157      0.60015494102981     -0.08940418598885
  H   -1.58336488685770      1.51949070729071     -0.67979054442310
  H   -1.99422570694743     -0.21199589499845     -0.67413784459128
  H   -2.18834015406448      0.74836127593312      0.79417710854827
