14
Coordinates from ORCA-job run
  C   0.81033983749911      0.13351804407367     -0.84818909363754
  C   -0.15672994874168      0.26439692719823      0.33607204636722
  Cl  0.42040315060195     -1.27648488888818     -1.86884199861299
  H   0.24324076061746      1.04252953292529      0.99208234314446
  H   0.67023859897616      1.01687135974707     -1.47735705320687
  C   2.21236627237307      0.08559954135426     -0.44288923547680
  N   3.34597532602256      0.10284392292719     -0.13673262060508
  N   -0.08594210837671     -0.99423519891032      1.16117071287655
  O   0.93359109829465     -1.13756102594229      1.83169602582694
  O   -1.02601466701006     -1.77985384780754      1.09312780872482
  C   -1.57605018062878      0.57157022879052     -0.08535844114121
  H   -2.22215457384909      0.63724426130704      0.79027244129101
  H   -1.59787451650639      1.53408390184629     -0.60219912432809
  H   -1.97038904927224     -0.20052275862122     -0.74285381122241
