14
Coordinates from ORCA-job run
  C   0.90870647771180     -0.35316741599694     -0.72026889711413
  C   0.03936379841219     -0.01885937540880      0.48715120539090
  Cl  2.25352544405798     -1.42073961892721     -0.23795116170545
  H   0.65967800998065      0.34790224403105      1.30583732976894
  H   0.31026233122283     -0.90540621408509     -1.44780629046394
  C   1.42834853631759      0.86753787590383     -1.32485237661222
  N   1.81894538058999      1.86698848665235     -1.80201571270790
  N   -0.56281399837289     -1.30064097793864      0.99041733569416
  O   -1.06091115375426     -2.04573728487624      0.15067123032023
  O   -0.55553799767862     -1.47586410762250      2.20451864974314
  C   -1.09787587835687      0.93274381237170      0.15494791384138
  H   -1.73064749707788      1.06663390329643      1.03435401552302
  H   -0.70399449118208      1.90694007593959     -0.13720359796498
  H   -1.70604896187044      0.53266859666047     -0.65879964371313
