21

C	0.0	0.0	0.0
C	-0.271411	-0.074462	-1.540991
F	1.413973	0.0	0.0
H	0.586069	0.475648	-1.952903
C	-0.503346	1.303082	0.580266
H	-0.141364	2.159402	0.003282
H	-1.599048	1.238525	0.54764
H	-0.158882	1.408624	1.615021
C	-0.56938	-1.149524	0.792845
H	-0.316479	-1.031461	1.852304
H	-1.661059	-1.068674	0.660792
H	-0.192848	-2.116335	0.453643
C	-1.546541	0.585972	-2.061745
H	-1.649954	0.363683	-3.132238
H	-2.423402	0.25512	-1.478447
H	-1.483955	1.67467	-1.960361
C	-0.171593	-1.509694	-2.057592
H	0.725859	-2.013419	-1.686166
H	-0.12924	-1.508805	-3.152251
H	-1.052239	-2.084289	-1.758747
F	-3.262684	0.0	0.0
