21

C	0.0	0.0	0.0
C	-0.493477	-0.0	-1.452819
F	1.413255	0.0	0.0
H	-1.588281	-7e-06	-1.324808
C	-0.489137	1.229897	0.739954
H	-0.084073	2.149872	0.310634
H	-1.584982	1.181082	0.660409
H	-0.176382	1.178708	1.788547
C	-0.489138	-1.229896	0.739954
H	-0.176367	-1.178716	1.788542
H	-1.584983	-1.181071	0.660422
H	-0.084091	-2.149873	0.310623
C	-0.036299	-1.248455	-2.209283
H	-0.304208	-1.170351	-3.268522
H	-0.507572	-2.153703	-1.822598
H	1.050888	-1.368881	-2.143749
C	-0.036317	1.248464	-2.209278
H	-0.507597	2.153704	-1.822585
H	1.050869	1.368902	-2.14375
H	-0.304232	1.170363	-3.268515
F	-3.037446	0.0	0.0
