15

C	0.0	0.0	0.0
C	-0.572389	-0.018463	-1.407311
Br	1.9945	0.0	0.0
H	-1.662774	0.147536	-1.265163
H	-0.292699	0.958212	0.424952
N	-0.533535	-1.058682	0.735445
H	-0.08336	-1.948578	0.615671
H	-0.835682	-0.840342	1.666655
N	-0.421416	-1.305862	-2.139042
O	0.32981	-2.167715	-1.685269
O	-1.088547	-1.405051	-3.163103
N	0.007583	1.073512	-2.24256
O	-0.18995	2.202962	-1.804881
O	0.647569	0.790554	-3.24985
Cl	-3.525204	0.0	0.0
