16

C	0.0	0.0	0.0
C	-0.333298	0.392531	-1.506707
Cl	1.770608	0.0	0.0
H	0.465875	1.080454	-1.790994
N	-0.316549	1.270483	0.877516
O	-0.624915	1.062835	2.043872
O	-0.185923	2.377098	0.362275
N	-0.639395	-1.132873	0.451557
H	-1.673243	-0.889727	0.328243
H	-0.438624	-1.277342	1.434584
N	-1.581859	1.00516	-1.874573
H	-1.528618	1.968022	-1.564952
H	-2.330407	0.562527	-1.295436
C	-0.120052	-0.834929	-2.298262
N	0.034922	-1.779382	-2.978734
F	-2.938505	0.0	0.0
