16

C	0.0	0.0	0.0
C	-0.278153	0.190145	-1.553364
Cl	1.770848	0.0	0.0
H	0.350883	1.037903	-1.833581
N	-0.343078	1.368432	0.703857
O	-0.500777	1.315535	1.91711
O	-0.403047	2.386496	0.020912
N	-0.665638	-1.06145	0.565424
H	-0.462565	-1.1069	1.558437
H	-1.71424	-0.78163	0.414773
N	-1.603329	0.424076	-2.071931
H	-2.157573	-0.40449	-1.877942
H	-2.061744	1.062894	-1.429014
C	0.268617	-1.001344	-2.224082
N	0.636836	-1.954077	-2.803082
F	-2.925146	0.0	0.0
