16

C	0.0	0.0	0.0
C	-0.258347	0.011029	-1.588405
Cl	1.767387	0.0	0.0
H	0.270389	0.898403	-1.948266
N	-0.444591	1.360537	0.560826
O	-0.507677	2.294638	-0.232165
O	-0.639994	1.429633	1.7638
N	-0.611998	-0.997595	0.763506
H	-0.378359	-1.90167	0.366388
H	-1.643151	-0.789146	0.632056
N	-1.606948	-0.005341	-2.112723
H	-1.891376	-0.975294	-2.195649
H	-2.245371	0.314465	-1.346356
C	0.434442	-1.170045	-2.129155
N	0.899109	-2.158438	-2.562583
F	-2.927109	0.0	0.0
