16

C	0.0	0.0	0.0
C	-0.433195	0.188405	-1.487466
Cl	1.804031	0.0	0.0
H	-0.346475	-0.833109	-1.873669
N	-0.35289	1.282731	0.804247
O	-0.417007	2.342819	0.19011
O	-0.489165	1.150975	2.013091
N	-0.517759	-1.163042	0.560265
H	-0.256945	-1.199268	1.539019
H	-1.555837	-0.970385	0.468077
N	0.50034	1.020938	-2.262557
H	0.330302	1.97857	-1.972406
H	0.177129	0.963372	-3.221921
C	-1.816011	0.653253	-1.773399
N	-2.566933	1.160895	-2.533211
F	-2.662143	0.0	0.0
