16

C	0.0	0.0	0.0
C	-0.403954	-0.053073	-1.509956
Cl	1.76552	0.0	0.0
H	0.320777	-0.793684	-1.891522
N	-0.382517	1.312374	0.713481
O	-0.027119	2.348978	0.159898
O	-0.914304	1.239319	1.805241
N	-0.480103	-1.07356	0.778263
H	-0.227176	-1.938518	0.311609
H	-1.520106	-0.906211	0.691875
N	-0.316803	1.208872	-2.238016
H	-0.307352	0.987724	-3.226918
H	0.539662	1.687327	-1.994561
C	-1.71295	-0.671263	-1.819343
N	-2.409465	-1.279319	-2.553609
F	-2.602121	0.0	0.0
