12

C	-0.196569	-0.040794	-1.391172
C	-0.080802	-0.102726	0.141349
Br	0.428848	-1.786624	-2.074859
H	0.997057	-0.156871	0.314787
H	-0.60904	-0.980832	0.522454
C	-1.601138	0.061795	-1.79979
N	-2.742134	0.129775	-2.075183
C	0.605735	1.058165	-1.988795
N	0.544539	1.982273	-2.732273
C	-0.627885	1.096656	0.769863
N	-1.081132	2.033143	1.314383
F	2.137441	0.58784	-1.04097
