12

C	-0.058227	0.01369	-1.436266
C	-0.02538	0.007372	0.101206
Br	-2.000507	-0.069031	-2.000717
H	1.053611	0.038004	0.286116
H	-0.460419	-0.930657	0.455607
C	0.476094	1.244608	-2.009381
N	0.689955	2.285031	-2.51455
C	0.569462	-1.190831	-1.976441
N	0.78799	-2.241113	-2.46145
C	-0.730161	1.131427	0.699627
N	-1.280769	2.02078	1.233812
F	2.256091	0.007838	-1.036973
