12

C	-0.214458	-0.172694	-1.377366
C	-0.088712	0.109992	0.129343
Br	0.371943	1.468599	-2.3098
H	0.989792	0.207528	0.282023
H	-0.630414	1.024259	0.38631
C	0.604786	-1.330929	-1.819642
N	0.556044	-2.353521	-2.421616
C	-1.619721	-0.357973	-1.753089
N	-2.760976	-0.483072	-2.006552
C	-0.608347	-0.996402	0.928493
N	-1.039203	-1.852964	1.606448
F	2.134233	-0.700552	-0.964984
