12

C	-0.191611	-0.014251	-1.395021
C	-0.081054	-0.099465	0.136844
Br	0.42013	-1.754093	-2.103806
H	0.997693	-0.154262	0.309796
H	-0.611052	-0.982489	0.503507
C	-1.593875	0.107395	-1.807116
N	-2.731044	0.193387	-2.093107
C	0.622093	1.085757	-1.972858
N	0.579317	2.023276	-2.700217
C	-0.62813	1.091478	0.781296
N	-1.077331	2.022982	1.337663
F	2.152236	0.578187	-1.020087
