12

C	-0.388905	-0.110756	-1.317379
C	-0.071365	0.005504	0.18227
Br	-2.402285	-0.072434	-1.520437
H	1.034105	-0.01497	0.154302
H	-0.441342	0.968069	0.544291
C	0.10991	1.053449	-2.047141
N	0.227871	2.066371	-2.635189
C	0.049112	-1.378069	-1.892907
N	0.185183	-2.451786	-2.353234
C	-0.636043	-1.072739	0.979051
N	-1.055094	-1.931508	1.662153
F	1.968337	-0.074752	-1.340276
