12
Coordinates from ORCA-job run
  C   0.59925739527330      0.37222943230397      0.07402951683365
  C   -0.46090294910779     -0.50682191595806      0.11253872471953
  C   1.78562781639875     -0.01525389079499      0.79072705773128
  N   2.77644072167837     -0.29956377715210      1.35882619485134
  N   0.64097046346709      1.59236451010962     -0.49490019705316
  H   -0.12554099028780      1.85644947762951     -1.09616751651660
  H   1.53075734134716      2.05413430734950     -0.58479012091653
  N   -1.70288063081015     -0.24739073732608     -0.59109217813483
  O   -2.57770309084275     -1.10281485250533     -0.52188866932847
  O   -1.79750400754135      0.81923688928045     -1.21037524063801
  C   -0.38086290641414     -1.75005158450047      0.79395648101196
  N   -0.28765916316068     -2.77251785843603      1.36913594743983
