12
Coordinates from ORCA-job run
  C   0.59681150746209      0.37395320771328      0.08165991591302
  C   -0.46361165986568     -0.50515310041020      0.11266283648935
  C   1.77661860114517     -0.01109937575021      0.81124821449691
  N   2.76289048584987     -0.29580472458462      1.38700716306958
  N   0.64459824140836      1.59222061762971     -0.49002782977646
  H   1.53484116162445      2.05482910532228     -0.57117321318719
  H   -0.11833436143382      1.85955227732819     -1.09449077598943
  N   -1.69354742139079     -0.25309841902717     -0.61471882635709
  O   -2.55635582147427     -1.12285387720677     -0.57881518559750
  O   -1.79152485995595      0.82186997331244     -1.21870319696577
  C   -0.38971184799154     -1.74684545975859      0.79724126300715
  N   -0.30167402537788     -2.76657022456834      1.37810963489743
