12
Coordinates from ORCA-job run
  C   0.52751468202674      0.41079524939325      0.05604160588942
  C   -0.56964633040950     -0.39666198142382     -0.08974639496889
  C   1.70375947449186      0.30028313654885     -0.76367332468509
  N   2.73907487189738      0.33714766876158     -1.32134460636119
  N   0.57175030880321      1.43003634085366      0.95280170316264
  H   -0.14332409071657      1.48491552393073      1.66376152325404
  H   1.46856342421367      1.82952482773390      1.17600130979338
  N   -0.66968743274585     -1.44880628241379     -1.09368486931965
  O   -1.68550437575954     -2.13765320252190     -1.04209229336349
  O   0.24729529230413     -1.56600181798566     -1.89870585053701
  C   -1.67421883227483     -0.24038937299493      0.78549875707611
  N   -2.51557699183071     -0.00319008988188      1.57514244005972
