12
Coordinates from ORCA-job run
  C   0.53836603450738      0.39599220381689      0.04953742575145
  C   -0.58068614875534     -0.38382045853664     -0.07787475429496
  C   1.66658601867268      0.30995111041040     -0.83795369599657
  N   2.67048457695726      0.36071020704801     -1.44943247022087
  N   0.65097155943818      1.36633768509711      0.99359757177768
  H   -0.02272443229364      1.39489774712603      1.74541517110147
  H   1.56775442929205      1.73426728397464      1.18889397025461
  N   -0.75705848950423     -1.37674196549367     -1.12991455410438
  O   -1.78872931644869     -2.04045226078216     -1.06706095362968
  O   0.11731723809342     -1.47278548158831     -1.98364928665369
  C   -1.63449824163182     -0.25124388050448      0.86173941731323
  N   -2.42678322832725     -0.03711219056782      1.70670215870169
