12
Coordinates from ORCA-job run
  C   0.57785433304322      0.37009174399631      0.17530805999989
  C   -0.47694953630690     -0.50510403301955      0.03572140163015
  C   1.63412431062300     -0.02881156583356      1.06876834518865
  N   2.52143094545891     -0.32036210858754      1.78503714180134
  N   0.71790912156326      1.59192357729145     -0.37190000404482
  H   1.60620282051882      2.05944947261321     -0.30128977712199
  H   0.05622761762607      1.86901839369628     -1.08180057123704
  N   -1.58432779902977     -0.23774537129481     -0.86259593865333
  O   -2.45696729416415     -1.09388690720554     -0.95065601482014
  O   -1.57644287638142      0.83642377440660     -1.47618705025009
  C   -0.50793825851249     -1.75652237713977      0.70528285536269
  N   -0.51212338443854     -2.78647459892306      1.27431155214469
