12
Coordinates from ORCA-job run
  C   0.59281343722063      0.36935934601056      0.12323092425685
  C   -0.42594499745158     -0.54811350837972     -0.01282077263451
  C   1.74286315502291     -0.05096116738376      0.87977198866452
  N   2.69883113235834     -0.35636011679245      1.49486414582985
  N   0.68269828170467      1.59321138711263     -0.43132528814392
  H   1.40784852617633      2.21644667241126     -0.11718866875711
  H   -0.13779139582876      1.96469118299231     -0.88684377974080
  N   -1.65051131538227     -0.23885213793416     -0.72679363934399
  O   -1.72992271458567      0.86821461350793     -1.27323947290598
  O   -2.52389439521418     -1.09837234485337     -0.74444826352404
  C   -0.36651369830111     -1.83133925849100      0.59211987774186
  N   -0.28947601571930     -2.88892466820022      1.10267294855727
