12
Coordinates from ORCA-job run
  C   0.56356080150910      0.41421860755408      0.11643503660226
  C   -0.60484426380410     -0.20196342149908     -0.27529352700310
  C   0.96336833395150      1.57619827529424     -0.63298261465994
  N   1.33127493302324      2.52181853387761     -1.22953393893531
  N   1.35213198800437      0.10292335603920      1.16284670571233
  H   1.16625152206751     -0.75993396559798      1.65230572969959
  H   2.25820684506395      0.53522299349509      1.23300300074293
  N   -1.09840958735364     -1.40127049002618      0.37503654746710
  O   -0.46226363446208     -1.82829490507320      1.34630805181222
  O   -2.11694456662566     -1.90886974451350     -0.07983020755268
  C   -1.36869563537851      0.26741401098089     -1.37661158557662
  N   -1.98363673599568      0.68153674946882     -2.29068319830878
