12
Coordinates from ORCA-job run
  C   0.61831799124472      0.34206582552054      0.05640467757769
  C   -0.47995179945313     -0.48726638592468      0.12213137110721
  C   1.81254797776342     -0.11340429769737      0.71834909036446
  N   2.81062883676416     -0.45355867319138      1.24125750462232
  N   0.69540378578539      1.56924023283775     -0.49269425877749
  H   -0.08459050888008      1.88562955405898     -1.05004730789619
  H   1.60117505095902      1.99147923243581     -0.61196976856297
  N   -1.73323961305727     -0.15876728403542     -0.53065241834076
  O   -2.63564827803477     -0.98537289191774     -0.46349362816488
  O   -1.80975207611109      0.93356553531074     -1.10584994454399
  C   -0.43222698394615     -1.74445614787357      0.78056275451661
  N   -0.36166438303424     -2.77915469952366      1.33700192809798
