12
Coordinates from ORCA-job run
  C   0.57453764825652      0.32998626749344      0.10389468566436
  C   -0.57952772472000     -0.38585813624873     -0.07510697123071
  C   1.70913432669356      0.22995749157613     -0.77380363382798
  N   2.70579176853533      0.28756711975723     -1.39635387584116
  N   0.76689843613793      1.15491135003662      1.16578028816363
  H   1.51974848871457      1.82199317503947      1.12032965162378
  H   -0.02503173789235      1.39781868974080      1.74325552216271
  N   -0.78193716103273     -1.32775723234918     -1.16881315225580
  O   0.17494837555509     -1.58646264691946     -1.89019691313970
  O   -1.91553654786815     -1.79044530376147     -1.26914848030168
  C   -1.66637613766587     -0.19378346362232      0.81498828040647
  N   -2.48264973471389      0.06107268925748      1.62517459857608
