12
Coordinates from ORCA-job run
  C   0.59107886565808      0.28648046699580      0.13858827361492
  C   -0.60037765332526     -0.34111490613141     -0.11239467327598
  C   1.73523984199000      0.17935375150680     -0.72550716800333
  N   2.74520607658015      0.21995082379133     -1.32762154893683
  N   0.80960060488129      1.02210515670958      1.25902486442720
  H   0.02276209962766      1.26916791840597      1.84174690244616
  H   1.60444198567888      1.63955006668745      1.27782418634912
  N   -0.83276978596777     -1.19071348578821     -1.27404874506462
  O   0.12999918863840     -1.48504284994051     -1.97373474824026
  O   -1.99525175576586     -1.54784322959746     -1.44770419333623
  C   -1.69473609123480     -0.14693001248671      0.76752128146299
  N   -2.51519337676076      0.09503629984735      1.57730556855686
