12
Coordinates from ORCA-job run
  C   0.54503283110116      0.38377369723827      0.05437626984868
  C   -0.58769762881638     -0.37473776706153     -0.08179939421201
  C   1.66905942568014      0.29426306057882     -0.83821242623097
  N   2.67414275112898      0.34531090567505     -1.44797745647681
  N   0.67696764689397      1.33469725940705      1.01423050909566
  H   0.00380047419287      1.36911981297969      1.76608579308179
  H   1.59551045115580      1.70186349977846      1.20119069065050
  N   -0.78214400993185     -1.34974468928457     -1.14713659642418
  O   0.09849239793910     -1.46328727791206     -1.99239351988662
  O   -1.83336928893497     -1.98375398396217     -1.10211052537944
  C   -1.63817216622642     -0.23591616649369      0.86030037110543
  N   -2.42162288418237     -0.02158835094331      1.71344628482796
