12
Coordinates from ORCA-job run
  C   0.58117720175396      0.39333525156458      0.09743647491183
  C   -0.38734802139936     -0.57445594121052     -0.05531689599685
  C   1.86713432242979     -0.04816141922958      0.56980241223599
  N   2.93041633835456     -0.36633988437649      0.96160339016011
  N   0.49858948983258      1.70167693704701     -0.21073609064193
  H   -0.40980926410584      2.07422551062910     -0.44477436567574
  H   1.22817863035860      2.32021034709534      0.10242592399104
  N   -1.73243858541070     -0.25531816496538     -0.49552133094510
  O   -2.53580424402998     -1.17835984579572     -0.56352874685581
  O   -1.97783574734889      0.92414790944116     -0.77606310082651
  C   -0.14599947195616     -1.93549945320717      0.26976184568469
  N   0.08373935152142     -3.05646124699232      0.54491048395827
