12
Coordinates from ORCA-job run
  C   0.54010398516750      0.39425689112884      0.06070869897094
  C   -0.54040872722237     -0.44345068666104     -0.02376457281569
  C   1.69791992962438      0.27197263123249     -0.78327485833441
  N   2.69664279303715      0.32850112174966     -1.40269686375747
  N   0.63167938458379      1.38050734427257      0.98989007150326
  H   -0.19170011819281      1.62778330076127      1.51968039601391
  H   1.31992439789363      2.10253093364513      0.85297707968846
  N   -0.62758990596928     -1.55406794067727     -0.96307889694162
  O   -1.72010703250842     -2.11206585070424     -1.02693550044830
  O   0.37563951127633     -1.84562096754253     -1.60478772402426
  C   -1.66259917724477     -0.22357158222353      0.81456421360028
  N   -2.51950504044513      0.07222480501864      1.56671795654491
