12
Coordinates from ORCA-job run
  C   0.50407622948757      0.44230897164674      0.01624162669100
  C   -0.54797392752513     -0.43255479427195     -0.05053285065613
  C   1.67058081786213      0.33941796038055     -0.81825316565165
  N   2.69194978366702      0.39313252654206     -1.39973140077994
  N   0.50567064860767      1.52328413695814      0.83879678620783
  H   -0.19784070441109      1.58676246265045      1.56057229202606
  H   1.38230726095593      1.98624156905456      1.01454006445796
  N   -0.60502740052616     -1.55736224730542     -0.97578983287219
  O   0.30538651208670     -1.68311839284880     -1.78691812506750
  O   -1.58194680263237     -2.29286314103756     -0.85849718272513
  C   -1.64454447435756     -0.27570859119949      0.83461819368080
  N   -2.48263794321471     -0.02954046056928      1.62495359468890
