12
Coordinates from ORCA-job run
  C   0.54477114175746      0.38353259184055      0.07455513704931
  C   -0.58507764537364     -0.36911159383211     -0.10858724333576
  C   1.73946393848380      0.21856723635076     -0.70829162131972
  N   2.79300170712326      0.20867007160794     -1.23207013349587
  N   0.61145401870491      1.39566759639631      0.97793092123741
  H   -0.12168555767502      1.48322520417467      1.66681519494462
  H   1.51954463006223      1.74928589084550      1.23087657834103
  N   -0.70601562758335     -1.40867116991354     -1.12300225326405
  O   0.22817871178419     -1.56587456451373     -1.90100773280298
  O   -1.75593506753367     -2.04627010746764     -1.10825028367422
  C   -1.70754360999049     -0.16213131030503      0.73287695936999
  N   -2.55915663975966      0.11211015481631      1.49915447695024
