12
Coordinates from ORCA-job run
  C   0.60457460047485      0.36515467407559      0.05541194390186
  C   -0.43688579634005     -0.53671662641780      0.06394425422760
  C   1.78576459934728     -0.00453152054711      0.79044024148283
  N   2.76660931388940     -0.26626126642468      1.38604937743166
  N   0.68685325584627      1.52678329090965     -0.62095988846054
  H   -0.15084590746288      1.87468327932686     -1.06355586617431
  H   1.44231743098498      2.15751001907342     -0.41052668443258
  N   -1.69050047638190     -0.27189472309895     -0.61678943225628
  O   -2.57016299807806     -1.12037834001370     -0.52539359337187
  O   -1.78702791640157      0.78860055930037     -1.24608060995126
  C   -0.36859787757184     -1.75550089219752      0.78925074845923
  N   -0.28209822830647     -2.75944845398615      1.39720950914367
