12
Coordinates from ORCA-job run
  C   0.52624503380041      0.40998428853829      0.06582114704525
  C   -0.57303458600730     -0.39214917354684     -0.09212383658647
  C   1.60699227812771      0.46412601097913     -0.88098582194448
  N   2.57473333547341      0.61857315144972     -1.53208171550292
  N   0.65967562407874      1.27163435858885      1.10725568127721
  H   1.57177513981723      1.65448294901139      1.29490450225199
  H   0.02674254621068      1.19171116533915      1.89014608916984
  N   -0.77234047039492     -1.27066892576902     -1.23787682581073
  O   0.05361064409868     -1.23340530432993     -2.14295089797955
  O   -1.77243076394258     -1.98276130000509     -1.19434691767706
  C   -1.57622799571777     -0.40828148494451      0.90970454178168
  N   -2.32674078554430     -0.32224573531115      1.81353405397524
