12
Coordinates from ORCA-job run
  C   0.58755648545017      0.37641667977051      0.15406283540799
  C   -0.44267775902653     -0.52092994063440      0.00576901299085
  C   1.62656984747873     -0.01561044605910      1.05450473443727
  N   2.50022818605117     -0.29314005846061      1.80279711356869
  N   0.69478266265942      1.61079223204887     -0.37335144111874
  H   0.08857293686639      1.84016258318978     -1.14732067335871
  H   1.55108612726396      2.10637565573862     -0.25589357324905
  N   -1.59962916592095     -0.24899323999602     -0.84046133300218
  O   -2.61447360242616     -0.88686622623333     -0.62519594068926
  O   -1.45481181336649      0.60243421341038     -1.72039500441525
  C   -0.44580132287557     -1.76666093739771      0.69706832564955
  N   -0.49040258215413     -2.80298051537699      1.24841594377884
