12
Coordinates from ORCA-job run
  C   0.54054763595432      0.44076545320338      0.12588677673462
  C   -0.34580437663859     -0.60155562048019     -0.03643622645307
  C   1.77357391010096      0.13985377393841      0.80480812744306
  N   2.79176249036729     -0.06496921230514      1.35855715001750
  N   0.43064068811317      1.69951589473613     -0.33956308876211
  H   -0.45662929039006      1.98141747469167     -0.72942479836452
  H   1.07922577352396      2.39616809438784     -0.01235777468169
  N   -1.63485374477271     -0.42345333850900     -0.67785251276615
  O   -1.90121824501389      0.69876869913687     -1.12483394059336
  O   -2.37281776384879     -1.40008218486070     -0.73845150111330
  C   -0.07799448676136     -1.90019384432969      0.47160486028905
  N   0.17456740936570     -2.96723518960958      0.89906292825000
