12
Coordinates from ORCA-job run
  C   0.55718430749821      0.42319273745389      0.11353497553524
  C   -0.36137967531745     -0.59164048449033     -0.04281958774774
  C   1.81987522897353      0.06592558115889      0.70490537279362
  N   2.86199788754728     -0.18618440719831      1.19030829727604
  N   0.45018340648239      1.70417893021061     -0.28791728098500
  H   -0.45110801746720      2.02245421328712     -0.61205939636318
  H   1.13216963788302      2.37134617983906      0.03260372356617
  N   -1.68031142432702     -0.35754299263070     -0.60021820928417
  O   -2.44182476417707     -1.31571129229655     -0.66452485588875
  O   -1.94735580621366      0.79040620004100     -0.97573491928751
  C   -0.09513935843667     -1.91789666222811      0.38897097223712
  N   0.15470857755462     -3.00852800314659      0.75395090814816
