12
Coordinates from ORCA-job run
  C   0.57981322155611      0.32171254438055      0.10345408518267
  C   -0.58685336280104     -0.37363434932582     -0.07466686192870
  C   1.72525565876849      0.17253356444573     -0.75301593341362
  N   2.73290932122433      0.18859183566209     -1.35992892855596
  N   0.77416605495078      1.17080289336847      1.14628363254377
  H   1.54032468510178      1.82199725512179      1.09078704736760
  H   -0.02291130301796      1.45160723998230      1.69902102960627
  N   -0.79293851173241     -1.34311343237609     -1.14347996263189
  O   -1.93018189030050     -1.79830487586897     -1.23581245161586
  O   0.16422198866949     -1.62941876354086     -1.85386255692809
  C   -1.68179950384917     -0.13695062886885      0.79477481541369
  N   -2.50400635856988      0.15417671701966      1.58644608496013
