12
Coordinates from ORCA-job run
  C   0.44089220060850      0.50521309718663      0.01693429340702
  C   -0.49193494068171     -0.49676066394415     -0.03784333889415
  C   1.36104508042557      0.78851904389122     -1.05126500973571
  N   2.18045052992655      1.15270867282810     -1.81265746805872
  N   0.53441529895277      1.36027460618741      1.06771263142670
  H   0.02251611486330      1.15362593031940      1.91342181041373
  H   1.37357515680090      1.90831068284865      1.16332579409050
  N   -0.66099429052428     -1.38002532501807     -1.18461259522652
  O   0.00316926391368     -1.15310615200926     -2.18950324399604
  O   -1.47211726462548     -2.29098515296831     -1.03912394908453
  C   -1.33028259679551     -0.73230174759770      1.08098337663198
  N   -1.96073455286429     -0.81447299172393      2.07262769902572
