12
Coordinates from ORCA-job run
  C   0.47084752179513      0.46958196227302      0.06700893188920
  C   -0.52042937031482     -0.46470440244378     -0.08570082932739
  C   1.39905866139662      0.81001553724427     -0.97684314824755
  N   2.20097611100395      1.20465866695613     -1.74111967605816
  N   0.67830190443916      1.13427277397989      1.23113130781061
  H   1.24098869150257      1.96874877103116      1.20288835935676
  H   -0.01607411965405      1.06013539641298      1.96115718354682
  N   -0.65403422346811     -1.30941396419643     -1.26289367348500
  O   -1.51437011176359     -2.18406368187741     -1.19367289445652
  O   0.08560058742897     -1.09138547610477     -2.21601895987501
  C   -1.38691482009023     -0.73738810387753      1.00342600992152
  N   -1.98295083227561     -0.86045747939751      2.01263738892470
