12
Coordinates from ORCA-job run
  C   0.54295332841262      0.43411279294012      0.13778676458026
  C   -0.34847778919313     -0.59888940790666     -0.05237630371375
  C   1.76480080462011      0.11485773664146      0.82817536568738
  N   2.77281189483721     -0.10241188737692      1.39560744399999
  N   0.44680377378311      1.70156092001799     -0.30730112383367
  H   -0.43366732566400      1.99651262562583     -0.70288729372592
  H   1.09416663636538      2.38801836280804      0.04300241359058
  N   -1.62938594879117     -0.40054292211128     -0.70471496658898
  O   -2.37269549759565     -1.37111635365551     -0.79100257777156
  O   -1.88400690032032      0.73148285664182     -1.13322174428608
  C   -0.09607606533374     -1.90784162798135      0.43674841405821
  N   0.14177308887956     -2.98374309564353      0.85018360800354
