12
Coordinates from ORCA-job run
  C   0.55967753810865      0.35195091110998      0.08796316215179
  C   -0.56718455547322     -0.40905268895318     -0.07661225214383
  C   1.57073938388940      0.49548573168655     -0.92486143334360
  N   2.48466979367941      0.73934518957705     -1.62532600308235
  N   0.84318812813456      1.00058040211551      1.24671731117504
  H   1.54666813297520      1.72036555951772      1.23242161349547
  H   0.12467211856380      1.07300759906422      1.95242659832523
  N   -0.85226662859473     -1.17373329459085     -1.28381420231036
  O   -1.95033893120519     -1.72402629700258     -1.31680517628917
  O   0.00671290860094     -1.21304779967415     -2.15738420876395
  C   -1.52892018375505     -0.46487778889576      0.96355394782557
  N   -2.23761770492376     -0.39699752395451      1.90172064296016
