12
Coordinates from ORCA-job run
  C   0.49390000459440      0.46428541666348      0.07672066300683
  C   -0.49616982951233     -0.47365559230725     -0.05865167240809
  C   1.42567150556064      0.77695653502478     -0.96887239544917
  N   2.23260833736750      1.15140145928541     -1.73828077896503
  N   0.73224136745652      1.12146113978185      1.25179221332103
  H   -0.00661395446578      1.13849959918187      1.94145540428776
  H   1.27191985979746      1.96611106299027      1.16421580342490
  N   -0.68586763117519     -1.29052764178573     -1.25532665508173
  O   -1.48158786650849     -2.21781500122499     -1.14578918777562
  O   -0.06018049010178     -0.98821854942579     -2.26425087264481
  C   -1.37407112804295     -0.73842727444158      1.02415724101243
  N   -2.05285017497000     -0.90907115374232      1.97283023727150
