12
Coordinates from ORCA-job run
  C   0.56663281077726      0.39486487048750      0.14927676445915
  C   -0.42997591510950     -0.54651936067383      0.01568063930121
  C   1.67372390726432      0.05066706299281      1.00322554200134
  N   2.58554719742675     -0.16954836266643      1.71331727851452
  N   0.60318171192463      1.64346636933760     -0.35932181666879
  H   -0.09742199441506      1.88596031195844     -1.04607123060848
  H   1.48135609591679      2.13425843762260     -0.35543902648120
  N   -1.60398527268029     -0.31667307594936     -0.80232335717043
  O   -2.42404498386475     -1.22509206285321     -0.87237159678930
  O   -1.69568335615931      0.77247313715502     -1.38319517534121
  C   -0.37030227677731     -1.79685155531825      0.68830523432551
  N   -0.28902792430353     -2.82800577209287      1.24891674445770
