12
Coordinates from ORCA-job run
  C   0.56990085929742      0.39867817417225      0.13561360628328
  C   -0.40548313875100     -0.56432203249179     -0.00347477805817
  C   1.84576911759619     -0.04127634295586      0.63592361247144
  N   2.90550851003043     -0.36141205517597      1.03561569016839
  N   0.45795663805395      1.72481386310096     -0.07047809362966
  H   -0.38126575698599      2.06242787756631     -0.51822180357949
  H   1.29367615021292      2.28548190548992     -0.08295993295745
  N   -1.72343915397980     -0.25581863884725     -0.52560484108853
  O   -2.51089439993427     -1.18660900503192     -0.65054039350253
  O   -1.96601960038831      0.92437440895084     -0.80556677316859
  C   -0.15906483562143     -1.93040463820511      0.29547579829932
  N   0.07335561046989     -3.05493351657238      0.55321790876200
