12
Coordinates from ORCA-job run
  C   0.49145177716165      0.44882944534272      0.05335949972121
  C   -0.48118124502267     -0.51178771670359     -0.04103426526877
  C   1.40872814192947      0.77622244899151     -1.00426164442216
  N   2.17299203089235      1.24880212256933     -1.76286647982914
  N   0.67441021880742      1.18184538673050      1.19227037796074
  H   -0.06194079703957      1.18815974103517      1.88252241684235
  H   1.21277275368003      2.02753805042933      1.09617047051486
  N   -0.61903737131056     -1.39561836628569     -1.19815585027437
  O   -1.37391049808995     -2.35200392488663     -1.04169828922700
  O   0.02738587449774     -1.13096224342030     -2.20487880266739
  C   -1.37662812840764     -0.71263560571187      1.04234977216026
  N   -2.07504275709828     -0.76938933809049      1.98722279448941
