12
Coordinates from ORCA-job run
  C   0.47978139834307      0.45531815288718      0.25387522009375
  C   -0.35687434660982     -0.59367408302871     -0.05918294519783
  C   1.55143902983137      0.17544785983225      1.17301731573097
  N   2.44461870810544     -0.01418155161032      1.91570652492260
  N   0.37845877190413      1.73902874410385     -0.13936567858822
  H   -0.29425270904987      1.96160623200295     -0.85808402855889
  H   1.14449451855776      2.36545014444705      0.04338244262009
  N   -1.45619179798693     -0.44873746649966     -0.99482543020797
  O   -1.65294339543619      0.67320229066606     -1.47697846922887
  O   -2.12003328310995     -1.44892498432257     -1.24173517493461
  C   -0.15406780384367     -1.89747006723762      0.46540017225877
  N   0.03657090929467     -2.96706527124048      0.91779005109020
