12
Coordinates from ORCA-job run
  C   0.52730515506478      0.45081331043540      0.02753595896941
  C   -0.58078428811455     -0.33736332790740     -0.03120155728835
  C   1.79121999714369     -0.15435347112827      0.34035291198427
  N   2.83709961853598     -0.63974759344751      0.58297988624105
  N   0.51725617150293      1.81378753815410     -0.11351864429032
  H   1.38585471296280      2.24717767866591     -0.38745503369052
  H   -0.31057362626161      2.22454059084111     -0.52313683604503
  N   -0.48329835148320     -1.77059825396438      0.29454760220941
  O   -0.86715240869632     -2.09661323181787      1.41030874284107
  O   -0.04610793617280     -2.51094376015082     -0.58555008745047
  C   -1.86216876094704      0.15762534893200     -0.36543951265281
  N   -2.90865028353467      0.61567517138773     -0.64942343082771
