12
Coordinates from ORCA-job run
  C   0.56012975853786      0.41218630153108      0.14449732592646
  C   -0.41519630519050     -0.55613167177659      0.01698208861144
  C   1.58363138109413      0.16731570566347      1.12584401138218
  N   2.44182141612779      0.00693630428317      1.91475735533002
  N   0.71742783543706      1.52512121043372     -0.58966395853367
  H   1.42129129044889      2.19503471730303     -0.32513550255061
  H   -0.02603930296656      1.78813424207208     -1.21896336223533
  N   -1.52276420935744     -0.42640935917976     -0.90868150005380
  O   -2.35659937218131     -1.32451999587129     -0.91668987019863
  O   -1.54991234716186      0.57064007492759     -1.64178267954970
  C   -0.43656748372219     -1.70656003041428      0.85000540124423
  N   -0.41722266106588     -2.65274749897222      1.54883069062741
