12
Coordinates from ORCA-job run
  C   0.54499555266960      0.43232317624997      0.13549664479152
  C   -0.35614570767693     -0.59520493845047     -0.03859161666470
  C   1.75089871731094      0.11796291705492      0.85576521208850
  N   2.74691097257998     -0.10012106053379      1.44356893747434
  N   0.47397137485653      1.68576870266314     -0.35129626862853
  H   1.12672374924036      2.37414401384930     -0.01533794207662
  H   -0.39417025338960      1.98002130900104     -0.77356942140006
  N   -1.62055948737155     -0.40296149824846     -0.72352086079507
  O   -2.37349629319233     -1.36736689997819     -0.79561605523590
  O   -1.85321135721326      0.71830453118624     -1.19118830607057
  C   -0.13056555770630     -1.89007669426357      0.49877310668892
  N   0.08364828989256     -2.95379355853014      0.95451656982817
