12
Coordinates from ORCA-job run
  C   0.52362347204544      0.44125555144578      0.18186162129660
  C   -0.31465029425163     -0.60386281884819     -0.13905511887848
  C   1.81219070617046      0.09408341880336      0.72105002305094
  N   2.87250707560028     -0.14708953416427      1.17142899761902
  N   0.31672094855149      1.75740849224416     -0.01461165182899
  H   -0.60786340550024      2.05282563202672     -0.29136400939476
  H   0.94584656428390      2.41588129616514      0.41383615714328
  N   -1.65020050657750     -0.38718646516704     -0.66273040948788
  O   -2.00587272834474      0.78148695909669     -0.85704777108432
  O   -2.33621597327186     -1.37893226287379     -0.88156084293632
  C   0.05434122815178     -1.95698380431150      0.08289680429662
  N   0.38857291314262     -3.06888646441705      0.27529620020430
