12
Coordinates from ORCA-job run
  C   0.60562384912122      0.36176314631657      0.06610894579170
  C   -0.44171728710973     -0.53323339124638      0.05849239192699
  C   1.76371103321154     -0.00510210658432      0.83807837565683
  N   2.72758935914656     -0.26485286168387      1.46160912105153
  N   0.71416316351858      1.51344599148587     -0.62361060916104
  H   -0.10917007312338      1.86085401598643     -1.09270517190471
  H   1.46629164569171      2.14341960026032     -0.39896490681888
  N   -1.67491828484419     -0.26966281569019     -0.65921308266134
  O   -2.56135795764135     -1.11244824951701     -0.58202232955494
  O   -1.74907952738057      0.78466544839547     -1.30165252386724
  C   -0.40197924781217     -1.74129199863573      0.80364974446957
  N   -0.33915667277822     -2.73555677908717      1.43023004507153
