12
Coordinates from ORCA-job run
  C   0.58537871679130      0.38802122246836      0.09417107498472
  C   -0.52908588235984     -0.41872107621791      0.16637288987233
  C   1.44662616520145      0.40485739502203      1.24731072460664
  N   2.18070492944195      0.44119859727525      2.16659116852451
  N   0.93562368820912      1.22692684656021     -0.89948960202840
  H   0.42162119706283      1.16920180440133     -1.76632780830530
  H   1.85660582159663      1.63269171803041     -0.88892975302310
  N   -1.45911646375938     -0.54858685529453     -0.93936907164568
  O   -1.24393222031155      0.13049423067960     -1.95055754704966
  O   -2.39896526290718     -1.32187814133386     -0.79584052231776
  C   -0.79921804579510     -1.22399796522072      1.30434859026078
  N   -0.99724264317023     -1.87920777637017      2.26171985612091
