12
Coordinates from ORCA-job run
  C   0.62873491257216      0.32770489670243      0.00509033026074
  C   -0.46456005585821     -0.50303437482535      0.11563464867190
  C   1.81102622039490     -0.06084384079947      0.72815883840449
  N   2.79478401606760     -0.33868510757215      1.31146363501233
  N   0.75623719555743      1.42926603754724     -0.75950232681230
  H   1.55197467280504      2.02840783423361     -0.61476627138150
  H   -0.07637900786850      1.79729025182971     -1.19546704990591
  N   -1.72613313608432     -0.20697285633360     -0.53737162737620
  O   -1.78025915587403      0.80628083602793     -1.24465580333973
  O   -2.65374432911139     -0.98501101021869     -0.34733990467084
  C   -0.44408611950104     -1.66659463585218      0.92941948359219
  N   -0.39759521309966     -2.62680803073949      1.60833604754482
