12
Coordinates from ORCA-job run
  C   0.55494675651387      0.42909953690948      0.09780177076413
  C   -0.36179823602058     -0.59353882060208     -0.01032646416959
  C   1.79501406955892      0.11822373927880      0.75916791924762
  N   2.81976289783266     -0.09384661645771      1.29789896143673
  N   0.46697520384448      1.67536428797171     -0.40435882630926
  H   1.14019454438354      2.36452693344807     -0.11338766121790
  H   -0.41909343700541      1.96812273787918     -0.78859391895144
  N   -1.66005354343051     -0.40174556547254     -0.62872550694992
  O   -2.42584507306069     -1.35847525863665     -0.63737278346722
  O   -1.90695710759287      0.71210958099851     -1.10678439958328
  C   -0.11713959138745     -1.88123856350884      0.53569013067917
  N   0.11199351636405     -2.93860199180795      0.99899077852097
