12
Coordinates from ORCA-job run
  C   0.51798978723384      0.42297549729868      0.04137550815592
  C   -0.55918374722202     -0.41763012062742     -0.05941652161265
  C   1.57695288401128      0.46812811799364     -0.93040257035490
  N   2.52484793840926      0.62562275585120     -1.60919803613237
  N   0.64681790017863      1.33118485291553      1.04229828150711
  H   0.03101682780846      1.27038406762432      1.83996160350275
  H   1.54557606190474      1.76111025482357      1.18762361483051
  N   -0.75540262079105     -1.34624916616366     -1.16562177489305
  O   0.05260586311967     -1.32485148853239     -2.08745204947088
  O   -1.73665810652187     -2.08013728508575     -1.07505558976185
  C   -1.54995745927866     -0.41052076276394      0.95449989168036
  N   -2.29460532885229     -0.29901672333378      1.86038764254904
