12
Coordinates from ORCA-job run
  C   0.54709294201687      0.42737796939163      0.14257072695282
  C   -0.35930902755127     -0.59338447072674     -0.04385774692149
  C   1.73519921348814      0.10810078516088      0.88965734412056
  N   2.71551870692193     -0.11039150575918      1.50321252720489
  N   0.49543123596930      1.67906605824221     -0.35120459733545
  H   -0.36257209535085      1.97738065348057     -0.79115497876088
  H   1.14734625373440      2.36405381114357     -0.00681314754076
  N   -1.60995760542608     -0.39292789935303     -0.75169259972308
  O   -1.82363531363585      0.72787742411147     -1.22945715558252
  O   -2.37026733546656     -1.35073803310408     -0.83247394684786
  C   -0.15533940595888     -1.88754251809126      0.50368781426113
  N   0.04049243125884     -2.95087227449606      0.96852576017265
