12
Coordinates from ORCA-job run
  C   0.56395602750488      0.41779787596856      0.09697672772534
  C   -0.39561870453582     -0.56931648999266      0.04735469798724
  C   1.84164800899437      0.05060829344095      0.64855267671770
  N   2.90292869898313     -0.20808130526649      1.08693752786769
  N   0.43292662880940      1.71548898493540     -0.23853783117409
  H   1.25957554751522      2.28620058001059     -0.30079700418036
  H   -0.40826746507488      1.99447978556238     -0.72157620546401
  N   -1.71518732932130     -0.33335051587020     -0.50844585282077
  O   -2.48806819978829     -1.28377721368146     -0.54424257711712
  O   -1.97342289520651      0.80987096289092     -0.90366402488167
  C   -0.13279359770472     -1.89472096131811      0.48343128020471
  N   0.11232327982453     -2.98419999667988      0.85501058513533
