12
Coordinates from ORCA-job run
  C   0.49400123017896      0.44854313907780      0.04550332332221
  C   -0.54047054777954     -0.44390897396279     -0.06166870113315
  C   1.44018195594624      0.69097799358704     -1.01064819330764
  N   2.29978244288604      1.00746037700998     -1.74893654285519
  N   0.67393831731469      1.23298686360300      1.13815888019940
  H   0.13832238061542      1.04504155826998      1.97271383940013
  H   1.55559579771056      1.70483160107988      1.25149080163187
  N   -0.79235567996144     -1.24694660446138     -1.25161816363117
  O   -1.72689478319122     -2.04060879294846     -1.16907224291346
  O   -0.07200433235520     -1.07328809299318     -2.22781771591251
  C   -1.41348716882967     -0.63650479321169      1.03869982750157
  N   -2.05660961253486     -0.68858427505018      2.02419488769795
