12
Coordinates from ORCA-job run
  C   0.62040300445234      0.33951565210408      0.03702598044723
  C   -0.45188611000574     -0.52496307336346      0.05922345158459
  C   1.82776212867176     -0.11159569427658      0.67810118614523
  N   2.83212537561248     -0.43780595030223      1.19798283227780
  N   0.70642945895121      1.53587094652770     -0.57508037476398
  H   -0.14167996412315      1.93842053100028     -0.94591472105417
  H   1.49484150698847      2.12785626960594     -0.37275970079989
  N   -1.73327898761980     -0.17743621624367     -0.52600952147360
  O   -1.82448053102231      0.91775008284257     -1.09377123800967
  O   -2.64017857753434     -0.99487478705858     -0.42037577500799
  C   -0.38663485224809     -1.78576742157099      0.70922222270940
  N   -0.30342245212282     -2.82597033926506      1.25335565794505
