12
Coordinates from ORCA-job run
  C   0.62916228876459      0.32672919458233     -0.00367464016564
  C   -0.48960153245700     -0.45081292699829      0.20027163348636
  C   1.83599538437121     -0.08939160682024      0.66114618353614
  N   2.84599638307829     -0.39982216755451      1.17966893138556
  N   0.72049083130825      1.47803484668545     -0.69620221070032
  H   -0.07078964098454      1.75339971730226     -1.25904366184052
  H   1.63177046481680      1.85891344295394     -0.88896238659446
  N   -1.75825245778927     -0.15800964564506     -0.44038547656743
  O   -1.82058113130073      0.85375856580012     -1.14913826734554
  O   -2.68496580974848     -0.93264561644129     -0.23368365534444
  C   -0.45032671070863     -1.63246642058037      0.98657490619667
  N   -0.39089806935047     -2.60868738328433      1.64142864395361
