12
Coordinates from ORCA-job run
  C   0.49603541172952      0.44768128133385      0.23626219463956
  C   -0.37368985189193     -0.58449277949888     -0.03987210983669
  C   1.58081513676480      0.15549918417145      1.13604115508598
  N   2.48622204135271     -0.04463028354666      1.86092225284546
  N   0.41777260256475      1.72730540735381     -0.17610480837482
  H   1.20682845579996      2.33385088018923     -0.02656908715138
  H   -0.26203519582206      1.95195650649279     -0.88749994576517
  N   -1.48908157582576     -0.42807410483406     -0.95442091425496
  O   -2.18465786795884     -1.41443317957138     -1.16703850387943
  O   -1.66618293061077      0.68921346176743     -1.45487304797924
  C   -0.19282203067220     -1.88385421668659      0.50352445038673
  N   -0.01920419543019     -2.95002215717097      0.97062836428395
