12
Coordinates from ORCA-job run
  C   0.53310585771232      0.40245997928560      0.05189216975021
  C   -0.58312077436973     -0.38100779710939     -0.08457136234988
  C   1.58950186666305      0.45022091660328     -0.92342174550432
  N   2.54126236089853      0.59698300313955     -1.59932906501586
  N   0.70726198547756      1.24505523674460      1.10107232581093
  H   1.62462620420053      1.62789946879570      1.26385618930290
  H   0.09089119736012      1.17148357068672      1.89662744133608
  N   -0.82863749847278     -1.24515192970256     -1.23071171018872
  O   -1.87252599668173     -1.89246767571702     -1.18971801172162
  O   -0.00084048064962     -1.25727986183543     -2.13514093871418
  C   -1.54749341088012     -0.40139624231191      0.95539322723877
  N   -2.25403131125813     -0.31679866857914      1.89405148005570
