13

C	-0.45405	0.067333	-1.445563
C	0.0	0.0	0.0
F	-0.264344	-1.1883	-2.033889
H	1.091747	0.0	0.0
H	-0.391969	-0.901898	0.472691
H	-0.350755	0.877964	0.548243
C	-1.905624	0.346813	-1.547951
N	-3.052409	0.589457	-1.618641
C	0.348859	1.078546	-2.24289
H	1.407216	0.835267	-2.124153
H	0.178113	2.085899	-1.857476
H	0.063882	1.041711	-3.296366
Br	3.698786	0.0	0.0
