13
Coordinates from ORCA-job run
  C   0.78448271005516      0.15981088853700      0.08853439422854
  C   -0.53156481640259     -0.14178081919836     -0.11842409366145
  N   1.29483358606620      1.08276497069579      0.93559261227912
  H   2.26660736277381      1.32718442133647      0.84481734406822
  H   0.65342062360237      1.74356086677657      1.34786627095101
  C   1.75791050000023     -0.66204462064525     -0.58142541543048
  N   2.57661737495949     -1.32816797291734     -1.10020491122805
  N   -1.63031392767706      0.59285364815535      0.45220464044288
  O   -2.76549442153366      0.29855786591503      0.09697236720901
  O   -1.33600319466379      1.49768291647255      1.24268394622200
  N   -0.92011006833685     -1.24607131854078     -0.98583566471324
  O   -0.63074199285270     -1.15386817185126     -2.17685187313627
  O   -1.51864373599060     -2.17048267473576     -0.43892961723128
