13
Coordinates from ORCA-job run
  C   0.76699906357956      0.14523198983817      0.15161380515934
  C   -0.51974261307576     -0.10695736660968     -0.22496483007613
  N   1.19794775495492      1.13425904242464      1.00834691072390
  H   0.49271421090582      1.64605386004140      1.51616433052974
  H   2.14559875232107      1.09154929039866      1.34796582288601
  C   1.80636022748933     -0.64397060558768     -0.45861870527234
  N   2.68434900727698     -1.27128044622317     -0.91497905303993
  N   -1.65860136240686      0.56524725472366      0.33147307641697
  O   -2.78150374808971      0.08302621897992      0.10924525369718
  O   -1.41134453311656      1.56886379755287      1.02147962559744
  N   -0.82727759139468     -1.14019128955477     -1.17955954945529
  O   -0.48626828226282     -2.28975887872739     -0.89538755042523
  O   -1.41023088618128     -0.78107286725663     -2.20277913674167
