13
Coordinates from ORCA-job run
  C   0.73151855612787      0.17354112938519      0.18272064829196
  C   -0.52053534599117     -0.10325381900569     -0.28743909200075
  N   1.36008670898190     -0.41728805414101      1.21967187522130
  H   0.87146352131183     -1.07753961851999      1.79858078188436
  H   2.32265470360082     -0.19870862407468      1.41320394249354
  C   1.50680279517182      1.22648818004051     -0.43458990217825
  N   2.27234096322429      2.04659108192093     -0.79164314517751
  N   -1.32899342995256     -1.17864258024022      0.25612154858472
  O   -0.98294732683453     -1.64633553201141      1.34237098397989
  O   -2.23290595688484     -1.61221238989732     -0.44644282837336
  N   -1.17064696655915      0.71784602251292     -1.29601635118149
  O   -2.33798869398063      1.02125856721303     -1.07987077203414
  O   -0.49184952821567      1.04725563681775     -2.26966768951027
