13
Coordinates from ORCA-job run
  C   0.78329836297688      0.14944446718417      0.14397975247625
  C   -0.51700335665581     -0.09086491676819     -0.18572304333457
  N   1.25619690013472      1.08059101409929      1.00613676444867
  H   2.20806487127473      0.99338728009239      1.32101721870810
  H   0.58567615863841      1.54063357444641      1.60326622576556
  C   1.77802369531097     -0.62146795082586     -0.55245473607301
  N   2.61597730811362     -1.24400572434203     -1.09606774267951
  N   -1.64899249269954      0.55690249513831      0.41093275469631
  O   -1.41445758725912      1.40627903695517      1.27792877249196
  O   -2.76180813310159      0.22243771649524      0.01717247993706
  N   -0.86820879245405     -1.08441962484798     -1.19483082537060
  O   -1.08984087533464     -2.22235227093333     -0.78697554486715
  O   -0.92792605894457     -0.68656509669358     -2.35638207619907
