13
Coordinates from ORCA-job run
  C   0.59453917350648      0.43757397966737      0.10284211051215
  C   -0.67950378140053     -0.29428870510067     -0.16457227070879
  N   1.18558561201737      0.24097319362734      1.35417143185212
  H   1.99878012482941      0.82421138350160      1.50304566262576
  H   0.51957879350522      0.33513930900789      2.11002173603423
  C   1.57721659968032      0.35856386511746     -0.98024370714994
  N   2.36595661828304      0.30077817764875     -1.84880385900303
  N   -1.37340462389919      0.82084982362474     -0.38571525840885
  O   -2.44220886168222      1.23443282439136     -0.70102074071387
  O   -0.20068633119327      1.69621681093526     -0.09103580940634
  N   -1.08513358640356     -1.64291315588390     -0.37892598029127
  O   -0.18819880217827     -2.47698634623707     -0.28388690888968
  O   -2.27252093506481     -1.83455116030013     -0.62887640645250
