13
Coordinates from ORCA-job run
  C   0.79490676488566      0.09785704467108      0.01381197792675
  C   -0.55240827739507     -0.09722311838554     -0.09847987440905
  N   1.42218599194504      1.17936152597586      0.52766432210854
  H   2.40260812871595      1.10782203478860      0.74253416671420
  H   0.86007330904720      1.87451620528581      0.99478804088676
  C   1.67372329351878     -0.89706674095795     -0.54390030306959
  N   2.45904835331103     -1.65294347651147     -0.98684206765519
  N   -1.09157537607614     -1.25310078180124     -0.80562637362487
  O   -1.84859549083304     -1.00282519217095     -1.73934755043858
  O   -0.74178614867130     -2.36566939468141     -0.41624343360019
  N   -1.54158292727271      0.77553879588601      0.47716398775265
  O   -1.14254417720113      1.86883077791547      0.89609239448695
  O   -2.69405344397429      0.36490231998572      0.54538471292160
