13
Coordinates from ORCA-job run
  C   0.79314828512454      0.08776498938761      0.02984687160369
  C   -0.55556738386576     -0.05903717272191     -0.12712640393067
  N   1.59915902257654     -0.60625008649064      0.86406631102523
  H   1.16633255489634     -1.18070979116265      1.57035474751287
  H   2.53810069626121     -0.27412759573849      1.00704179710042
  C   1.47045165219941      1.05134236048068     -0.79851903183567
  N   2.09693363501784      1.83509006750111     -1.41303740326425
  N   -1.29676959431599      0.76675801578649     -1.07341753184496
  O   -2.21097010599824      1.43594728592188     -0.60026260184040
  O   -0.94242009049049      0.72762355241776     -2.25033830968880
  N   -1.35377819915300     -1.00488805897826      0.61013546760745
  O   -2.50208733496378     -1.20142570088505      0.23168471490636
  O   -0.80153313728863     -1.57808786551854      1.55657137264872
