13
Coordinates from ORCA-job run
  C   0.75798532135830      0.17120915284077      0.14810865308493
  C   -0.55144617366145     -0.06978930094863     -0.15554551300962
  N   1.57337913258200     -0.59831389843060      0.90247249119651
  H   1.26567697432084     -1.52871495809551      1.13963658560752
  H   2.55422938851562     -0.37671972656217      0.93014282473852
  C   1.35832227539243      1.38755343271968     -0.33354673444294
  N   1.94340968401354      2.34290956955007     -0.69353663670141
  N   -1.30947932607577      0.84509623528257     -1.00159631264651
  O   -1.37062927583042      2.02070872486424     -0.64695094103791
  O   -1.80807344414103      0.35186681652890     -2.00920679902788
  N   -1.28441296128860     -1.21842783586737      0.30943131192230
  O   -2.50558498834495     -1.19277620731523      0.20839098789626
  O   -0.62437660684050     -2.13560200456673      0.81120008242023
