13
Coordinates from ORCA-job run
  C   0.75290169768403      0.20173236561232      0.18881008326685
  C   -0.53678916758172     -0.08592191891639     -0.14858826357456
  N   1.52779994620509     -0.43408770192149      1.09757086431798
  H   1.19720646868114     -1.31833458561447      1.45298996450849
  H   2.51758292417797     -0.25043953988869      1.08399390862814
  C   1.34992397717755      1.34900117036475     -0.44199374319924
  N   1.88703736872320      2.26472069672716     -0.94992986990959
  N   -1.24474477623088      0.71686225029945     -1.14101748489488
  O   -1.62735518541785      1.83031669564146     -0.78696596246066
  O   -1.39163995488842      0.19616530867822     -2.24359101098911
  N   -1.28489694492999     -1.20045456310916      0.35833498733695
  O   -2.45022391853936     -1.31598301129747     -0.00692066320009
  O   -0.69780243506075     -1.95457716657569      1.14330719016973
