13
Coordinates from ORCA-job run
  C   0.75533958244416      0.19057050864810      0.15601688410763
  C   -0.51942081640255     -0.12827868689748     -0.21599582402062
  N   1.51331271053593     -0.43308549065931      1.08687733165320
  H   2.36058496001877      0.01818920585392      1.38876035658076
  H   1.05115659706761     -1.07680121297531      1.71091325418296
  C   1.40912403172224      1.27662053456376     -0.52619912299895
  N   2.00387487253406      2.16803561017123     -1.01197495110672
  N   -1.21740052649737      0.63479369392800     -1.24336529966710
  O   -0.67905375926449      0.71956906474594     -2.34563310102668
  O   -2.28580310621359      1.13630849141666     -0.90427522624001
  N   -1.27712901165889     -1.21172696106545      0.35646079326236
  O   -2.29781470636209     -1.56239720773654     -0.22331902857537
  O   -0.81777082792379     -1.73179754999353      1.37973393384856
