13
Coordinates from ORCA-job run
  C   0.76817895921062      0.02251114819098      0.19560549340063
  C   -0.52401276814964     -0.02718091212350     -0.24303475750345
  N   1.31686199821402      0.95076803706014      1.01288688090212
  H   0.68798349766326      1.56189172304542      1.51147025942716
  H   2.22431356037952      0.75954970401770      1.40366104799046
  C   1.68444284426863     -0.98113167461850     -0.27915817943303
  N   2.49377492919682     -1.77405579872961     -0.59646820534743
  N   -0.97780206787478     -1.09096666217408     -1.13052195415516
  O   -1.92132789218389     -1.76256879956779     -0.72240536035078
  O   -0.37864514868529     -1.23008314967782     -2.19529601951541
  N   -1.53591207259064      0.93076181949043      0.12353563049790
  O   -2.57773588359307      0.93404089472786     -0.52100356392389
  O   -1.26011995585554      1.70546367035875      1.04672872801088
