13
Coordinates from ORCA-job run
  C   0.76329825414031      0.19075528937270      0.12892775687366
  C   -0.52607467886106     -0.11437849863417     -0.20317263903235
  N   1.18628235084246      1.11949167021096      1.01802172093649
  H   0.49576490457686      1.51071766176515      1.64052782052012
  H   2.14355714059035      1.07497153047842      1.32615460941259
  C   1.81466651648825     -0.48880211225690     -0.58468935655742
  N   2.72387526534740     -1.02226291715661     -1.10688593865651
  N   -1.68480646606153      0.47661416646789      0.41740466710717
  O   -1.47278869528489      1.26417886915182      1.34731370581548
  O   -2.78614812780254      0.18873384345813     -0.03318530535150
  N   -0.81449855684884     -1.14062337005516     -1.19973147693333
  O   -0.41523745677679     -0.93530304498967     -2.34445799112123
  O   -1.42889045034998     -2.12509308781256     -0.79822757301319
