13
Coordinates from ORCA-job run
  C   0.74348165313024      0.21321796386983      0.17080613929578
  C   -0.54507567775749     -0.09387362871272     -0.16209334756082
  N   1.55777330776342     -0.47686081543641      1.00120812456940
  H   2.53537749485563     -0.23906080315425      1.01426462787021
  H   1.27535896550864     -1.40887542966386      1.26434534166727
  C   1.32037958999906      1.41397913477214     -0.37610110875171
  N   1.88710470437364      2.35194532890831     -0.80395451778301
  N   -1.30630123834619      0.75071394563992     -1.07572361638091
  O   -1.76521920009027      0.18942626310806     -2.06676598691030
  O   -1.41372583099627      1.94052276920613     -0.78521062600889
  N   -1.25010863349925     -1.24838533398997      0.33350595930571
  O   -0.57276598637178     -2.10724574628771      0.90978397187219
  O   -2.46527914856939     -1.28350364825945      0.18293503881508
