13
Coordinates from ORCA-job run
  C   0.79242358118715      0.05329771142927      0.02965981320004
  C   -0.56578828079041     -0.01211100955202     -0.09791775676349
  N   1.56025380279012     -0.60429972344906      0.92978601937997
  H   2.55585900175598     -0.62811864388991      0.78325453923057
  H   1.12618806560039     -1.33633614429013      1.47005990209357
  C   1.51309145563944      0.98605529309047     -0.79974219839635
  N   2.18101746614745      1.74138503154271     -1.40542867806646
  N   -1.26719055939968      0.87992893302821     -1.01818976652268
  O   -2.08331776539434      1.64007658689665     -0.50673134170094
  O   -0.96340578208675      0.80762222489436     -2.20724737090727
  N   -1.40465286404312     -0.92624684337157      0.62527138295747
  O   -2.57212324012296     -1.03441328297480      0.26675663570846
  O   -0.87135488128328     -1.56784013335417      1.53846881978709
