13
Coordinates from ORCA-job run
  C   0.77369564344736      0.13073190377308      0.10916025759697
  C   -0.55353619365425     -0.05607143734405     -0.15811426213532
  N   1.55541487377151     -0.61732327359560      0.91538893126004
  H   1.13971543002770     -1.37572082375289      1.43243822471338
  H   2.48308549456914     -0.29772478859377      1.13720825353985
  C   1.46504796087865      1.19583995408735     -0.56878945046140
  N   2.11929662492962      2.02619837794260     -1.08655212994977
  N   -1.37147020362015     -1.04137355558843      0.49855265553101
  O   -2.58758277745932     -0.94077860733931      0.38545991755685
  O   -0.78071718003145     -1.90609214338702      1.15731499893211
  N   -1.24316422230376      0.75875004863097     -1.15078064191168
  O   -1.79599663864977      0.14264144194105     -2.05773579071271
  O   -1.20378881190526      1.97892290322602     -1.00555096395933
