13
Coordinates from ORCA-job run
  C   0.75102329032894      0.19730385210066      0.16428364631972
  C   -0.51632696733674     -0.13403671554010     -0.22206919802271
  N   1.48725839354406     -0.39028137763716      1.13480407012748
  H   2.33150712058025      0.06796297403623      1.43436433293756
  H   1.01179329743800     -1.01017852369412      1.77276106610762
  C   1.42171331835162      1.25649098230870     -0.54353376940603
  N   2.03063517548947      2.12885618372390     -1.04605240988903
  N   -1.19208096190352      0.59037936708664     -1.29141424782360
  O   -0.62629367761774      0.64348192319312     -2.38179039490239
  O   -2.27186980879496      1.09519992824864     -0.99628761526393
  N   -1.28589835694575     -1.19669771574231      0.37334686423117
  O   -2.28937295612923     -1.57502700784740     -0.21895299840555
  O   -0.85208786700441     -1.67345387023680      1.42854065398969
