13
Coordinates from ORCA-job run
  C   0.75317542653696      0.19194097754426      0.16790478514403
  C   -0.54604262983458     -0.07530156937993     -0.15603654645112
  N   1.55079902518867     -0.52360967756054      0.99372529695908
  H   1.24119248826912     -1.44678714820643      1.25622917060357
  H   2.53623099943629     -0.31956183448699      0.99511589340911
  C   1.35789290814921      1.37766072877014     -0.37957668803658
  N   1.94204761878293      2.30125479096809     -0.81588802499625
  N   -1.28891651925075      0.78678750648920     -1.06656064969657
  O   -1.75506057821041      0.23824993791677     -2.06141097197007
  O   -1.37529995190725      1.97746910215394     -0.77161629934545
  N   -1.28450215248760     -1.20924695788418      0.34135606690787
  O   -2.49933151398466     -1.20990886583041      0.18765277074003
  O   -0.63218512068792     -2.08794699049394      0.91610519673234
