13
Coordinates from ORCA-job run
  C   0.77405503880173      0.11155995313619      0.10743656191868
  C   -0.55961590989150     -0.02542411521635     -0.15146098270000
  N   1.50955873297763     -0.60380345513431      0.99252098838484
  H   2.51146007060189     -0.52873629504622      0.93314789959495
  H   1.10622941276954     -1.45542388554361      1.35461279847185
  C   1.50788855335570      1.15501106317481     -0.55840353327189
  N   2.22735481143674      1.95357964663943     -1.03930259856765
  N   -1.40770251861294     -0.98545133432345      0.51343813740282
  O   -2.61735790481411     -0.80033421181504      0.47313846322941
  O   -0.84113949137961     -1.90318443378725      1.11690955526685
  N   -1.23417344059079      0.81958298141305     -1.13025381436129
  O   -1.08278004216872      2.03468813919318     -1.02655140215048
  O   -1.89477731248555      0.22893594730950     -1.97923207321810
