13
Coordinates from ORCA-job run
  C   0.74491551489422      0.19686399485414      0.19244630426495
  C   -0.54180796167672     -0.09619407866403     -0.16470200935189
  N   1.55541044404947     -0.52341806609506      0.99736504094600
  H   1.25586632295521     -1.44705528805429      1.26751815281427
  H   2.53241357637507     -0.28678102270557      1.03767056534916
  C   1.31764101979532      1.41250248424140     -0.32359388862619
  N   1.83649935073533      2.37110146358468     -0.76567385021106
  N   -1.28627747860202      0.80255283588761     -1.03387152816829
  O   -1.62194324347212      0.34517678211389     -2.12529106573202
  O   -1.48600623703310      1.94547092772497     -0.62234671032742
  N   -1.25308885732373     -1.26881169718111      0.26081401043458
  O   -2.45076632552722     -1.33023385609915      0.00997532883510
  O   -0.60285612516972     -2.12117447960748      0.87668964977281
