13
Coordinates from ORCA-job run
  C   0.71844430988484      0.22922303382291      0.24216563308692
  C   -0.51363600843876     -0.11662933542814     -0.23565229038193
  N   1.38679271479996     -0.34535199171336      1.26699343123149
  H   1.01408859589829     -1.19791485518882      1.65630068462918
  H   2.36383877868688     -0.13326941749056      1.38056601042257
  C   1.36714044831609      1.38296038153252     -0.32487733214256
  N   1.95570542746733      2.32186400907916     -0.72014045122610
  N   -1.17768476542480      0.68223347205101     -1.25917503894817
  O   -0.57368432601904      0.86123159604130     -2.31503427845821
  O   -2.28925594343806      1.11187054465275     -0.96336792791536
  N   -1.23940284735175     -1.28568593844315      0.18600109905198
  O   -2.19349974645002     -1.64137781955310     -0.49566320798417
  O   -0.81884663793096     -1.86815367936252      1.19288366863437
