13
Coordinates from ORCA-job run
  C   0.78638831988532      0.11240614195475      0.06366014605555
  C   -0.55795718075850     -0.04700652699005     -0.12315026166470
  N   1.61175104092211     -0.68746333235045      0.77285773240357
  H   2.53857777947459     -0.36038497739409      0.98625764307545
  H   1.20188167557925     -1.42655767415349      1.32256218101908
  C   1.44351508300354      1.19315650018064     -0.62395899615838
  N   2.06722621395916      2.02753276703264     -1.17126526322453
  N   -1.29916339592766      0.82465928998238     -1.02720789695227
  O   -1.24702489999192      2.03360364545438     -0.81089419101481
  O   -1.89764907697403      0.26428630494149     -1.94073685883892
  N   -1.34805710283068     -1.05219291655499      0.53638382062737
  O   -0.73068160695520     -1.93657952430221      1.14195157557523
  O   -2.56780684938596     -0.94645969780099      0.48154036909735
