13
Coordinates from ORCA-job run
  C   0.75544142234091      0.17464222221530      0.16756873506831
  C   -0.54805445780483     -0.06980237574156     -0.15974080582010
  N   1.56944811175551     -0.60994363459145      0.90878670696286
  H   2.55138707441913     -0.39230556361792      0.93348871207375
  H   1.26745565613010     -1.55260698799517      1.10166022388904
  C   1.34815749604614      1.40875573718003     -0.27753444467469
  N   1.91782767845252      2.37888162811893     -0.62196379563888
  N   -1.30801849626309      0.86872341999458     -0.97633049604056
  O   -1.79527970878693      0.40916711750227     -2.00562572917411
  O   -1.38675186693021      2.02889858729649     -0.57675165999773
  N   -1.27344660680534     -1.24437182720142      0.25134068320183
  O   -0.60801565106369     -2.16707337123573      0.73594105558970
  O   -2.49215065149023     -1.23496495192436      0.12716081456059
