13
Coordinates from ORCA-job run
  C   0.77077846667819     -0.01401499426613      0.14606220124314
  C   -0.53213035544812     -0.11882420102856     -0.25061160176536
  N   1.21118491725070      0.87792402429519      1.07460378788070
  H   2.15981008287059      0.80545125639000      1.40270784659105
  H   0.52909101418777      1.22947299283535      1.73386370888176
  C   1.81769244600780     -0.75580051294996     -0.49590153146950
  N   2.77227636437365     -1.25851240073270     -0.96460213460747
  N   -1.04452048536794     -1.08561542685145     -1.20302602544149
  O   -0.22302224506468     -1.77009664447108     -1.80644496545884
  O   -2.26571008242947     -1.17188347780843     -1.28596687624646
  N   -1.51166073389130      0.82444076090884      0.27809793007891
  O   -2.16000734919473      1.47685471195629     -0.52593866557828
  O   -1.52278203997246      0.96260391172265      1.50315632589183
