13
Coordinates from ORCA-job run
  C   0.73463376668610      0.22161393627316      0.19550046568989
  C   -0.53666165023011     -0.10245805390953     -0.18410499874998
  N   1.52301343565912     -0.45100228590378      1.06323982683973
  H   2.49543811828019     -0.19929954177764      1.12142086179260
  H   1.23461420806953     -1.37719466715313      1.33904661081873
  C   1.32035411766916      1.42030172581200     -0.34655618699537
  N   1.89354153043983      2.35684904312383     -0.76875652192241
  N   -1.27195771401977      0.72611098234078     -1.13199267479537
  O   -1.67199734587013      0.15726571412859     -2.14401635000659
  O   -1.41964143567755      1.91288525139366     -0.84521987180033
  N   -1.25110115641971     -1.25607342064778      0.29876885418977
  O   -0.59304713427102     -2.09488171606787      0.92506950634472
  O   -2.45618874031566     -1.31211696761228      0.08560047859460
