13
Coordinates from ORCA-job run
  C   0.78033740572472      0.12739698978324      0.09198588746326
  C   -0.54746506265684     -0.07009915797955     -0.15913930851406
  N   1.59964633239643     -0.66041548317367      0.82423823860119
  H   2.49056727189442     -0.28856239783263      1.10849346371097
  H   1.18490676650180     -1.41040249687993      1.35548015108300
  C   1.43520016922265      1.23816177537865     -0.54958769957320
  N   2.05057628058574      2.11351087820102     -1.03848128506908
  N   -1.27358255950771      0.78975785163652     -1.08716782445832
  O   -1.26801499493569      1.99750224598517     -0.85858579401781
  O   -1.81842000441131      0.22013827949692     -2.02861456836521
  N   -1.34223805803019     -1.08969870176785      0.47396627483540
  O   -0.73075336138548     -1.95913123599402      1.10668147848464
  O   -2.56076018539854     -1.00815854685386      0.37173098581921
