13
Coordinates from ORCA-job run
  C   0.77891948741072      0.13173438755063      0.10816328604519
  C   -0.55671496173346     -0.03780891687758     -0.12174769091982
  N   1.56296097171919     -0.59323849284351      0.93796268251680
  H   1.19101259788035     -1.46112966002314      1.29269247294295
  H   2.55991044114239     -0.47555414682345      0.86996113673667
  C   1.44785753836765      1.21418952341725     -0.56535294304110
  N   2.06995971077563      2.05457599172006     -1.10431202176356
  N   -1.27737611191836      0.82838652017766     -1.04729511301011
  O   -1.85705818877695      0.26117401477757     -1.96935495218619
  O   -1.23737478468080      2.03863238620264     -0.83317919673622
  N   -1.35772616713952     -1.05824600916916      0.50464993364698
  O   -0.74948646499050     -1.94709574235586      1.11175398736962
  O   -2.57588406805636     -0.95761985575310      0.42305841839880
