13
Coordinates from ORCA-job run
  C   0.78363330275077      0.13317062723795      0.06445943060126
  C   -0.54701105692412     -0.08610548864134     -0.15296429221256
  N   1.60940938422243     -0.58439087067636      0.85911216624803
  H   1.18933339793653     -1.23754465054379      1.50273687592763
  H   2.51899973721134     -0.20696197444608      1.06551528654500
  C   1.41688029407816      1.21563459522811     -0.64279613215930
  N   2.00453085126200      2.09716283824003     -1.15460329195044
  N   -1.31581903181358      0.77462232147010     -1.04388239368559
  O   -2.29934834761201      1.31751319647363     -0.54839653075010
  O   -0.91259472112368      0.89125425895308     -2.19976525852326
  N   -1.29744810359090     -1.15122356530995      0.46203490105073
  O   -2.40935838687039     -1.40035847917160      0.01252429904480
  O   -0.74220731952656     -1.76177280881378      1.38302493986380
