13
Coordinates from ORCA-job run
  C   0.73876075447807      0.20565540852499      0.19511381214308
  C   -0.50456113386774     -0.13364839485296     -0.25252093176232
  N   1.46649852168913     -0.43335368481917      1.14397795929354
  H   2.26339991092541      0.04890899648970      1.52556163234634
  H   0.97523998746491     -1.07984184663316      1.74286063038222
  C   1.40063523240283      1.33156308705337     -0.40991840036989
  N   2.00194518703627      2.25783577916934     -0.81553266595353
  N   -1.17412978788704      0.63472065572287     -1.29392661040550
  O   -0.55762820745601      0.82508037512067     -2.33966763718422
  O   -2.29903431686071      1.03960970962074     -1.01609874149320
  N   -1.25201931271973     -1.26651614880036      0.24614136932134
  O   -0.87169265102299     -1.75963882778924      1.31321384984693
  O   -2.18841418418240     -1.67137510880679     -0.43220426616481
