13
Coordinates from ORCA-job run
  C   0.73113236023647      0.22508262858057      0.19558793624302
  C   -0.54174282054955     -0.10256189845843     -0.18228523987538
  N   1.54960328957737     -0.49013972379364      0.99587979925048
  H   2.50864571974829     -0.20227234304412      1.09468445442454
  H   1.28081811071189     -1.43029395660635      1.24080997384545
  C   1.28418464334323      1.47147490378720     -0.26784144110321
  N   1.83425739313708      2.45000373295190     -0.62053352731337
  N   -1.30120150070967      0.75588981084499     -1.08364447086150
  O   -1.74281179478526      0.21910748799174     -2.09521601368675
  O   -1.42105252804734      1.93808513229281     -0.76562767762720
  N   -1.22064571833257     -1.30068340533600      0.24031053688055
  O   -0.53375928172481     -2.15728753128555      0.81032263506820
  O   -2.42742787260513     -1.37540483792513      0.04455303475517
