13
Coordinates from ORCA-job run
  C   0.75235803878252      0.18128506764632      0.16572918572047
  C   -0.54565853453770     -0.07758934007098     -0.17416087586223
  N   1.54275830800873     -0.55360566469710      0.97948340401618
  H   2.52422930258065     -0.33578632927230      1.01909391744408
  H   1.22864189346525     -1.47703387939151      1.23583020049531
  C   1.36926088229063      1.37565892987938     -0.35090977198146
  N   1.96265569577019      2.31279888755073     -0.74258546146533
  N   -1.28065236043794      0.80327628060631     -1.07356954341188
  O   -1.33162870064669      1.99584713581607     -0.77846064739137
  O   -1.77427753339299      0.26753681033224     -2.06190917021847
  N   -1.29214877438847     -1.20642316383033      0.32000613293786
  O   -0.64634815138764     -2.09495020781187      0.88839655194886
  O   -2.50919006610652     -1.19101452675698      0.18105607776799
