13
Coordinates from ORCA-job run
  C   0.77478120736270      0.18790186464150      0.12908156316632
  C   -0.53279891411433     -0.09075838981045     -0.13870710834204
  N   1.58321946162663     -0.43132309524059      1.02301938454379
  H   2.57553469351279     -0.27844722378025      0.94845871181451
  H   1.24973087376370     -1.29091318665191      1.43347503687092
  C   1.35741121206783      1.30989529795740     -0.55500423095865
  N   1.89376255901421      2.20663241692725     -1.09599263867383
  N   -1.31564204870246      0.74957709182836     -1.04136337473240
  O   -2.13548750953072      1.48789781072828     -0.50189379481246
  O   -1.10605900301006      0.62139011673454     -2.24542885252516
  N   -1.26304051373696     -1.19904970661168      0.40732414098227
  O   -2.39654813307716     -1.39297299262538     -0.01863151822577
  O   -0.68586388517617     -1.87983000409707      1.26266268089251
