13
Coordinates from ORCA-job run
  C   0.74741001109297      0.17250092538591      0.21464057118620
  C   -0.50325613236098     -0.12832227010143     -0.24256795014688
  N   1.10184053627865      1.20567806363685      1.01135262248481
  H   0.36376794135539      1.72609273992509      1.46030519110610
  H   2.02110103278082      1.20122365592891      1.42031794305306
  C   1.83489746745388     -0.66443331554270     -0.21994523051409
  N   2.76263101265754     -1.32400823620179     -0.51742778563770
  N   -1.68468281721528      0.62873744204985      0.07436876286432
  O   -2.71219821552873      0.36558595421037     -0.53930120751348
  O   -1.56417555917203      1.51710726740421      0.92622329567893
  N   -0.72945292394053     -1.27684865403899     -1.11144748198379
  O   -1.45927814839620     -2.15511763985595     -0.65878988905346
  O   -0.17660420500550     -1.26719593280033     -2.20972884152402
