13
Coordinates from ORCA-job run
  C   0.70662183707384      0.23492649375816      0.26524935731646
  C   -0.48079117225825     -0.14794980789518     -0.29011424903041
  N   1.45878275030660     -0.46548229339478      1.14485010540089
  H   1.03179474266098     -1.26154478097638      1.59363972743773
  H   2.21178416966777      0.01265079927170      1.61072676771331
  C   1.26888431864677      1.49696206238009     -0.13926885158858
  N   1.77953830159942      2.52696314047402     -0.38976139137335
  N   -1.18459702138522      0.71319090693039     -1.23255746776072
  O   -2.33471391653494      1.01472989420278     -0.92561930821163
  O   -0.57148778031674      1.06861693516059     -2.23744671816428
  N   -1.13632439467135     -1.39868011722985     -0.00377595825559
  O   -0.70258117887806     -2.04717036480878      0.95536919010809
  O   -2.04791065591082     -1.74721286787276     -0.74429120359192
