13
Coordinates from ORCA-job run
  C   0.76601444309649      0.18120845120441      0.11783943785827
  C   -0.54896568440673     -0.07688966378785     -0.14792227259330
  N   1.56627065672580     -0.47528023630882      0.98612940895574
  H   1.21691026784234     -1.30997245646681      1.43082106389056
  H   2.55857076245210     -0.31413642631445      0.94641163105553
  C   1.38318497595079      1.31106235421815     -0.52578665376141
  N   1.96570165406321      2.21345455630225     -1.00517310549075
  N   -1.33467314821108      0.79838823983773     -1.00839109780079
  O   -0.92327973929762      0.97886188734405     -2.15230521801886
  O   -2.34727090585440      1.27565473082388     -0.50502848838263
  N   -1.26046060740504     -1.21924989132113      0.36382238418480
  O   -0.70905098670629     -1.86077152301156      1.26628462180368
  O   -2.33295168824957     -1.50233002251986     -0.15770171170083
