13
Coordinates from ORCA-job run
  C   0.75333211048192      0.17979572197252      0.16509449805465
  C   -0.54509749521499     -0.07693340379939     -0.17109168840094
  N   1.54487839321108     -0.55565662476827      0.97602677750068
  H   2.52352517782821     -0.32959152482462      1.02993331599975
  H   1.23153988169988     -1.47571320931379      1.24243520456364
  C   1.36576706650599      1.37685046200449     -0.34930571589260
  N   1.95603516249638      2.31679118732231     -0.73992809386860
  N   -1.27860797317954      0.80077690549384     -1.07585117142764
  O   -1.74836596581526      0.26490178256389     -2.07557645849011
  O   -1.35118580876639      1.99008268648876     -0.77324779849025
  N   -1.29389856535220     -1.20565346383810      0.31892698874637
  O   -2.51092376172170     -1.18517690785636      0.18004656499580
  O   -0.64999822217339     -2.10047361144527      0.87953757670926
