13
Coordinates from ORCA-job run
  C   0.77502865252497      0.14066775871799      0.14546656729574
  C   -0.53847280419927     -0.06751180481699     -0.16363447998846
  N   1.51463691656302     -0.51942577030577      1.06249582803172
  H   2.50884196664035     -0.37023862998167      1.09409629256766
  H   1.11690205158212     -1.33374187529519      1.50326862450021
  C   1.44574880157714      1.22693950532550     -0.51910855410520
  N   2.04038146809512      2.10970198869566     -1.02009163884722
  N   -1.22907168474523      0.79483088609477     -1.11502377113786
  O   -2.09236849759035      1.53238193413717     -0.64713708050467
  O   -0.89375239178732      0.70414673842811     -2.29559157062213
  N   -1.34537266314786     -1.12301204168129      0.38317383070975
  O   -2.47316228414022     -1.26728343463271     -0.07608884756687
  O   -0.82833953137248     -1.82645525468557      1.25817479966734
