13
Coordinates from ORCA-job run
  C   0.77539843766404      0.16837029643918      0.12127397876586
  C   -0.55499645354317     -0.03868350727549     -0.09760417400622
  N   1.57615390920740     -0.48899581222572      0.99222462227410
  H   1.22534708519120     -1.35226141528194      1.37944393189777
  H   2.57064370044855     -0.36530787307120      0.89314812413412
  C   1.41256652193756      1.22938316700210     -0.61355459045123
  N   2.01100066174678      2.04613656311305     -1.21350983353084
  N   -1.29012874408152      0.75391923344216     -1.07845770583070
  O   -1.40418006968257      1.95688433180501     -0.85997648510802
  O   -1.74604276053172      0.12667892652945     -2.03028748101189
  N   -1.32895015581525     -1.07660928423921      0.53077303051958
  O   -2.54559210376603     -1.05339718323202      0.38374993540443
  O   -0.70122002877528     -1.90711744300538      1.19977664694304
