13
Coordinates from ORCA-job run
  C   0.67861358386235      0.27643567505747      0.29461096594325
  C   -0.49109577901152     -0.14637003215772     -0.26901776495449
  N   1.31899359231985     -0.27203280163193      1.35186749021801
  H   2.27273553704696     -0.00037750160776      1.52383959242088
  H   0.98998116856967     -1.16218262176030      1.69383859525920
  C   1.27749444511637      1.48678224356493     -0.20531307485902
  N   1.83535645856273      2.46360680230758     -0.55076992764160
  N   -1.15106488007804      0.62915980385218     -1.31388627319520
  O   -0.49202964718133      0.90605722340372     -2.31412410756182
  O   -2.31610310925480      0.94460461293755     -1.08796306122671
  N   -1.14743412736848     -1.38235237976092      0.07222672704073
  O   -0.76128395894283     -1.95032390150293      1.10024422145445
  O   -2.01616328364093     -1.79400712270188     -0.68655338289766
