15
Coordinates from ORCA-job run
  C   -0.50073453920722     -0.45511188290074      0.39048976324738
  C   0.55745167990447      0.41121694183766     -0.33692795505367
  Cl  0.28293459070710     -1.89626559271416      1.02823642080927
  H   0.00631526631750      1.27020762975284     -0.73143536398056
  N   -1.21246617356478      0.21330501098859      1.42511585286133
  H   -1.76119503460159      0.96236141793742      1.01662334113241
  H   -0.53438249382263      0.60808797152655      2.06776194783482
  N   -1.53884868881393     -0.83637219541394     -0.67438448496828
  O   -1.65609144585690     -1.99479057009901     -1.03326938351709
  O   -2.16506716662370      0.13367859664767     -1.09856783362019
  C   1.14954065315430     -0.31122753128328     -1.47506016898387
  N   1.66674521620493     -0.86864148335371     -2.37106052226272
  N   1.51014390847471      0.89093021820660      0.64687531668064
  H   2.19339335446315      0.17260321714795      0.85584610385925
  H   2.00226087326460      1.70001825171956      0.28975696596128
