15
Coordinates from ORCA-job run
  C   -0.40240753884384     -0.43247368281363      0.37426599517382
  C   0.68623361454562      0.35109667227647     -0.38626125266725
  Cl  0.11122032307832     -2.05319398941678      0.76683271376367
  H   0.22559343133720      1.32404574249497     -0.62346657200990
  N   -0.74407879302957      0.28799927212886      1.55122864660422
  H   -1.27636162328835     -0.28771708137482      2.19176596019863
  H   -1.28419903379841      1.10912742175020      1.29994870498136
  N   -1.61064753863019     -0.50522124177315     -0.61891230491695
  O   -2.18749897611217      0.57418243051839     -0.74753747512797
  O   -1.87039894602572     -1.54408568183803     -1.20188653490448
  C   1.00112274048304     -0.30138966806838     -1.66098181840093
  N   1.27247575150446     -0.78405086895077     -2.69592390204238
  N   1.87159463984034      0.42452537101678      0.44420887130215
  H   1.62165058809701      0.86306618854955      1.32244535982000
  H   2.58570136084226      0.97408911550033     -0.01672639177399
