15
Coordinates from ORCA-job run
  C   -0.51873713797448     -0.39396217645716      0.23231690458734
  C   0.56270589623594      0.53176540144132     -0.34055768044652
  Cl  0.20051785568643     -2.05543311159862      0.43403761427411
  H   0.05480128926116      1.46817753571319     -0.58508713116181
  N   -1.06395676354358      0.16967437103922      1.38631450641488
  H   -0.32378907166750      0.48893212919230      1.99946582354930
  H   -1.71547505315748     -0.45128099547079      1.84798370921238
  N   -1.67245287329890     -0.56877274388520     -0.74947946927639
  O   -2.60701376868499     -1.24795918080747     -0.35025028761645
  O   -1.59563417050986      0.02175527685878     -1.82133687427871
  C   1.16702873427904     -0.00251031294484     -1.57015894997288
  N   1.75528775024190     -0.38716693426632     -2.51107573842698
  N   1.52521870252982      0.79087741369171      0.72244756240522
  H   2.06030456443668      1.62243936861238      0.50553971253688
  H   2.17119404616584      0.01346395888151      0.80084029819963
