15
Coordinates from ORCA-job run
  C   -0.46156920126940     -0.18021596327614      0.47687276154396
  C   0.88806405733162      0.43522100858939      0.01341928282419
  Cl  -0.09168997382842     -1.44339386835371      1.74357748688416
  H   1.19796451981494      1.05840991649880      0.86257224447364
  N   -1.35279911981798      0.81546073918821      0.87857363353783
  H   -0.99680956114485      1.36446596219696      1.64904611610379
  H   -2.27385101239547      0.44904356316381      1.08298071217742
  N   -1.14745683022163     -0.96264767236596     -0.64059669168964
  O   -2.34904647723281     -1.14959938150784     -0.51019766455131
  O   -0.44356836827959     -1.36380864535567     -1.55994257820842
  C   0.60312480894368      1.34226856370577     -1.10834787296726
  N   0.39617922690747      2.06156828824123     -2.01214925759497
  N   1.99734149098864     -0.42030645283911     -0.31620638262467
  H   1.73772951149010     -1.06086573071064     -1.05363314253760
  H   2.29538692871370     -0.94460032717504      0.49503135262887
