15
Coordinates from ORCA-job run
  C   -0.52902639167548      0.07514446260722      0.60380026082650
  C   0.91409303329147      0.11808965027956      0.08376551882111
  Cl  -0.58048816426225      0.42671674036951      2.33854308794265
  H   1.51637398932124     -0.53897377278175      0.71768595184764
  N   -1.35516622971018      0.93733344120176     -0.11676679218763
  H   -1.23195367905913      0.75829776043589     -1.10769533232334
  H   -2.32571952411857      0.84516792977868      0.15257176864358
  N   -0.97976485550324     -1.42279124849378      0.49695887406447
  O   -0.11474347900197     -2.28816579924253      0.59011968772216
  O   -2.17864100135481     -1.60897073422703      0.34228411890145
  C   1.42731235103749      1.48274874120996      0.20863201379009
  N   1.89308058851819      2.55847121013135      0.26693583960350
  N   0.88439345043823     -0.29628501973261     -1.31870281898291
  H   1.11726595323258     -1.27911994266302     -1.38536183641598
  H   1.54398395884640      0.23333658112683     -1.87277034225326
