15
Coordinates from ORCA-job run
  C   -0.55101136536394     -0.39010668687858      0.39224950113165
  C   0.60232914818775      0.33366772347853     -0.34620860385286
  Cl  -0.00467176980501     -1.99371068596865      0.86992159248169
  H   0.19334122648948      1.30528213214912     -0.63935843380922
  N   -1.06989921489000      0.30583804662930      1.51911029820001
  H   -1.49876485782402      1.16959151244228      1.20449242490254
  H   -0.29633753806914      0.52269519856570      2.13809123623093
  N   -1.70031250502092     -0.49534971678870     -0.62046109492744
  O   -2.16605244049185      0.60049860209714     -0.92901966816930
  O   -2.04318829108106     -1.58204881161108     -1.05171595287885
  C   0.98735928665009     -0.38632136118244     -1.57153911231729
  N   1.34159563296834     -0.95293313323349     -2.53818903804713
  N   1.68093457503183      0.55701290075434      0.59832639115917
  H   2.29123732090062      1.29153483623927      0.26301882105017
  H   2.23244079231785     -0.28565055669274      0.70928163884590
