15
Coordinates from ORCA-job run
  C   -0.52315521839711     -0.45868777148826      0.35552926080813
  C   0.57729840878666      0.39613906698848     -0.32115921864942
  Cl  0.07213824513462     -2.10373225854637      0.55039195460179
  H   0.13901904281941      1.39187774890224     -0.43812793934072
  N   -0.98894196774729      0.04423867677838      1.60198338027818
  H   -0.18465228573414      0.18474128407600      2.20377156178872
  H   -1.44994239610520      0.93440764894839      1.44667812601612
  N   -1.72455104835749     -0.43346728436178     -0.60009434291611
  O   -2.07463073971607     -1.44875990788259     -1.17553816911807
  O   -2.22278626500588      0.68568201759728     -0.71096351271238
  C   0.90499204561518     -0.11783034627759     -1.66141552092004
  N   1.21550760952852     -0.51966189923711     -2.72111975404375
  N   1.70288624920554      0.49599182632949      0.58907777277739
  H   2.28208983945808      1.28831182439916      0.34168991668015
  H   2.27272848051517     -0.34025062622564      0.53829648475005
