15
Coordinates from ORCA-job run
  C   -0.51096496658458     -0.20872796121636      0.53487461945334
  C   0.86660645261974      0.30577401134563      0.07614303149326
  Cl  -0.27407202908507     -1.43837547741673      1.83213829186423
  H   1.24145301275571      0.86769816540329      0.94059952024087
  N   -1.34612404443397      0.86784248762618      0.88256969125745
  H   -0.97577084365170      1.38448098167173      1.66977864588120
  H   -2.28554613452789      0.54789976044947      1.08546466705493
  N   -1.23057118040980     -0.94908624756265     -0.59308377405710
  O   -2.42801226677120     -1.13610288471285     -0.43023194294918
  O   -0.56198180222579     -1.30645093287968     -1.55601805446787
  C   0.66772376179845      1.27516070924148     -1.02117021733350
  N   0.60497743260818      2.02843969821708     -1.92038827597779
  N   1.82551322956210     -0.73620907589555     -0.20241208889203
  H   2.76167478593198     -0.35420890222186     -0.19140946829859
  H   1.64409459241387     -1.14713433204916     -1.10785464526919
