15
Coordinates from ORCA-job run
  C   -0.54137486449825     -0.20810797704835      0.64964823795341
  C   0.83995139116556      0.27871097279502      0.12715590102861
  Cl  -0.29431105715707     -1.01230270664187      2.18953829117330
  H   1.34020954608885      0.70383178550334      1.00253027330464
  N   -1.57827520831026      0.76095314515087      0.77334954609481
  H   -1.48114860130794      1.30741363320113      1.61747070014866
  H   -1.62409461231077      1.36018236422392     -0.04290206492194
  N   -1.06297281513751     -1.22110822462109     -0.38408132773370
  O   -1.03123796886318     -0.77468688414793     -1.53056171124796
  O   -1.49277299583842     -2.30255771895429     -0.03259599645110
  C   0.67946984473373      1.37979483069955     -0.84030238800582
  N   0.59223167095073      2.26545774004555     -1.60763463224705
  N   1.62245218971430     -0.84177300841692     -0.34692713606433
  H   2.61206111110175     -0.65963092104673     -0.25225965654399
  H   1.41781236966848     -1.03517703074218     -1.31942803648755
