15
Coordinates from ORCA-job run
  C   -0.50245923837033     -0.07386198999162      0.63449954134331
  C   0.95750104798913      0.11475645404938      0.10912604705700
  Cl  -0.47617060697713      0.07574844913700      2.40033231646200
  H   1.60778074831271     -0.51693778100456      0.72003151144355
  N   -1.51503155161696      0.75151859133381      0.10220012779832
  H   -1.31960920480985      1.73274151518137      0.24737778098591
  H   -1.74099819130199      0.53241581934495     -0.85689581866677
  N   -0.82625860705258     -1.52622207151084      0.26505183257156
  O   -1.68507789806894     -1.70927080698914     -0.59001531702316
  O   -0.12187855218610     -2.38237863192965      0.78331921085353
  C   1.30765472982777      1.52296428596989      0.32525017876592
  N   1.52136336227420      2.66853941973585      0.46723713293820
  N   1.15895560214565     -0.22626670213638     -1.27802912801154
  H   1.10959598239242     -1.22385928793260     -1.43398294188705
  H   0.52363237744198      0.26111273674254     -1.89550247463076
