15
Coordinates from ORCA-job run
  C   -0.50041853745340     -0.35691740263096      0.36759684280632
  C   0.69684297063315      0.35172332525914     -0.29173529209403
  Cl  -0.22081185370405     -2.09534753621047      0.47662637741693
  H   0.38965471645895      1.39315278774050     -0.43480419042959
  N   -0.77761475151657      0.16992321863004      1.63600586779172
  H   -0.79636045223515      1.18024707442091      1.63285739209268
  H   -1.61948474846571     -0.21572547747384      2.04273990741375
  N   -1.68831921419422     -0.11984819963133     -0.64053298210133
  O   -2.19650497326619     -1.05104097088205     -1.24236671207644
  O   -2.00899959778663      1.06472395976226     -0.71135260121646
  C   0.92742080987800     -0.22252095093870     -1.63338496829587
  N   1.19125973944404     -0.65348993088101     -2.69416434816836
  N   1.84633384312428      0.33444733271158      0.58616248281642
  H   2.61170640773901      0.83860247437542      0.15504488098677
  H   2.14729564134452     -0.61892970425151      0.75130734305749
