15
Coordinates from ORCA-job run
  C   -0.51964721545435     -0.34279136664581      0.30121632136502
  C   0.56331266480946      0.46187349508378     -0.42936898536389
  Cl  0.16987091520054     -1.97521565516688      0.72337891564592
  H   0.06842085864380      1.36564740151220     -0.79384126769233
  N   -1.01761613933965      0.39611493458933      1.37488116540087
  H   -0.25273101846912      0.78079758402307      1.91591523809825
  H   -1.66853635185801     -0.13475666121608      1.93857413535097
  N   -1.70611012825576     -0.62862936430920     -0.61322965038962
  O   -1.64916760571250     -0.20228508499650     -1.76145749087256
  O   -2.64255469312211     -1.21834759291246     -0.09419218865847
  C   1.11879054113173     -0.26012434249308     -1.58374976315597
  N   1.66966959967565     -0.78828395510956     -2.47644497324682
  N   1.56300310008662      0.84748720218909      0.55854172494964
  H   2.10925153532943      1.62438867239369      0.20817273127238
  H   2.19404393733424      0.07312473305845      0.73160408729662
