15
Coordinates from ORCA-job run
  C   -0.52789236356928     -0.19563918308654      0.62092208617073
  C   0.82108297769854      0.30013045969499      0.03577426718310
  Cl  -0.15932391035553     -1.09332952844778      2.09596442406599
  H   1.31346691133570      0.82879902325744      0.86804337061796
  N   -1.52032305483904      0.78274750994989      0.90219965309789
  H   -1.74284890842437      1.31667041052061      0.07045107727038
  H   -1.23899329455927      1.38910198688331      1.66068576690461
  N   -1.13186708499598     -1.13646293266567     -0.43110926043300
  O   -1.10829236769438     -2.34102253492065     -0.26002822127186
  O   -1.57845063862942     -0.53187256292823     -1.40065247518308
  C   0.58795052922225      1.29635350661611     -1.01465453979793
  N   0.45665782603357      2.11526449962831     -1.84554529786821
  N   1.56753200723198     -0.81949922195573     -0.50780094780915
  H   1.89328860202107     -1.41676134624825      0.24245695650836
  H   2.36701276952416     -0.49548008629782     -1.03670685945576
