15
Coordinates from ORCA-job run
  C   -0.65231197236349     -0.06508676866256      0.55883675012393
  C   0.85213119456416      0.05743614574293      0.21193181845670
  Cl  -0.86521069390601      0.20460552704088      2.29555061161791
  H   1.40052340883401     -0.62386278439509      0.86602485718239
  N   -1.55204866336452      0.73917227310517     -0.16761802027202
  H   -1.41654535234593      1.72131670592124      0.03284427244130
  H   -1.49450573568120      0.54119869872662     -1.15828192044339
  N   -0.97556483963293     -1.54264771349741      0.25699150292043
  O   -1.89318328632438     -1.77903093776699     -0.51173994131883
  O   -0.24417480531731     -2.36155203198249      0.80034478048894
  C   1.28267411458623      1.43405967359369      0.47023709794524
  N   1.60215872799139      2.55686493085334      0.60119461516852
  N   1.00549397355769     -0.32634678202265     -1.18504022935326
  H   1.21790843134722      0.46385041815956     -1.77801357922253
  H   1.73265549805509     -1.01897735481623     -1.29326261573534
