15
Coordinates from ORCA-job run
  C   -0.49623202122933     -0.41923573511210      0.43315432392743
  C   0.55640050359249      0.37727760685749     -0.37735440378664
  Cl  0.27795955296717     -1.83471383969817      1.13674283857528
  H   0.01062497510171      1.22144724676211     -0.80944327169268
  N   -1.16293521432456      0.32677249124990      1.44423851802781
  H   -1.70967480812129      1.06047515717327      1.00637884070691
  H   -0.45870410361514      0.74596782114092      2.04162208117748
  N   -1.57359747134056     -0.84374073879684     -0.57529314534387
  O   -2.19392048486713      0.11115878629567     -1.04055471588767
  O   -1.72302689805068     -2.01924451866556     -0.85839039353925
  C   1.09751102491236     -0.42685324242955     -1.48570572848278
  N   1.56156373287603     -1.04473227248856     -2.37102164574266
  N   1.54720022660660      0.89705826686356      0.54665148778515
  H   2.04596693298231      1.67006483577273      0.12469310968161
  H   2.22086405251000      0.17829813507515      0.78328210459390
