15
Coordinates from ORCA-job run
  C   -0.50802733770206     -0.19148786573155      0.63485318329554
  C   0.82091204456872      0.30578092927379      0.00622311136116
  Cl  -0.09362851037447     -1.06424980967050      2.11255915351386
  H   1.33217578461034      0.85058830718349      0.81635450599153
  N   -1.50043107419186      0.78311976306031      0.92835692923435
  H   -1.20563415855135      1.39901619488615      1.67391721031957
  H   -1.74536831238356      1.30720640691622      0.09664666564366
  N   -1.13151946029905     -1.15295850796335     -0.38716770353431
  O   -1.61219196410675     -0.56643125152771     -1.35140330672060
  O   -1.09085594207957     -2.35470566629937     -0.19997180663724
  C   0.54919525352895      1.28573630578235     -1.05036160439739
  N   0.37454698838122      2.11409627630549     -1.86385962152378
  N   1.56098387804613     -0.81601851226269     -0.54189983798838
  H   1.89890278966139     -1.40789038445500      0.20739014445832
  H   2.35294002089192     -0.49280218549763     -1.08263702301627
