15
Coordinates from ORCA-job run
  C   -0.44824228222153     -0.17561581214442      0.49015632721318
  C   0.89638784896311      0.42025317326104     -0.01213353823766
  Cl  -0.05956190161894     -1.45316267589763      1.73616916667708
  H   1.24413366830778      1.03100423443471      0.83140760184298
  N   -1.30955071004068      0.83211257418328      0.92670761692003
  H   -2.22940610373893      0.47813104059861      1.15720461231917
  H   -0.92083744157421      1.36700798171875      1.69136049080127
  N   -1.18265197775472     -0.93830358503564     -0.60990035869078
  O   -0.51703803224171     -1.34006697567135     -1.55699293054848
  O   -2.38141216067802     -1.11058484351055     -0.43887205146326
  C   0.59118107454108      1.34119401708485     -1.11703399028005
  N   0.36034564278081      2.07158886671512     -2.00601404982754
  N   1.97879771004554     -0.45194445867137     -0.38390592563161
  H   2.29224521480673     -0.99045035294722      0.41200863741405
  H   1.68560945042364     -1.07916318411821     -1.12016160850838
