15
Coordinates from ORCA-job run
  C   -0.47933953117808      0.04312934715554      0.57265706977665
  C   0.99163949363413      0.14378834731789      0.11220366368665
  Cl  -0.60774619859887      0.37325563425300      2.30446956821635
  H   1.57052394486316     -0.51325828138868      0.76491441288051
  N   -1.33067436862747      0.89315818380864     -0.14796574570917
  H   -1.33178526526547      0.65018717651980     -1.13069530938703
  H   -2.28023476319531      0.85281281987785      0.19936792945997
  N   -0.87110214174986     -1.46784859177715      0.42269945407398
  O   -2.00213449406316     -1.69721857502141      0.01195476731809
  O   -0.02343909800629     -2.30024486021164      0.72385635168559
  C   1.44603101002490      1.52303984077646      0.32003124787648
  N   1.83023630273550      2.62247061101735      0.46145607580866
  N   1.24099983046317     -0.24784057094438     -1.25472116655636
  H   1.04741996383972     -1.22456546764999     -1.42299702941810
  H   0.79960531512389      0.35013438626671     -1.93823128971230
