15
Coordinates from ORCA-job run
  C   -0.52587145137576     -0.20256367038758      0.66180265304837
  C   0.84831444570389      0.26362964810381      0.10337899932623
  Cl  -0.24978390432924     -1.02009314071811      2.18976216878244
  H   1.37885168539351      0.67695625665550      0.96651337327434
  N   -1.54159817260996      0.78364478004101      0.81964048950155
  H   -1.59324795175488      1.39590578263481      0.01353845939875
  H   -1.41971691143765      1.31479529233741      1.67017040568217
  N   -1.09427567195646     -1.20114102375524     -0.36175615727940
  O   -1.54378717295534     -2.27157604270025     -0.00126398916830
  O   -1.07807741761937     -0.75393720664438     -1.50821189145144
  C   0.67967058309980      1.37132822889079     -0.85504729779258
  N   0.58328410190943      2.26409378279684     -1.61299108949085
  N   1.59950547375120     -0.86755522279149     -0.39538040358995
  H   2.59406968160846     -0.70098477599012     -0.32787803516576
  H   1.36466268257239     -1.05450268847300     -1.36227768507557
