15
Coordinates from ORCA-job run
  C   -0.35267855308701     -0.57921153120049      0.17095842162332
  C   0.50554588313526      0.64195829968735     -0.28301344155420
  Cl  0.59895298707824     -2.04822161980183      0.04790070651046
  H   -0.16760542491245      1.50441065663154     -0.22156143865878
  N   -0.91625887053095     -0.48609259824872      1.47758917453025
  H   -0.22369196856916     -0.63842928302425      2.19634555750102
  H   -1.40516891022632      0.39085007438743      1.60540404848731
  N   -1.54983957193695     -0.62727662043045     -0.78986632269906
  O   -2.29131785855693      0.34515641465771     -0.65746265935695
  O   -1.67514937935330     -1.54349380094019     -1.58297166316922
  C   0.89617962551274      0.48320205505814     -1.68838152304319
  N   1.20637221224997      0.34051509404744     -2.81162241026577
  N   1.66877519381801      0.91626952760071      0.52393965352093
  H   1.40647305733926      1.17517008113946      1.46542074857115
  H   2.29841157803959      0.12419325043613      0.54632114800274
