15
Coordinates from ORCA-job run
  C   -0.56882476377807     -0.12085979472696      0.50207975066289
  C   0.88010680086260      0.24547375064778      0.12796398200866
  Cl  -0.54220847197612     -1.24938738292868      1.90930045897527
  H   1.22602181157812      0.85333386771069      0.97307651035732
  N   -1.33684675594566      1.04152447468316      0.68802861807758
  H   -0.99351853423312      1.59293658681872      1.46373949937334
  H   -2.31421901395285      0.81413643604140      0.82567114672873
  N   -1.25196508624682     -0.90046425086720     -0.62203510263685
  O   -0.53667604923337     -1.40144278189866     -1.48190127650602
  O   -2.47103368866042     -0.97275365943959     -0.55872557605846
  C   0.85217832318190      1.12395803773533     -1.05958225064899
  N   0.92310169079107      1.79513865449617     -2.02107616081669
  N   1.77031515320852     -0.88574290345306      0.02371997933036
  H   2.73029149106582     -0.57432346939140      0.08684852770416
  H   1.63127709333840     -1.36152756542770     -0.85710810655132
