15
Coordinates from ORCA-job run
  C   -0.58012780031806     -0.27563355380179      0.25563379419599
  C   0.65172592036005      0.37164592221030     -0.39117747900483
  Cl  -0.05914673243820     -1.83538969273880      1.03988363942239
  H   0.27419285877724      1.21693776655753     -0.97210818483094
  N   -1.21086123954151      0.63994480926331      1.09838092464424
  H   -1.97561016836398      0.22513888792626      1.61443027732920
  H   -0.52829511934355      1.08682596863830      1.69842774211111
  N   -1.60998534220874     -0.67502715829749     -0.79564451426248
  O   -1.33932367128737     -0.43996325727692     -1.96823002340019
  O   -2.64981184659944     -1.14975178149148     -0.36262702819598
  C   1.35271852429676     -0.54260002768970     -1.30500707204256
  N   2.01332162621624     -1.22785017893930     -1.99301522679066
  N   1.49080739144959      0.88619177720008      0.68364416522802
  H   2.12670441339273      1.58381522516418      0.31804463795478
  H   2.04369118560827      0.13471529327555      1.08036434764191
