15
Coordinates from ORCA-job run
  C   -0.45956392026363     -0.07263507071964      0.50267019343546
  C   1.00852833101232      0.14157337188614      0.07246633170042
  Cl  -0.57135768442045      0.12188382789355      2.30534811670651
  H   1.63889397410751     -0.46737200405824      0.72284189465537
  N   -1.33677063969424      0.71917865132939     -0.24945804731802
  H   -1.20415758394546      1.70410446149478     -0.05327272155819
  H   -2.30238150053571      0.45227726077499     -0.10461417216950
  N   -0.82916754410684     -1.53648033080282      0.26436854751405
  O   -2.00420847229236     -1.77403815314790      0.01771366022706
  O   0.07168661363770     -2.35854065822056      0.37868044068186
  C   1.31522295893846      1.56040313901970      0.30786238168215
  N   1.50397714048525      2.70809783574170      0.46676460828625
  N   1.28206136276588     -0.19562648006963     -1.30320128945637
  H   1.31484790547258     -1.19952842817153     -1.41727307930210
  H   0.57338905883898      0.19670257705009     -1.91089686508492
