15
Coordinates from ORCA-job run
  C   -0.55930739348830     -0.04263034761073      0.58808689301631
  C   0.94249408945777      0.13562584786624      0.19193032811448
  Cl  -0.70192398548135      0.21557378311772      2.33596308882665
  H   1.53767573101962     -0.44718561779285      0.89979166696093
  N   -1.52311289409507      0.73330713062783     -0.08856288891090
  H   -1.34939877126064      1.72450146500704      0.00746346210926
  H   -1.66254003862570      0.44648139831696     -1.04604286792798
  N   -0.83383454774117     -1.51953303577243      0.28175862466752
  O   -1.60786029411501     -1.76802364040706     -0.63543493481349
  O   -0.17323415830994     -2.33177062372688      0.91577888440766
  C   1.25638962625747      1.55994551867788      0.35148300107635
  N   1.44548495867542      2.71511722433493      0.43981431242420
  N   1.27737235957148     -0.28576411317695     -1.14607547019587
  H   1.25089910362400     -1.29147180832018     -1.24515886866656
  H   0.70089621451144      0.15582681885852     -1.84979523108855
