15
Coordinates from ORCA-job run
  C   -0.56131969662701     -0.22490271157646      0.63409493898756
  C   0.83459543342077      0.26026377565780      0.15020566105585
  Cl  -0.34509928977906     -1.27532322611899      2.02618322202965
  H   1.22490946607612      0.84502008043524      0.99065124170848
  N   -1.49439747055703      0.79457125694048      0.95262619105330
  H   -1.19790604916977      1.32373629405549      1.76088484964783
  H   -1.69281894685115      1.39359818238829      0.16200106221633
  N   -1.15767017657318     -1.03340571372113     -0.53461764502143
  O   -0.72173832449983     -2.16257330550805     -0.71935945233968
  O   -1.96259617488110     -0.43648004573073     -1.24030914323037
  C   0.62057197089332      1.19535182110923     -0.97696081527964
  N   0.49484981738613      1.91178099573562     -1.90053062515180
  N   1.76786364443580     -0.80722945410570     -0.11509348671518
  H   1.49524404130492     -1.35289611600690     -0.92253469920946
  H   2.69451175542110     -0.43151183355419     -0.26924129975145
