17

C	0.0	0.0	0.0
C	-0.20333	-0.021298	-1.555368
F	1.394365	0.0	0.0
H	0.310047	-0.927178	-1.886339
C	-0.581746	1.186332	0.709845
H	-1.672245	1.139498	0.614334
H	-0.218038	2.114909	0.275797
H	-0.298545	1.138606	1.765193
N	-0.512481	-1.222269	0.481511
H	-1.012808	-1.144188	1.350387
H	0.158156	-1.972663	0.469374
N	0.577996	1.100426	-2.205601
O	0.143881	2.239676	-2.072784
O	1.592293	0.790463	-2.822684
C	-1.525198	-0.004191	-2.164537
N	-2.411326	0.010801	-2.934131
Br	-4.171228	0.0	0.0
