17

C	0.0	0.0	0.0
C	-0.497179	-0.159481	-1.451331
F	1.38264	0.0	0.0
H	-1.597276	-0.159733	-1.421581
C	-0.426695	1.350017	0.55143
H	-1.515015	1.418746	0.541404
H	-0.067988	1.417906	1.582432
H	0.017177	2.165682	-0.022939
N	-0.454559	-1.147975	0.725283
H	-0.233854	-1.00934	1.705445
H	-1.474367	-1.174293	0.647652
N	-0.055224	-1.494639	-1.988091
O	-0.884048	-2.396234	-1.972541
O	1.105616	-1.582406	-2.380687
C	0.023297	0.88706	-2.320713
N	0.411944	1.746661	-3.0198
Br	-3.752753	0.0	0.0
