17

C	0.0	0.0	0.0
C	-0.177432	0.141699	-1.568189
F	1.385959	0.0	0.0
H	0.248112	-0.779022	-1.975867
C	-0.492194	1.169588	0.810673
H	-0.021588	2.091429	0.47475
H	-0.225762	0.978717	1.852493
H	-1.578102	1.242045	0.721197
N	-0.523381	-1.215675	0.499588
H	-1.532928	-1.097392	0.623145
H	-0.366178	-1.984871	-0.141624
N	0.75988	1.217218	-2.082342
O	0.462954	2.383502	-1.849496
O	1.758445	0.841188	-2.692284
C	-1.454821	0.391371	-2.225967
N	-2.29407	0.598192	-3.024597
Br	-3.839204	0.0	0.0
