11
Coordinates from ORCA-job run
  C   -0.36073968447852      0.51404221164536      0.22055757550271
  C   0.69153439302476     -0.43863376090222     -0.32046293825225
  F   0.02822368671019      1.03753725963510      1.40071807350659
  H   0.32214536795613     -0.90592647653161     -1.23540459961093
  H   -0.61762884180750      1.31357205597354     -0.47541888633613
  H   0.86945304849411     -1.21990566527403      0.42471403148384
  N   -1.63311339733040     -0.28174911318053      0.42703174842527
  O   -2.01613389987713     -0.47398916908481      1.57058162949992
  O   -2.15156921380659     -0.67615052524994     -0.61237927176391
  C   1.93748813568147      0.27332906274641     -0.58906653315426
  N   2.93034040543348      0.85687412022273     -0.81087082930085
