11
Coordinates from ORCA-job run
  C   -0.51819136351956      0.65616563843758      0.03623443067534
  C   0.96407877496315      0.33984890570005      0.07379583216013
  F   -0.78490174450920      1.61401840120287      0.96064846276555
  H   1.51835972244343      1.25956164746119     -0.12995748861309
  H   -0.88963203471431      0.96427586035472     -0.94015817856475
  H   1.21242261639119      0.00417405872860      1.08377265274176
  N   -1.29187186598854     -0.58231876327630      0.41530755114776
  O   -1.96927241621036     -1.09660830285767     -0.46955336883660
  O   -1.15340465756003     -0.97181253136655      1.56892309769294
  C   1.31913350020509     -0.68450708379974     -0.90340378458562
  N   1.59427946849915     -1.50379783058476     -1.69660920658343
