11
Coordinates from ORCA-job run
  C   -0.47139850136560      0.44746737087461      0.14434742855756
  C   0.77195659526044     -0.31665506642615     -0.27723569608201
  F   -0.20143646683333      1.26779493495142      1.17984571198262
  H   1.14797624890917     -0.87246096509276      0.58710990287427
  H   -0.92778342405915      1.01221859193383     -0.66950219615908
  H   0.51193187949037     -1.02791402553152     -1.06365550119875
  N   -1.50738961849095     -0.57016348287283      0.57575430331936
  O   -1.93207956712568     -1.27060030213953     -0.33739408449690
  O   -1.81178546608582     -0.62071001112007      1.75736332520609
  C   1.80164234709586      0.60251884271860     -0.75287410303577
  N   2.61836597320469      1.34850411270441     -1.14275909096740
