11
Coordinates from ORCA-job run
  C   -0.43217880327738      0.47823092467834      0.16718667768693
  C   0.73597321210542     -0.36760027694077     -0.30975397483266
  F   -0.06603336239813      1.25927528359716      1.20358095961513
  H   0.39731545898694     -1.04443302021139     -1.09669503789696
  H   -0.87419297868446      1.08852612753284     -0.62126369116194
  H   1.09979812450338     -0.96392681125537      0.53255316161437
  N   -1.52402304335180     -0.46803721817335      0.62191566488844
  O   -2.03038429694093     -1.12109772039323     -0.28470853364535
  O   -1.78916449822101     -0.51594507543659      1.81302614626050
  C   1.81347163811648      0.48193337341772     -0.80863038249684
  N   2.66841854916149      1.17307441318464     -1.21721099003162
