11
Coordinates from ORCA-job run
  C   -0.60064281706423      0.56303213297703     -0.14889233501227
  C   0.90987905344017      0.43642403716718     -0.17993317377779
  F   -0.92814578822460      1.77300011941101      0.37271662083691
  H   1.31212776445607      1.25566362193045     -0.78128730571006
  H   -1.08459856798675      0.42859161060514     -1.11527866986892
  H   1.27937728486596      0.54577004870459      0.84273012837895
  N   -1.16198953696578     -0.50108181196762      0.76102013839744
  O   -0.88380684356667     -0.39477923264462      1.94972919028111
  O   -1.82614499962442     -1.38423882553363      0.22645436370874
  C   1.32879845592902     -0.84586922773545     -0.73710743692497
  N   1.65514599474122     -1.87751247291407     -1.19015152030914
