19

C	0.0	0.0	0.0
C	-0.448839	0.529602	-1.399638
Cl	1.785599	0.0	0.0
H	0.268512	1.320139	-1.638693
N	-0.341329	1.080855	1.03412
O	-0.103389	2.241014	0.710524
O	-0.792805	0.725241	2.116866
C	-0.594817	-1.310752	0.427327
H	-0.281135	-1.571269	1.436464
H	-0.277594	-2.094011	-0.260704
H	-1.686632	-1.21881	0.406773
N	-1.760585	1.109483	-1.478091
H	-1.828945	1.943515	-0.911233
H	-2.52386	0.496555	-1.188736
C	-0.334733	-0.580749	-2.438305
H	0.626234	-1.099835	-2.400008
H	-1.141299	-1.304602	-2.303631
H	-0.458638	-0.132229	-3.424901
Br	-4.552276	0.0	0.0
