19

C	0.0	0.0	0.0
C	-0.44691	0.041312	-1.496583
Cl	1.782097	0.0	0.0
H	0.280661	0.695048	-1.986486
N	-0.310197	1.370126	0.633866
O	-0.189732	2.353578	-0.089533
O	-0.593434	1.401978	1.824938
C	-0.618974	-1.079231	0.838097
H	-0.31681	-0.991271	1.879273
H	-1.705554	-0.955398	0.766137
H	-0.333432	-2.056991	0.45269
N	-1.751417	0.569586	-1.779704
H	-2.51695	0.090164	-1.307219
H	-1.823096	1.544392	-1.525507
C	-0.341029	-1.357103	-2.098416
H	0.612821	-1.842364	-1.87774
H	-0.454716	-1.267315	-3.179996
H	-1.158111	-1.982985	-1.733243
Br	-4.502008	0.0	0.0
