19

C	0.0	0.0	0.0
C	-0.489328	-0.153623	-1.449662
Cl	1.780587	0.0	0.0
H	-0.128885	-1.166768	-1.706521
N	-0.36969	1.356103	0.622497
O	-0.128324	2.362153	-0.029387
O	-0.831079	1.33467	1.759635
C	-0.519859	-1.105885	0.888268
H	-1.600398	-1.012658	1.004592
H	-0.05645	-1.054797	1.872178
H	-0.282115	-2.065717	0.426623
N	0.045292	0.855482	-2.358259
H	-0.218681	0.586819	-3.299938
H	1.05817	0.88339	-2.311817
C	-2.006187	-0.133202	-1.531747
H	-2.311284	-0.184676	-2.581836
H	-2.491671	-0.958719	-1.017508
H	-2.431919	0.782947	-1.121876
Br	-5.149065	0.0	0.0
