13

C	-0.127491	-0.007999	-1.504169
C	0.0	0.0	0.0
Br	-1.956083	0.431547	-2.13262
H	1.093482	0.0	0.0
H	0.048892	-1.01668	-1.870936
H	-0.402724	0.894353	0.471998
N	0.831506	0.897116	-2.108191
H	1.712634	0.661707	-1.615758
H	0.599758	1.839627	-1.806945
N	-0.565292	-1.165648	0.676071
O	-1.000694	-1.008664	1.820032
O	-0.543958	-2.252042	0.093301
F	2.602875	0.0	0.0
