13

C	-0.467575	-0.030823	-1.406588
C	0.0	0.0	0.0
Br	-2.653009	0.058252	-1.396766
H	1.092281	0.0	0.0
H	-0.378981	-1.006035	-1.869599
H	-0.360807	0.873908	0.542565
N	0.046327	0.988915	-2.18065
H	-0.33735	1.036416	-3.11113
H	0.058495	1.889484	-1.724586
N	-0.445477	-1.174366	0.748476
O	-0.467194	-2.262385	0.169294
O	-0.709721	-1.024558	1.942912
F	2.510973	0.0	0.0
