13

C	-0.261451	-0.001295	-1.497383
C	0.0	0.0	0.0
Br	0.109058	1.772554	-2.277042
H	1.086881	0.0	0.0
H	-1.286161	-0.220949	-1.803149
H	-0.318676	-0.967509	0.404861
N	0.679631	-0.929308	-2.096309
H	1.572598	-0.762156	-1.605982
H	0.376884	-1.870054	-1.859388
N	-0.669027	1.007199	0.838442
O	-0.309012	1.073584	2.014441
O	-1.583451	1.682804	0.356884
F	2.610502	0.0	0.0
