13

C	-0.52991	0.200653	-1.390919
C	0.0	0.0	0.0
Br	0.191268	-1.239063	-2.629677
H	1.087835	0.0	0.0
H	-0.017392	1.078091	-1.784371
H	-0.296159	0.868892	0.597711
N	-1.938232	0.355699	-1.501427
H	-2.38374	-0.490611	-1.170578
H	-2.206009	0.511565	-2.464619
N	-0.555991	-1.157173	0.715895
O	-0.191298	-1.315044	1.87973
O	-1.353916	-1.914642	0.143732
F	2.54467	0.0	0.0
