13

C	-0.09568	-0.006809	-1.516489
C	0.0	0.0	0.0
Br	-1.925215	0.348346	-2.199704
H	1.093335	0.0	0.0
H	0.091095	-1.040966	-1.812757
H	-0.464582	-0.855477	0.483214
N	0.867617	0.834321	-2.185172
H	0.661187	1.788499	-1.905449
H	1.741465	0.600684	-1.683672
N	-0.507896	1.204229	0.651433
O	-0.31646	2.296156	0.108744
O	-1.078665	1.073144	1.738288
F	2.5975	0.0	0.0
