13

C	-0.501724	0.014025	-1.42013
C	0.0	0.0	0.0
Br	0.164358	-1.711938	-2.259194
H	1.08883	0.0	0.0
H	0.01299	0.776681	-1.998079
H	-0.40857	-0.830871	0.576199
N	-1.907439	0.150732	-1.535514
H	-2.379313	-0.598332	-1.044836
H	-2.205837	0.149434	-2.502138
N	-0.439008	1.236429	0.665311
O	-0.865872	1.15808	1.821398
O	-0.304641	2.297591	0.053502
F	2.548574	0.0	0.0
