12

C	0.0	0.0	0.0
C	-0.416211	-0.048844	-1.459139
F	1.377616	0.0	0.0
H	-1.505471	-0.114285	-1.547082
H	-0.388646	0.923976	0.430208
H	-0.04158	0.843678	-1.951285
C	-0.416349	-1.145987	0.820417
N	-0.591564	-2.051806	1.54874
N	0.202101	-1.183648	-2.198059
O	0.393138	-1.008207	-3.400127
O	0.459209	-2.215206	-1.590865
Br	-3.468076	0.0	0.0
