12

C	0.0	0.0	0.0
C	-0.474619	-0.037194	-1.436729
F	1.377849	0.0	0.0
H	-1.560908	-0.193591	-1.450626
H	-0.36991	0.921122	0.45505
H	-0.213468	0.890149	-1.943174
C	-0.421234	-1.136792	0.837009
N	-0.589851	-2.01922	1.591687
N	0.190959	-1.119425	-2.21049
O	0.495648	-0.861763	-3.375389
O	0.361632	-2.203552	-1.660758
Br	-3.511836	0.0	0.0
