15

C	-0.307476	-0.097167	-1.460955
C	0.0	0.0	0.0
Br	-2.184614	-0.417191	-1.949255
H	1.102706	0.0	0.0
H	0.22593	-0.971678	-1.832878
N	0.236461	1.038489	-2.308705
O	0.132257	0.894708	-3.524098
O	0.805382	1.959204	-1.742403
N	-0.369181	-1.167998	0.742726
H	-1.133696	-1.688468	0.336803
H	0.450245	-1.742932	0.875155
N	-0.581317	1.20767	0.64866
O	-0.289785	1.391854	1.825517
O	-1.314606	1.94909	-0.013622
F	2.50573	0.0	0.0
