15

C	-0.604062	0.208612	-1.384816
C	0.0	0.0	0.0
Br	0.542812	1.190232	-2.594551
H	1.095517	0.0	0.0
H	-1.556387	0.732497	-1.373593
N	-0.905732	-1.14238	-1.972537
O	-2.085436	-1.485747	-1.885738
O	0.001749	-1.808491	-2.442813
N	-0.355564	-1.261165	0.573254
H	0.418234	-1.560932	1.150103
H	-1.194629	-1.216447	1.135999
N	-0.40985	1.152858	0.852099
O	-0.678312	2.226269	0.304973
O	-0.411365	0.982841	2.073475
F	2.491497	0.0	0.0
