15

C	-0.552785	0.206807	-1.415026
C	0.0	0.0	0.0
Br	0.59498	1.270654	-2.546321
H	1.095878	0.0	0.0
H	-1.530888	0.677606	-1.433205
N	-0.755038	-1.14667	-2.034643
O	0.186152	-1.738	-2.541967
O	-1.898432	-1.598609	-1.90768
N	-0.371081	-1.209052	0.654463
H	-1.208888	-1.661493	0.320127
H	0.421934	-1.831947	0.674886
N	-0.442723	1.17896	0.823574
O	-0.238112	1.130428	2.030416
O	-0.930035	2.157611	0.241904
F	2.506539	0.0	0.0
