15

C	-0.34319	0.138688	-1.468404
C	0.0	0.0	0.0
Br	0.101832	-1.485509	-2.428313
H	1.103639	0.0	0.0
H	0.212007	0.942066	-1.939423
N	-1.797171	0.413058	-1.756006
O	-2.058513	1.122891	-2.72112
O	-2.625061	-0.108481	-1.011802
N	-0.446032	-1.13171	0.723519
H	-1.292717	-1.546689	0.36813
H	0.306514	-1.798569	0.801222
N	-0.431348	1.274462	0.658039
O	-0.623468	2.249924	-0.084087
O	-0.50468	1.317967	1.878715
F	2.511589	0.0	0.0
