15

C	-0.555654	0.095875	-1.420723
C	0.0	0.0	0.0
Br	0.484697	1.241389	-2.576501
H	1.099331	0.0	0.0
H	-1.581179	0.451654	-1.464672
N	-0.593412	-1.293142	-1.993774
O	0.423706	-1.797558	-2.443838
O	-1.689529	-1.855867	-1.897981
N	-0.378355	-1.1668	0.732637
H	0.422337	-1.776595	0.808398
H	-1.193771	-1.654755	0.391886
N	-0.465362	1.218256	0.747807
O	-0.147041	1.295635	1.927827
O	-1.105452	2.089581	0.142599
F	2.510111	0.0	0.0
