18

C	0.0	0.0	0.0
C	-0.339011	-0.05847	-1.464332
F	1.371019	0.0	0.0
H	0.257193	0.729743	-1.92535
N	-0.52612	1.25082	0.625396
O	-0.563118	2.252266	-0.106109
O	-0.608586	1.275033	1.866792
C	-0.300423	-1.204591	0.888608
H	0.144393	-2.08918	0.425145
H	0.204202	-1.034431	1.839974
H	-1.364087	-1.344643	1.027237
C	-1.767148	0.241698	-1.739482
N	-2.453269	0.493178	-2.697709
C	0.074236	-1.394584	-2.103178
H	1.09327	-1.675187	-1.817927
H	-0.609869	-2.199114	-1.817568
H	0.031949	-1.299191	-3.191974
H	-2.323082	0.0	0.0
