18

C	0.0	0.0	0.0
C	-0.255242	-0.079562	-1.542933
F	1.363068	0.0	0.0
H	0.465698	-0.851392	-1.846139
N	-0.618254	1.195835	0.57343
O	-1.777399	1.402173	-0.012378
O	-0.363985	1.430643	1.783832
C	-0.52693	-1.185808	0.755548
H	-0.225898	-2.124251	0.283081
H	-1.626022	-1.102101	0.764563
H	-0.148209	-1.125445	1.777088
C	0.228443	1.162397	-2.156614
N	0.611594	2.14045	-2.681892
C	-1.602894	-0.468233	-2.147897
H	-1.449385	-0.672629	-3.214507
H	-1.997555	-1.363858	-1.669206
H	-2.329613	0.324773	-2.011589
H	-2.983152	0.0	0.0
