18

C	0.0	0.0	0.0
C	-0.25498	-0.062583	-1.54254
F	1.363111	0.0	0.0
H	0.450371	-0.846332	-1.852004
N	-0.610595	1.193426	0.586034
O	-0.341865	1.422016	1.794406
O	-1.775842	1.403737	0.011433
C	-0.524622	-1.190428	0.750176
H	-0.127945	-1.1423	1.765888
H	-1.622726	-1.101376	0.776646
H	-0.236787	-2.126141	0.264644
C	0.261154	1.172051	-2.146419
N	0.684962	2.10997	-2.711936
C	-1.609538	-0.410656	-2.156589
H	-2.027877	-1.302882	-1.692587
H	-1.457681	-0.600879	-3.226491
H	-2.317532	0.398217	-2.01007
H	-2.981035	0.0	0.0
