13
Coordinates from ORCA-job run
  C   0.06503720150410      0.06124902608531     -0.33823100663805
  C   1.31619994717012     -0.04156478551233      0.50203356192914
  Cl  0.50799672828069      0.13372157501188     -2.06739957434865
  H   1.81083549384195     -0.98863909015720      0.28261844206948
  H   1.05059539125977     -0.01510125369372      1.56158579005502
  H   1.99817074394186      0.77816897101992      0.28993125686849
  C   -0.91554821726856     -1.06549970942456     -0.11249751513745
  H   -0.42043417979906     -2.01244536345266     -0.33137089455821
  H   -1.78769721564293     -0.95897452739331     -0.75284660780219
  H   -1.24094434366411     -1.06604172279647      0.93059537529280
  N   -0.62807318618809      1.39770157715586     -0.04894275778801
  O   0.08331483141981      2.32977744006075      0.30967255224379
  O   -1.84045319485554      1.44764786309654     -0.22514862218617
