13

C	0.0	0.0	0.0
C	-0.483635	-0.136121	-1.443466
Cl	1.792376	0.0	0.0
H	0.049569	0.62014	-2.026389
H	-0.347998	0.934989	0.433873
H	-1.545557	0.104043	-1.425331
C	-0.398245	-1.115664	0.861793
N	-0.582397	-2.048238	1.550472
C	-0.275828	-1.533341	-2.01912
H	-1.016688	-2.211396	-1.59512
H	-0.412831	-1.521029	-3.103011
H	0.719265	-1.928408	-1.807005
Cl	-3.457291	0.0	0.0
