19

C	-0.309503	-0.072193	-1.489108
C	0.0	0.0	0.0
F	-0.032262	1.240729	-2.042151
H	1.098272	0.0	0.0
N	0.565018	-1.011057	-2.100623
H	1.501769	-0.85123	-1.714532
H	0.599944	-0.835843	-3.1001
N	-1.684256	-0.360957	-1.795125
H	-1.785978	-0.419527	-2.802623
H	-2.232454	0.430801	-1.487964
C	-0.46645	-1.263479	0.711274
H	-0.130267	-2.149365	0.171386
H	-1.557318	-1.305965	0.791346
H	-0.033942	-1.292706	1.715974
C	-0.521083	1.258066	0.673619
H	-0.162059	1.285363	1.707284
H	-0.156469	2.151753	0.167081
H	-1.619691	1.289259	0.705198
H	3.029879	0.0	0.0
