19

C	-0.256537	0.01793	-1.500277
C	0.0	0.0	0.0
F	-1.643035	0.061827	-1.763523
H	1.100046	0.0	0.0
N	0.348332	1.18806	-2.06301
H	0.475496	1.010831	-3.053356
H	1.273219	1.280956	-1.642495
N	0.211619	-1.165933	-2.20225
H	1.193256	-1.270708	-1.941716
H	-0.284709	-1.977028	-1.850443
C	-0.510088	-1.262875	0.6766
H	-1.586168	-1.398312	0.514796
H	-0.333929	-1.198376	1.754713
H	0.017552	-2.153736	0.326971
C	-0.530532	1.245236	0.696331
H	-1.626588	1.259435	0.694366
H	-0.180129	2.152248	0.203778
H	-0.183054	1.26482	1.734814
H	2.992887	0.0	0.0
