19

C	-0.230425	-0.011643	-1.505303
C	0.0	0.0	0.0
F	-1.608544	-0.049061	-1.796777
H	1.100043	0.0	0.0
N	0.262158	1.172993	-2.191595
H	-0.22955	1.987591	-1.840868
H	1.239923	1.264694	-1.912709
N	0.382305	-1.185417	-2.055481
H	0.520878	-1.009631	-3.044894
H	1.304948	-1.267042	-1.624551
C	-0.541252	-1.247824	0.682202
H	-0.208345	-1.273003	1.7252
H	-0.185165	-2.152287	0.188837
H	-1.637277	-1.261166	0.66607
C	-0.517357	1.263066	0.670576
H	-0.378433	1.186874	1.754048
H	-1.586645	1.414265	0.473842
H	0.033803	2.150071	0.345149
H	2.980564	0.0	0.0
