19

C	-0.361288	-0.038869	-1.481818
C	0.0	0.0	0.0
F	0.022155	1.212233	-2.023604
H	1.097632	0.0	0.0
N	0.380001	-1.007455	-2.248099
H	1.359572	-0.902337	-1.977552
H	0.078863	-1.927785	-1.953016
N	-1.759119	-0.248079	-1.726117
H	-1.898318	-0.165912	-2.72816
H	-2.276294	0.496266	-1.271502
C	-0.450405	-1.261839	0.725725
H	-0.006688	-2.156337	0.280628
H	-1.539433	-1.375435	0.720984
H	-0.1026	-1.22225	1.762611
C	-0.500083	1.248362	0.714923
H	-0.221547	2.148255	0.165835
H	-1.589851	1.242506	0.861595
H	-0.034983	1.305748	1.704033
H	3.05104	0.0	0.0
