19

C	-0.324378	0.070474	-1.495654
C	0.0	0.0	0.0
F	-0.178376	-1.247135	-2.011985
H	1.098734	0.0	0.0
N	-1.671363	0.432176	-1.903384
H	-1.841389	1.377619	-1.583808
H	-2.326601	-0.18474	-1.43528
N	0.582837	0.970464	-2.102998
H	1.527491	0.778966	-1.757196
H	0.536938	0.861386	-3.108664
C	-0.532102	-1.249227	0.67937
H	-0.252038	-1.236928	1.736888
H	-1.62785	-1.315812	0.627001
H	-0.109033	-2.145911	0.228215
C	-0.451748	1.26675	0.715684
H	-0.108066	2.153618	0.178903
H	-0.011114	1.294533	1.716948
H	-1.543634	1.315863	0.825278
H	3.025006	0.0	0.0
