19

C	-0.322111	0.033894	-1.495971
C	0.0	0.0	0.0
F	-0.183556	-1.262258	-1.994784
H	1.098004	0.0	0.0
N	-1.685886	0.415486	-1.781248
H	-1.738078	0.590698	-2.780182
H	-1.90139	1.278534	-1.29908
N	0.634203	0.813918	-2.262063
H	1.568219	0.543494	-1.932162
H	0.526171	1.78518	-1.989944
C	-0.549197	-1.228064	0.705991
H	-1.639647	-1.287305	0.616233
H	-0.285326	-1.193563	1.768244
H	-0.116416	-2.134985	0.283778
C	-0.427361	1.281382	0.709289
H	-0.1057	2.176591	0.166665
H	0.058758	1.323619	1.687987
H	-1.512015	1.333247	0.869025
H	3.03536	0.0	0.0
