17

C	-0.556902	0.035593	-1.436225
C	0.0	0.0	0.0
Br	0.289416	1.588963	-2.308624
H	1.090392	0.0	0.0
C	-0.125866	-1.135977	-2.206624
N	0.163346	-2.071333	-2.856121
N	-1.988959	0.193038	-1.605148
H	-2.280194	1.057152	-1.163981
H	-2.43616	-0.590102	-1.140696
N	-0.419572	-1.275186	0.674918
O	-1.29438	-1.974208	0.151256
O	0.109452	-1.526269	1.74982
C	-0.472462	1.139047	0.890367
H	-0.224736	2.094872	0.429507
H	0.066894	1.071738	1.833289
H	-1.546069	1.090376	1.088276
Br	3.42462	0.0	0.0
