17

C	-0.304698	0.002355	-1.516925
C	0.0	0.0	0.0
Br	-2.218742	-0.489748	-1.805037
H	1.096728	0.0	0.0
C	-0.185661	1.372305	-2.027043
N	-0.092961	2.470895	-2.432835
N	0.513153	-0.852532	-2.334762
H	1.478654	-0.539609	-2.200624
H	0.470811	-1.781175	-1.927985
N	-0.414351	-1.306591	0.600827
O	-0.041304	-2.33889	0.041343
O	-1.09223	-1.286782	1.627531
C	-0.555766	1.156707	0.793168
H	-0.14782	2.088614	0.400301
H	-1.646727	1.185459	0.756374
H	-0.2426	1.063442	1.832999
Br	3.391578	0.0	0.0
