13

C	-0.355412	0.070354	-1.464244
C	0.0	0.0	0.0
Br	-2.272526	0.505554	-1.841726
H	1.095971	0.0	0.0
H	0.195826	0.884708	-1.940115
H	-0.36628	-0.931801	0.440031
C	-0.083526	-1.172531	-2.17586
N	0.111462	-2.175355	-2.755976
C	-0.438926	1.217561	0.797186
H	-0.091389	2.133619	0.310006
H	-1.522527	1.283502	0.924847
H	0.034242	1.180991	1.781653
H	2.873164	0.0	0.0
