13

C	-0.376681	0.018169	-1.462565
C	0.0	0.0	0.0
Br	-2.27715	0.540509	-1.783958
H	1.096504	0.0	0.0
H	0.202712	0.783024	-1.984029
H	-0.30592	0.959004	0.43267
C	-0.185091	-1.261199	-2.13651
N	-0.042435	-2.291593	-2.683142
C	-0.557379	-1.168669	0.790091
H	-1.652255	-1.192584	0.795406
H	-0.207635	-1.101698	1.823399
H	-0.18963	-2.115884	0.387302
H	2.904103	0.0	0.0
