13

C	-0.464735	-0.021389	-1.447536
C	0.0	0.0	0.0
Br	0.004357	1.620529	-2.428608
H	1.093719	0.0	0.0
H	0.054795	-0.817811	-1.98487
H	-0.306462	-0.96864	0.420057
C	-1.907974	-0.189544	-1.585866
N	-3.07088	-0.346454	-1.65263
C	-0.562313	1.136422	0.836361
H	-0.21902	2.099859	0.455448
H	-0.188844	1.04133	1.858755
H	-1.657368	1.141768	0.867136
H	2.969968	0.0	0.0
