14
Coordinates from ORCA-job run
  C   -0.59697017079574     -0.36461645630739      0.32088997565046
  C   0.72451413842889      0.19673094383389      0.81703077454204
  Cl  -1.72218297203404     -0.59649070445823      1.68017924949809
  H   1.15914165971280     -0.57985841834527      1.44875250065478
  H   0.53244391830741      1.07948926155647      1.42949349424526
  N   -1.28590814982637      0.73466393234459     -0.55284747955135
  O   -2.06763251585115      0.33573682603554     -1.40695448717846
  O   -1.00738922516349      1.90720696928394     -0.32156150961437
  N   -0.41511112490715     -1.55661530844707     -0.38998258042993
  H   0.33597809293375     -1.40774590069827     -1.05628120763479
  H   -1.26410949814570     -1.84296342569581     -0.85982536662311
  N   1.57703315565646      0.43540524689392     -0.34198970260856
  H   2.54688798287232      0.26529146945644     -0.11660494498466
  H   1.48530470881200      1.39476556454724     -0.64929871596539
