14
Coordinates from ORCA-job run
  C   -0.57585916533403     -0.28516354505007      0.18268319443699
  C   0.68099022051678      0.26587888081990      0.82622224478490
  Cl  -1.79899235835032     -0.63529473055239      1.49212002199067
  H   0.40666050439013      1.10599261530917      1.46206872794074
  H   1.09051203171800     -0.52780047821277      1.46981019108659
  N   -1.22599081969843      0.81425519790022     -0.65859623681330
  O   -1.25712729253103      1.92927253473031     -0.16444771168575
  O   -1.70001923980989      0.48018399552759     -1.73805960375900
  N   -0.29501364489906     -1.37785310753069     -0.65509899228801
  H   -1.07328011163231     -1.59077665797902     -1.26567707042890
  H   -0.03985867710308     -2.18905904674052     -0.10739018859125
  N   1.54677400394191      0.72727840406238     -0.24107263421256
  H   1.97319753974854     -0.05337503128640     -0.71966281201069
  H   2.26700700904278      1.33846096900230      0.11710086954957
