14
Coordinates from ORCA-job run
  C   -0.50279379245328     -0.21171719448878      0.17492366964570
  C   0.72935242837843      0.67547563432157      0.24595950303961
  Cl  -1.13480593130057     -0.60880190394857      1.77799459882043
  H   0.47480101683186      1.57391807134011      0.80645136186496
  H   0.94521786494321      0.98230541294722     -0.79403122609580
  N   -1.63037120286265      0.64098396597060     -0.49674089187485
  O   -2.26315325120152      0.10232967628447     -1.39935610071657
  O   -1.79110225103710      1.78073053690355     -0.08067654238799
  N   -0.23778830086885     -1.39978095240946     -0.53880303169198
  H   -1.03467040511316     -2.02339930361668     -0.52900224446154
  H   -0.00935903474269     -1.18323192842640     -1.50232087816937
  N   1.79460185842598     -0.03614033273166      0.91867138897528
  H   2.59996385735168      0.56439175630136      1.02974724192981
  H   2.06010714364866     -0.85406343844736      0.38718315112230
