14
Coordinates from ORCA-job run
  C   -0.60149939174288     -0.36180206936336      0.31647024612385
  C   0.72446491095860      0.18224459138033      0.81981336126247
  Cl  -1.73151751233150     -0.59353122236985      1.67173244142265
  H   1.15043614380136     -0.60436993053281      1.44498090297717
  H   0.54014746659932      1.06128845925499      1.43989093209400
  N   -1.27736682818476      0.75167863150902     -0.54939910692434
  O   -0.99193183565165      1.91947873445368     -0.30301252860625
  O   -2.05665270899779      0.36791319951009     -1.41265140689889
  N   -0.42986805766021     -1.54962613231252     -0.40372370469627
  H   -1.28048365055794     -1.82375578892931     -0.87789608714869
  H   0.32416367031858     -1.40308999983653     -1.06718698919702
  N   1.58130083954141      0.42322679142134     -0.33586520273802
  H   1.49859128457221      1.38626650541990     -0.63436869086524
  H   2.54921566933525      0.24407823039504     -0.10878416680542
