14
Coordinates from ORCA-job run
  C   -0.57527771099888     -0.20929700912645      0.26822394991871
  C   0.78407417810633      0.28446340488520      0.72199338910373
  Cl  -1.67755906982565     -0.30522764396614      1.71971688153577
  H   0.64880966261783      1.20873242900644      1.28132278359586
  H   1.19118147674785     -0.47252672392767      1.40979391478992
  N   -1.21619723010544      0.85364197203583     -0.62538241523105
  O   -1.82563100333386      0.45643325480609     -1.61154215794444
  O   -1.10269083698604      2.01185083626276     -0.25885826358500
  N   -0.47654376464551     -1.40436914843563     -0.46482540491510
  H   -1.32965928087857     -1.60401591057929     -0.97096664111900
  H   -0.23520694118992     -2.17527981545292      0.14395956142840
  N   1.56850641585083      0.54827048908816     -0.46810626661044
  H   1.87502344868276     -0.31461572891317     -0.89444033274359
  H   2.37117065595827      1.12193959431679     -0.25088899822376
