14
Coordinates from ORCA-job run
  C   -0.55828760018537     -0.04557667571497      0.03273752586717
  C   0.83953978489772      0.55432385656811      0.03561827786305
  Cl  -1.17381846693641     -0.02721834363912      1.77450915513089
  H   0.81322670278670      1.52322508464358      0.53827253203747
  H   1.11517734902523      0.71505377173338     -1.00873061812735
  N   -1.54919792667925      0.85415916184533     -0.69064155219042
  O   -1.20734413076751      2.01227321709032     -0.90492300670771
  O   -2.61809526841459      0.34254742290371     -0.99582127397803
  N   -0.57359843928810     -1.28907038904107     -0.58359852497120
  H   -1.46352675887504     -1.76170045526618     -0.51486022545883
  H   0.20416768113293     -1.84202862659252     -0.24413200569188
  N   1.74453512405620     -0.42754335738274      0.62383707404105
  H   2.68933887072494     -0.26435372981379      0.30414610492636
  H   1.73688307852255     -0.34609093733403      1.63258653725943
