14
Coordinates from ORCA-job run
  C   -0.55507204990585     -0.06478727812385      0.05487472969191
  C   0.82263739275864      0.57953942293098      0.02513945941208
  Cl  -1.09416518222351     -0.14104956569313      1.81972639157033
  H   0.78923562525529      1.52419529174031      0.57154980985493
  H   1.04715268187434      0.79421665142396     -1.02169666093046
  N   -1.60337573723730      0.83207423693806     -0.58615906282001
  O   -1.30584350459004      2.00798600398685     -0.76624691166175
  O   -2.66901269060792      0.29990318878842     -0.86607124818163
  N   -0.55877566026325     -1.28057998068422     -0.61485037159816
  H   -1.42987038101915     -1.78456018123374     -0.52967596812391
  H   0.24978103843172     -1.82176663160936     -0.33328460088460
  N   1.78218315284268     -0.39728041887526      0.53018110154148
  H   1.81794370399217     -0.35753154580754      1.54085672227479
  H   2.70618161069220     -0.19035919378148      0.17665660985500
