14
Coordinates from ORCA-job run
  C   -0.53114642730926     -0.17972108579243      0.02185207980128
  C   0.69823425946705      0.70082400025048      0.18690200839805
  Cl  -1.01201010128861     -0.78178193488442      1.70057605952730
  H   0.49588278681356      1.46132909923652      0.94371472440484
  H   0.85833571643054      1.20063625421368     -0.77067782074961
  N   -1.74300782010860      0.63100045003102     -0.41231415660178
  O   -1.67826687503312      1.84986416385969     -0.29396489282530
  O   -2.69308332222883     -0.00904820818515     -0.84242595148686
  N   -0.31681619758359     -1.17520251784707     -0.92138410676673
  H   -1.07469119148293     -1.83974527332703     -0.98505947240281
  H   0.58485174197997     -1.60612121774948     -0.75646155774758
  N   1.83517795232913     -0.16976993641775      0.46825053828622
  H   2.69627988132714      0.28751583245340      0.20188794900072
  H   1.88125959668753     -0.37077962584145      1.45910459916225
