14
Coordinates from ORCA-job run
  C   -0.54310792214020     -0.13704449433765     -0.03767727317894
  C   0.72692936487281      0.64041719148450      0.27341464111575
  Cl  -1.24584306541595     -0.71755086295894      1.56905148964576
  H   0.50511540320282      1.40527622359016      1.02035930215837
  H   1.02626244543327      1.13759085325113     -0.65157256570501
  N   -1.63474415377242      0.77298097642949     -0.58089977672716
  O   -2.58061231142222      0.21545243096882     -1.12114516243390
  O   -1.48753002952294      1.98138684041712     -0.43298463317395
  N   -0.30834457330447     -1.13563289371601     -0.97249131085210
  H   0.53464380209491     -1.63877416011318     -0.72340938888006
  H   -1.10475488927504     -1.73656688974627     -1.12933747903980
  N   1.75595839034847     -0.32134918279769      0.65465260260978
  H   2.67368839676637      0.06809300786665      0.48845013788014
  H   1.68133914213460     -0.53727904033813      1.64058941658111
