14
Coordinates from ORCA-job run
  C   -0.54711442478669     -0.12458284812010     -0.00765880904701
  C   0.75186036990260      0.64099738575203      0.19386914814712
  Cl  -1.20519310717771     -0.55170228738207      1.66437833585163
  H   0.57631271196493      1.47126070055755      0.88084732036119
  H   1.02940097250329      1.05115260682485     -0.77930881844532
  N   -1.63511890836422      0.76671631244851     -0.58743848159867
  O   -1.45333255093378      1.97876414372656     -0.54602543924576
  O   -2.61376865476308      0.19285839768715     -1.04587820730708
  N   -0.37046868031931     -1.20290465644880     -0.86368032933852
  H   -1.18639703249008     -1.79309791388596     -0.94133651872035
  H   0.46809561317343     -1.70674793391688     -0.60125744623240
  N   1.77016672143060     -0.31366322897451      0.61964868840921
  H   1.72494064076403     -0.44518526709909      1.62211440296161
  H   2.69061632909597      0.03613458883077      0.39172615420436
