14
Coordinates from ORCA-job run
  C   -0.54256342116168     -0.13222084107558     -0.04912110789623
  C   0.72690361347315      0.63591650350383      0.28588598426322
  Cl  -1.28428884119019     -0.69891861969528      1.54592558966158
  H   0.49579531976135      1.40681774909108      1.02372377965833
  H   1.05074763071087      1.12549248969728     -0.63494088623618
  N   -1.61497744756289      0.78395442930628     -0.61923272401069
  O   -2.55266221677474      0.23216466942571     -1.17931027532114
  O   -1.46268226599197      1.99154371889611     -0.46971458479161
  N   -0.29651579430974     -1.13719668783067     -0.97374238540572
  H   0.53498718789922     -1.64845600923821     -0.70381747328999
  H   -1.09573264323039     -1.72961650842742     -1.14773735757865
  N   1.73876209041620     -0.33291226426009      0.69433550976158
  H   2.66337463679498      0.04792908090531      0.54744669449588
  H   1.63985215116583     -0.54349771029836      1.67929923668961
