14
Coordinates from ORCA-job run
  C   -0.53945317876147     -0.28003318681616      0.17975783985917
  C   0.70572943588869      0.19536195420541      0.92447018508216
  Cl  -1.84779572940727     -0.61003553642662      1.41160682640304
  H   1.03166767620044     -0.64633147732798      1.54524696150382
  H   0.42519602734214      1.00278020036118      1.59852339323892
  N   -1.12240840407589      0.84364544289064     -0.67419380133032
  O   -0.89432402580277      1.99258742822653     -0.31546144637123
  O   -1.80188733910364      0.50745821565378     -1.63655245741384
  N   -0.26439353253610     -1.35280218492905     -0.68371575467533
  H   0.05561272264583     -2.15945824655432     -0.16380645933697
  H   -1.06582870668676     -1.59279089367358     -1.25335474396663
  N   1.79129998321170      0.62769625016540      0.07548611935616
  H   1.57171386098940      1.51903589123500     -0.34794360631369
  H   1.95587121009571     -0.04811385701024     -0.65906305603525
