14
Coordinates from ORCA-job run
  C   -0.62755981162828     -0.20197398320627      0.23853042546291
  C   0.76308522268347      0.17376248646325      0.72906576628100
  Cl  -1.68822513082276     -0.36708446699981      1.70594359450919
  H   0.69159249033610      1.14909360419983      1.22040550996634
  H   1.02122000209001     -0.56568441934987      1.49084514125628
  N   -1.27459201496690      0.96280029153865     -0.54002387583859
  O   -0.60913438510964      1.98538089191803     -0.68699730697822
  O   -2.38423001849345      0.74952914604837     -1.00271448297821
  N   -0.62727509321121     -1.29620585354375     -0.61722929859547
  H   0.20891045617307     -1.85527045864445     -0.57033300543424
  H   -1.49398931219476     -1.80508299622036     -0.67674375066269
  N   1.73496013531779      0.07956597740975     -0.34838022408566
  H   1.61652605679741      0.86410929543537     -0.97727736541273
  H   2.66971140302914      0.12906048495126      0.03590887251008
