14
Coordinates from ORCA-job run
  C   -0.56903141742525     -0.25013099685553      0.21049198242958
  C   0.96237922108939     -0.13075753287506      0.32885971952329
  Cl  -1.33166746293126      0.40553641554001      1.65891784850700
  H   1.38065872874110     -0.63853695258449     -0.54531382214628
  H   1.24541785051101     -0.70384050614020      1.21694631711421
  N   -0.95053501573322      0.59563519115867     -1.00782133828311
  O   -1.46136239769051      1.69560492363945     -0.86705991209115
  O   -0.61179410338048      0.08007205098313     -2.07116167351988
  N   -1.09275026136486     -1.55894148117129     -0.03731571290640
  H   -1.00871660808122     -2.13197965490986      0.79176718141811
  H   -0.59819769050648     -1.98724599578998     -0.81040358503125
  N   1.52508413986472      1.19393358420101      0.41120330841085
  H   1.11527917245818      1.72092275072605      1.17076710046397
  H   1.39523584444889      1.70972820407807     -0.44887741388893
