14
Coordinates from ORCA-job run
  C   -0.59720500615324     -0.30337096947555      0.11411215390025
  C   0.91211604548358     -0.05303357854422      0.21500603697036
  Cl  -1.38479408371631     -0.09291234048965      1.68339920606950
  H   1.27887832873749     -0.08153811286601     -0.82620661621040
  H   1.30525483704180     -0.94086529851329      0.71834916976007
  N   -1.21485271927384      0.75427595382027     -0.83498233692191
  O   -0.65911310392214      1.85009755257942     -0.85448783171620
  O   -2.20196130129090      0.44120788122889     -1.48106131557661
  N   -0.95911575316696     -1.57896257492686     -0.40527903378620
  H   -0.78003177174150     -2.30303383109671      0.27687620594367
  H   -0.46513321865481     -1.77826311677253     -1.26720471786898
  N   1.30920953024926      1.10776162167469      0.97690569627125
  H   1.17698336681485      1.94911972148084      0.43602679740834
  H   2.27976484959272      1.02951709190070      1.24654658575688
