14
Coordinates from ORCA-job run
  C   -0.46801806925062     -0.46435148676989      0.16402737669857
  C   0.98606385033717     -0.02377403559751      0.29259047724465
  Cl  -1.23793585817433     -0.52271220952042      1.74713685635413
  H   1.46074213245664     -0.73784081004997      0.97204903505367
  H   1.44652178708006     -0.13708434795425     -0.69149805141431
  N   -1.16426865173994      0.64361842283995     -0.68097381175606
  O   -0.67087614889058      0.74786391856130     -1.80341180392830
  O   -2.10401752540709      1.28345049388734     -0.24430418074244
  N   -0.56972635342468     -1.73097268139691     -0.46599838179680
  H   -0.22223408664106     -1.67009900841991     -1.41562670091572
  H   -1.52223671763893     -2.07431737154845     -0.46773360875137
  N   1.05295455209207      1.35616917269219      0.73054146000292
  H   1.32362592835021      1.43430451082201      1.69886062736318
  H   1.68840516085107      1.89674543245453      0.16434070658785
