14
Coordinates from ORCA-job run
  C   -0.59468704280897     -0.23247937328075      0.28969143857041
  C   0.81466875825713      0.20498343080938      0.66183969683611
  Cl  -1.51674000302699     -0.45004148818051      1.84213485142536
  H   0.74106370355500      1.17346835178243      1.16614073912941
  H   1.17162353882889     -0.52537859811364      1.39174754066284
  N   -1.35899840619926      0.90526908303232     -0.42025609153070
  O   -2.49072094904442      0.64018415978329     -0.79407213629282
  O   -0.75975819053615      1.96148717622458     -0.60727399586531
  N   -0.61856531563847     -1.32276159314751     -0.56943590328309
  H   0.24384044580119     -1.84125622679683     -0.60303735846787
  H   -1.46318002222562     -1.87042859518630     -0.56007801577620
  N   1.69218777983888      0.16207012153884     -0.49662819088579
  H   1.48621616582633      0.94542997235300     -1.10397402967769
  H   2.65404953737245      0.24845357918171     -0.19479854484466
