14
Coordinates from ORCA-job run
  C   -0.45278338793094     -0.17750255980523      0.12562618942277
  C   0.79525293317031      0.71350676900793      0.16126395825379
  Cl  -1.00258471748628     -0.57857578676215      1.76515100800157
  H   0.55094534945403      1.62424180626598      0.70692331181020
  H   1.00443667369197      0.99919080269826     -0.87792958864695
  N   -1.59853937665747      0.68149404964787     -0.49223127217951
  O   -2.16004912515715      0.22112856754869     -1.48202944810583
  O   -1.82150157003796      1.76614619349166      0.02911983942855
  N   -0.21761819130398     -1.36795195884518     -0.59080034712442
  H   0.01756539003707     -1.15524937376433     -1.55327591840042
  H   -1.02705448627252     -1.97566340757471     -0.58247196029429
  N   1.96720386169048      0.09611461419915      0.73354523514995
  H   2.10435520996525     -0.82100584628088      0.32718324393963
  H   1.84137143683719     -0.02687386982706      1.72992574874496
