14
Coordinates from ORCA-job run
  C   -0.50085095208482     -0.38816340030201      0.27430036218208
  C   1.00097442937565     -0.12748150075828      0.25962544957520
  Cl  -1.15365875410717     -0.22455519350814      1.89828225515508
  H   1.42663188517627     -0.77565545465309      1.02734154068810
  H   1.38554879211798     -0.45980874242819     -0.70992240936328
  N   -1.13754171342335      0.71951792228995     -0.61867316301059
  O   -0.59652705456921      0.80533451321297     -1.72198479642331
  O   -2.11534043932873      1.34656154624557     -0.24867487780042
  N   -0.80477008534817     -1.67579739311578     -0.23793226282117
  H   -1.79097525969368     -1.89127944630359     -0.16077359529487
  H   -0.50277793275725     -1.75060544380966     -1.20195357756327
  N   1.26815852239722      1.27063862293482      0.53453662224547
  H   2.00318319673338      1.38500356777579      1.21493893649830
  H   1.51794536551188      1.76729040241962     -0.30811048406732
