14
Coordinates from ORCA-job run
  C   -0.69956112220650     -0.30818600565923      0.24497455599782
  C   0.66578549013699      0.13646021510117      0.77311326894955
  Cl  -1.80363021047179     -0.55559179898001      1.60720207049042
  H   0.53398352112790      0.98955345388125      1.44416381325097
  H   1.06607103062759     -0.70069837666197      1.35012516594890
  N   -1.21968995713555      0.89814848889450     -0.57007673759793
  O   -1.28291367778902      1.96151443878308      0.03912420329171
  O   -1.45355115243828      0.72858354920970     -1.75736987727363
  N   -0.72213364948635     -1.44481149539381     -0.59959410775826
  H   -0.59018132974970     -2.28484493994347     -0.05201181753442
  H   0.02076427458487     -1.34910074423520     -1.28363839433158
  N   1.51867979035701      0.39504952088046     -0.37988762129203
  H   1.48444505604865      1.37331591619982     -0.63679153493968
  H   2.48093193639419      0.16160777792371     -0.18033298720183
