14
Coordinates from ORCA-job run
  C   -0.58891765024724     -0.27250045967507      0.41427179865363
  C   0.82324660994671      0.19878356358458      0.71639948285250
  Cl  -1.57566433866340     -0.26477630196507      1.89535378894472
  H   0.77831205098446      1.14907835685001      1.25137599414523
  H   1.25371766394597     -0.55518497531557      1.37765960207375
  N   -1.26835600640886      0.80350903048826     -0.49468876072464
  O   -2.17045587357447      0.40649640845779     -1.22155566187743
  O   -0.86350741857766      1.95917309810484     -0.41365617623611
  N   -0.59161055686752     -1.53739444808005     -0.18516325280616
  H   -1.50831708215775     -1.78068256473478     -0.53728950674147
  H   0.09393807974636     -1.52638929501038     -0.93359650871752
  N   1.56267343212575      0.24358576551704     -0.54017117805581
  H   1.52076366084325      1.17438248246503     -0.93412447332323
  H   2.53317742890441      0.00391933931336     -0.39481514818747
