14
Coordinates from ORCA-job run
  C   -0.58960195490492     -0.13233614394980      0.09188556212025
  C   0.73366799107137      0.64641547402654      0.26001788485301
  Cl  -1.20413625368392     -0.59619021769544      1.68280568356960
  H   1.00342704679262      1.01483161522915     -0.73553181278644
  H   0.54217651099047      1.51161196413175      0.90027524789506
  N   -1.54740089795034      0.86872573869325     -0.56144201824888
  O   -1.46247033810256      0.91540634713886     -1.78623057553640
  O   -2.22114209460393      1.59981743876362      0.14862147600697
  N   -0.57380197008939     -1.28973278769318     -0.74321753049020
  H   -0.05156134616862     -2.03761623142640     -0.30959086546643
  H   -0.20423519022582     -1.06725786599063     -1.65828698412396
  N   1.84177792781008     -0.10372927885554      0.79609383644192
  H   1.63511665287699     -0.45609396384258      1.72099439076689
  H   2.09718391618799     -0.87485208852961      0.19460570499860
