14
Coordinates from ORCA-job run
  C   -0.59740069572874     -0.36881705038479      0.31608727696807
  C   0.71949793418715      0.19547560147168      0.82122319939501
  Cl  -1.72708204292478     -0.61378434317901      1.66898123057622
  H   1.15466954892000     -0.58219361304137      1.45120658552820
  H   0.52049704270371      1.07429724507652      1.43711258632050
  N   -1.28710206515710      0.73249827700290     -0.55437431180632
  O   -2.06261994367804      0.33507060058295     -1.41484869587823
  O   -1.01497745470132      1.90491455712217     -0.31476707848640
  N   -0.40697793499234     -1.55563476286645     -0.40116520463300
  H   -1.25282730651013     -1.84425866790355     -0.87515026125079
  H   0.34588352864837     -1.39953734723205     -1.06368737135824
  N   1.57624169894405      0.44443431676172     -0.33231233584589
  H   2.54535657425942      0.27271521202401     -0.10521304498082
  H   1.48484111602974      1.40581997456526     -0.63309257454833
