14
Coordinates from ORCA-job run
  C   -0.49028519000912     -0.07485868702570     -0.01563866868908
  C   0.77166001934568      0.70441874708643      0.36255575425832
  Cl  -1.29114687174326     -0.64843092968636      1.53518612874396
  H   0.50721760191167      1.45103471136867      1.10919521092311
  H   1.09723626041223      1.23073767615152     -0.53781693328982
  N   -1.53389537696646      0.84831910431602     -0.63512644112090
  O   -2.39995901385374      0.31541875540536     -1.31817920781357
  O   -1.44004044701386      2.04319434299596     -0.38270251768241
  N   -0.24019034832378     -1.09300000654443     -0.94422805290723
  H   -1.09693160122242     -1.53784949725279     -1.24850771535582
  H   0.39604214875731     -1.77837296983459     -0.56203556920058
  N   1.86379603629023     -0.10534993347242      0.85178453058988
  H   2.25924417572093     -0.69425066661660      0.13302712520338
  H   1.59725260669457     -0.66001064689109      1.65348635634075
