14
Coordinates from ORCA-job run
  C   -0.53558853086401     -0.20799424035674      0.26827622813558
  C   0.83213990137960      0.19841518173691      0.81145434522108
  Cl  -1.70157773518591     -0.29881589326426      1.67225231954692
  H   1.15721094563038     -0.61756586729983      1.46609083831533
  H   0.71410859293791      1.08340508366507      1.43418711238870
  N   -1.11743758540493      0.89466477725669     -0.61364728057169
  O   -0.74489263061279      2.04047588994187     -0.39189100958622
  O   -1.93753185030735      0.55079200366703     -1.45627232137564
  N   -0.47134702940439     -1.37128841683256     -0.51541128360243
  H   -0.16192734176835     -2.16021955968629      0.03703711845685
  H   -1.35661444694330     -1.57521424764957     -0.96152032695224
  N   1.83525523171082      0.44638450809584     -0.19778681472858
  H   1.84251169442696     -0.30078576356999     -0.87973573825487
  H   1.64569078440535      1.31774654429583     -0.67403318699279
