14
Coordinates from ORCA-job run
  C   -0.49140540383700     -0.06438076422594     -0.02680628007203
  C   0.77880488384091      0.68562058436573      0.38185221770781
  Cl  -1.33630459639629     -0.62821224515543      1.50562729852218
  H   0.51520477532459      1.43281948527130      1.12820807415067
  H   1.13310678345957      1.21116584782935     -0.50814017968200
  N   -1.50280307570793      0.88412022532376     -0.66111703376689
  O   -1.39296666219721      2.07414331601427     -0.39300528522705
  O   -2.36262860420490      0.37411503247422     -1.36902665752616
  N   -0.24422207059270     -1.08310900628445     -0.95472391798690
  H   -1.10340949375650     -1.50806853895429     -1.27971305521894
  H   0.37021304938657     -1.78345148799482     -0.56424718248066
  N   1.84342135542775     -0.14995131504882      0.88728333686272
  H   1.55003240879525     -0.70325262894291      1.68046358720315
  H   2.24195665045789     -0.74255850467198      0.17334507751409
