14
Coordinates from ORCA-job run
  C   -0.58719998137324     -0.12095670863628      0.12076995922705
  C   0.75063386533114      0.64749328378741      0.20034008862570
  Cl  -1.14383826797297     -0.49959320356974      1.75602067732053
  H   0.98282262010891      0.96936873877461     -0.82069566213332
  H   0.59517302590529      1.54139935944160      0.80985555777531
  N   -1.55668478942099      0.86386108380041     -0.53953857870603
  O   -1.55130228028818      0.82991920412656     -1.76751945049572
  O   -2.15593468426490      1.66409865448520      0.16309936050740
  N   -0.61891931636715     -1.31681719396198     -0.65605707449180
  H   -0.29402724400786     -1.14365732935356     -1.59823308485363
  H   -0.08240754211009     -2.04791553686111     -0.21145452673146
  N   1.87169874021128     -0.09274715137141      0.72318257287111
  H   2.09051662972950     -0.89561476208748      0.14935293008484
  H   1.70046922451927     -0.39783843857422      1.67187723100001
