14
Coordinates from ORCA-job run
  C   -0.58622287427778     -0.22510924188464      0.19156719194137
  C   0.94333604726452     -0.16817435931867      0.36528150200139
  Cl  -1.37320288996025      0.47197346152164      1.60745956345784
  H   1.16988598696701     -0.74724603988336      1.26565139934299
  H   1.37146770214523     -0.69834108026484     -0.49062660988984
  N   -0.88802702039528      0.62729747397133     -1.04504637855319
  O   -1.35973387307073      1.74740847970643     -0.92922098420283
  O   -0.53044052944914      0.09160869282617     -2.09214976703022
  N   -1.15470791635755     -1.51257673153375     -0.06799389422373
  H   -1.12076428786976     -2.08449024919598      0.76541634316146
  H   -0.65366532187819     -1.96457212768909     -0.82322470096847
  N   1.55721631918088      1.13256141683146      0.46134537650924
  H   1.13943088264959      1.68306666457550      1.19957185647888
  H   1.48442777505146      1.64559364033780     -0.40703089802490
