14
Coordinates from ORCA-job run
  C   -0.49675075534277     -0.25633353462944      0.16913689886218
  C   1.01521888013313     -0.04365095758932      0.38922150164114
  Cl  -1.46792611050836      0.62758427700550      1.36744356374470
  H   1.51154114096925     -0.43816213236672     -0.50624308353951
  H   1.26694652647558     -0.70452187866370      1.22206441014964
  N   -0.90576992447295      0.38229715644217     -1.19726159234116
  O   -1.64292713818695     -0.28168165710242     -1.91771705650036
  O   -0.45743636955136      1.49248828572124     -1.46135872283143
  N   -0.81232507853976     -1.62464653745097      0.22277131866816
  H   -0.19169772678583     -2.15737723107493     -0.37505797839800
  H   -1.77067226452722     -1.79838742686967     -0.05246505583278
  N   1.52982596823867      1.27175415783405      0.66278925488429
  H   1.25460885864211      1.91500756039597     -0.06584850264163
  H   1.16936399345644      1.61562991834824      1.54252504413476
