14
Coordinates from ORCA-job run
  C   -0.47297346519306     -0.22911676526307      0.05686730041952
  C   1.03220438347789     -0.14520137490146      0.34451614151463
  Cl  -1.38276815710542      0.68406885772522      1.35512005859109
  H   1.52558471300531     -0.57945723371871     -0.52804845321364
  H   1.20481285311316     -0.82320101527084      1.18707210554814
  N   -0.85476491705458      0.48917371206257     -1.23599701721805
  O   -0.01088241629557      1.20566111834322     -1.76403194244624
  O   -1.98676886122913      0.28214342677546     -1.65276146201283
  N   -0.88539817755758     -1.55814719270117     -0.11594807797549
  H   -1.87260483709358     -1.62255027628633     -0.33047633443381
  H   -0.65595991499170     -2.12663314164659      0.68772645972826
  N   1.63190384715445      1.12673964224075      0.65029743329510
  H   1.21311846843015      1.53749695569906      1.47316640045291
  H   1.51449648133966      1.76102328694189     -0.12650261224961
