14
Coordinates from ORCA-job run
  C   -0.57301072786134     -0.26568339695831      0.17971570101567
  C   0.94831290974518     -0.11624931968400      0.37180160775201
  Cl  -1.41644751784175      0.35039012726059      1.60072774628674
  H   1.41774842919497     -0.60089014258051     -0.48942454848372
  H   1.20178084227807     -0.69746757181805      1.26354285073985
  N   -0.91500224622819      0.59216465581223     -1.04199782380104
  O   -0.51676785944414      0.10118946745529     -2.09622354350979
  O   -1.45377075418058      1.67954520062657     -0.90799680574365
  N   -1.05652933553772     -1.58076038843616     -0.11234979421544
  H   -0.51707751033395     -1.98620792153842     -0.86759344436772
  H   -0.99752874796463     -2.16511589248427      0.71104450714897
  N   1.47761865866946      1.21839113566589      0.50051456184006
  H   1.37991025665036      1.74414853891969     -0.35773351333420
  H   1.01976360285425      1.72554550775947      1.24597249867225
