18

C	-0.533388	0.012416	-1.417171
C	0.0	0.0	0.0
F	0.189423	0.785835	-2.268165
H	1.088949	0.0	0.0
N	-0.305173	-1.430762	-1.976659
O	0.829591	-1.742436	-2.300922
O	-1.294913	-2.16302	-2.028104
N	-1.888281	0.387537	-1.508777
H	-2.430404	-0.031892	-0.767955
H	-2.286117	0.132205	-2.402501
C	-0.440806	-1.205438	0.804799
H	-0.119006	-1.061706	1.835568
H	-1.517607	-1.402296	0.806148
H	0.088912	-2.078236	0.420347
N	-0.458688	1.26405	0.625592
O	-0.017842	2.313527	0.161439
O	-1.254541	1.206449	1.574407
F	2.512762	0.0	0.0
