18

C	-0.508015	0.006426	-1.428684
C	0.0	0.0	0.0
F	0.251201	0.767436	-2.264864
H	1.088959	0.0	0.0
N	-0.277844	-1.439506	-1.98447
O	-1.282951	-2.133828	-2.162417
O	0.874987	-1.782519	-2.197974
N	-1.852976	0.391699	-1.551732
H	-2.272903	0.038137	-2.401109
H	-2.39816	0.103841	-0.751562
C	-0.47817	-1.195982	0.796422
H	-0.21387	-1.044346	1.842412
H	-1.553212	-1.39452	0.740765
H	0.072179	-2.071109	0.446513
N	-0.478101	1.272456	0.596537
O	-1.376416	1.226345	1.450635
O	0.033758	2.31382	0.195461
F	2.518038	0.0	0.0
