11
Coordinates from ORCA-job run
  C   0.53256696583664     -0.50415631213417      0.54028683918182
  C   -0.28699683091711      0.29335899953078     -0.47888183108351
  H   0.45661061794613     -0.04204231991709      1.52944667525119
  H   0.16194543306001      1.28848918369937     -0.60311582417957
  H   0.11854420730865     -1.51167557939503      0.62069449921041
  H   -0.22830126365617     -0.21146850120606     -1.44584690565154
  C   1.94368771079423     -0.57672766843173      0.16491275357762
  N   3.06861144206538     -0.61709143305123     -0.16569802687548
  N   -1.68166307273928      0.30668317514865     -0.04812718835421
  H   -2.27851375721405      0.59547834110063     -0.81246411591924
  H   -1.80649145248442      0.97915211465589      0.69879312484251
