17

C	0.0	0.0	0.0
C	-0.48489	0.121532	-1.458837
Br	1.961529	0.0	0.0
H	-1.578223	0.206194	-1.363804
N	-0.421781	1.194466	0.692134
H	-1.445264	1.182147	0.665064
H	-0.13164	1.14066	1.6633
N	-0.437247	-1.279857	0.512776
H	-0.162874	-1.346274	1.487872
H	-1.461555	-1.239106	0.484165
C	-0.161468	-1.084845	-2.338516
H	-0.608302	-0.945829	-3.325781
H	-0.570754	-1.984559	-1.882376
H	0.917345	-1.205694	-2.453966
C	0.003504	1.352729	-2.078674
N	0.359332	2.303798	-2.66918
Cl	-3.551677	0.0	0.0
