17

C	0.0	0.0	0.0
C	-0.235446	0.093096	-1.542678
Br	2.035271	0.0	0.0
H	0.415365	0.89643	-1.900044
N	-0.506367	1.177171	0.627606
H	-0.249101	1.183629	1.609281
H	-1.527487	1.1139	0.566677
N	-0.526512	-1.192652	0.511521
H	-0.06188	-2.041602	0.21758
H	-0.724666	-1.165154	1.502339
C	-1.675021	0.38259	-1.975306
H	-1.68866	0.426456	-3.074102
H	-2.380689	-0.359479	-1.603391
H	-1.998022	1.347071	-1.586094
C	0.217028	-1.152868	-2.169151
N	0.52628	-2.161034	-2.688048
Cl	-4.252721	0.0	0.0
