17

C	0.0	0.0	0.0
C	-0.396524	0.170587	-1.521656
Br	1.965178	0.0	0.0
H	0.536532	0.09164	-2.08667
N	-0.437747	1.141558	0.761281
H	-0.165474	1.002595	1.729699
H	-1.462844	1.093509	0.723857
N	-0.394709	-1.313815	0.449216
H	-1.418666	-1.318819	0.41199
H	-0.118557	-1.422878	1.420462
C	-1.010714	1.525023	-1.884169
H	-1.117531	1.579667	-2.971367
H	-1.993072	1.633318	-1.428761
H	-0.353551	2.326164	-1.547643
C	-1.191465	-0.9433	-2.051098
N	-1.693389	-1.831569	-2.632715
Cl	-3.462398	0.0	0.0
