17

C	0.0	0.0	0.0
C	-0.4941	-0.086561	-1.449845
Br	2.01692	0.0	0.0
H	-1.582963	0.054055	-1.328954
N	-0.45671	1.233226	0.551189
H	-1.48253	1.179915	0.524096
H	-0.154564	1.320503	1.515561
N	-0.435614	-1.154542	0.70881
H	-0.459339	-0.99035	1.705998
H	0.118159	-1.974721	0.505282
C	-0.267913	-1.441705	-2.118515
H	0.791199	-1.71182	-2.12502
H	-0.622816	-1.404584	-3.150566
H	-0.849809	-2.196557	-1.58852
C	0.040884	0.999779	-2.26691
N	0.421126	1.838832	-2.995662
Cl	-3.624209	0.0	0.0
