15

C	0.0	0.0	0.0
C	-0.532968	-0.158406	-1.410255
F	1.354886	0.0	0.0
H	-0.071276	-1.069207	-1.806288
H	-0.378511	0.879195	0.521136
N	-0.408852	-1.192401	0.829109
O	-0.926197	-0.964045	1.917903
O	-0.137123	-2.295592	0.360597
C	-0.045016	0.972836	-2.202705
N	0.32931	1.871568	-2.859163
C	-2.059528	-0.271484	-1.441233
H	-2.567063	0.550949	-0.93989
H	-2.410933	-0.302159	-2.472929
H	-2.397971	-1.180082	-0.944717
Cl	-5.051424	0.0	0.0
