15

C	0.0	0.0	0.0
C	-0.423579	-0.335414	-1.452923
F	1.354421	0.0	0.0
H	0.543602	-0.364887	-1.972227
H	-0.389801	0.946893	0.361661
N	-0.344104	-1.010037	1.065902
O	-0.140341	-2.192979	0.806059
O	-0.656462	-0.559103	2.161841
C	-1.106356	0.818151	-2.052024
N	-1.488991	1.736221	-2.675074
C	-1.12942	-1.658163	-1.77597
H	-1.400233	-1.643222	-2.834772
H	-0.455319	-2.492798	-1.592439
H	-2.033496	-1.752986	-1.18241
Cl	-3.264654	0.0	0.0
