11
Coordinates from ORCA-job run
  C   -0.72965166830803     -0.26540937211765     -0.41712649880467
  C   0.34863718135853      0.31936154470685      0.47789868563485
  Cl  -0.60053581003211      0.41630861972739     -2.05885021554151
  H   0.23760686363482     -0.05026759068087      1.50021741782591
  H   -0.58211374797367     -1.34254024781429     -0.50738603641973
  H   0.35029140312173      1.40715944203429      0.46089163734010
  C   -2.04391937472512      0.01314811259066      0.15127185116933
  N   -3.08520196081193      0.23945266948856      0.64442223372695
  N   1.69951877513727     -0.13071934590982      0.01580302689083
  O   1.80367360256538     -1.30569047616369     -0.32199772135382
  O   2.60069473603313      0.69919664413856      0.05285561953176
