11
Coordinates from ORCA-job run
  C   -0.94020738801247     -0.13226958849726      0.29211043991154
  C   0.51548251099663     -0.57657314784291      0.29066028737421
  Cl  -1.95559999620068     -1.54087155630118      0.70171700299726
  H   0.79068394149157     -0.96599438448623      1.27225469188346
  H   -1.09985897121153      0.62129250506500      1.06222341226398
  H   0.71637293571036     -1.31768584266400     -0.48032559949859
  C   -1.32621343584882      0.41416853037988     -1.00507442177075
  N   -1.60894041269448      0.85333336422785     -2.05668455483380
  N   1.40999350364051      0.59447374101008      0.02736449791063
  O   2.40806992781773      0.38974708757061     -0.65297796770815
  O   1.08821738431117      1.65937929153815      0.54973221147021
