11
Coordinates from ORCA-job run
  C   -0.75326323815761     -0.38751270327632     -0.22887178848976
  C   0.38202798553437      0.46114928066752      0.31606974730274
  Cl  -0.81918132596466     -0.25446719716434     -2.00517067584770
  H   0.39100585300619      0.43099856885871      1.40829363568543
  H   -0.56613874038985     -1.43661153314654      0.00483841594289
  H   0.33386639583336      1.48798044864748     -0.04012174457910
  C   -2.01723611226962      0.03635859106910      0.36300674490844
  N   -3.02600294274521      0.36727258182297      0.86460954919836
  N   1.69708884858541     -0.09753903149384     -0.13013025014914
  O   1.82240165296655     -1.31743665403195     -0.08209749199915
  O   2.55443162360106      0.70980764804720     -0.46942614197302
