11
Coordinates from ORCA-job run
  C   -0.80793048602906     -0.57205678276990     -0.07729583217552
  C   0.61490772385337     -0.23478174443434     -0.49879285289186
  Cl  -1.56624553128154     -1.52628221044724     -1.38039167783599
  H   1.18184277401496     -1.15056307238477     -0.67408211827252
  H   -0.79530413413811     -1.19261971893275      0.81777006679282
  H   0.64091228559627      0.40057140184046     -1.38170258749974
  C   -1.58221708650681      0.63693121833343      0.18546769907509
  N   -2.18178660625041      1.62439384288448      0.39545181537216
  N   1.31725835685188      0.50064012393805      0.59981811629301
  O   2.10535465455060      1.37695836832588      0.26572095811083
  O   1.07320804933885      0.13680857364669      1.74803641303172
