17

C	0.0	0.0	0.0
C	-0.534649	0.012782	-1.473885
Br	1.975457	0.0	0.0
H	-0.057147	0.842123	-2.009935
N	-0.393783	1.261947	0.680578
O	0.067188	1.361484	1.906929
O	-0.146014	2.298301	-0.096673
N	-0.438513	-1.203014	0.750595
O	-0.177055	-1.138692	2.041529
O	-0.021062	-2.30074	0.154645
N	-2.006716	0.221755	-1.498153
O	-2.703234	-0.861337	-1.194564
O	-2.397123	0.847214	-2.597062
N	-0.230454	-1.207591	-2.289905
O	1.050908	-1.370813	-2.433193
O	-0.941499	-1.247728	-3.390731
H	-1.565901	0.0	0.0
