17

C	0.0	0.0	0.0
C	-0.520587	-0.021815	-1.453711
Br	1.975196	0.0	0.0
H	-0.068107	-0.844768	-1.988624
N	-0.303443	1.225351	0.786982
O	-0.086693	2.277551	0.14374
O	-0.228896	1.151894	2.018237
N	-0.281736	-1.288303	0.68024
O	0.000762	-1.365501	1.882352
O	-0.205351	-2.267135	-0.099256
N	-0.16166	1.126106	-2.409095
O	-0.942293	1.289307	-3.341898
O	1.013861	1.414273	-2.420263
N	-2.022364	-0.1299	-1.595973
O	-2.381217	-0.872723	-2.540587
O	-2.705684	0.840474	-1.214107
H	-1.63273	0.0	0.0
