14
Coordinates from ORCA-job run
  C   0.78498221314803     -0.58506170345186      0.06276117635364
  C   -0.43513010336083      0.31872625707775      0.18763628694749
  H   0.81789255430260     -1.11016670211193     -0.89093380583711
  H   -0.34919921524442      0.87614548539626      1.12398749885688
  H   0.81017207113600     -1.30486600134895      0.88449733000182
  N   2.05876170393866      0.19558278175602      0.16065598145098
  O   2.09573361095768      1.09481362080624      0.99644847726225
  O   2.97958209465011     -0.14752950301486     -0.57392581905523
  C   -1.72135903866618     -0.51409687727331      0.18877846698063
  H   -1.81405476728523     -1.09000883015936     -0.73422944576098
  H   -1.71945127842030     -1.20456333642646      1.03529308845108
  H   -2.59457380967052      0.13361818733542      0.27598709549299
  C   -0.44653342862727      1.29089799991023     -0.90932881040008
  N   -0.46782260685833      2.04650862150480     -1.80762752074437
