15

C	-0.543017	0.006929	-1.41394
C	0.0	0.0	0.0
F	-1.972362	0.133562	-1.319528
H	1.092677	0.0	0.0
H	-0.338045	0.929025	0.467343
C	-0.142876	1.214361	-2.168605
N	0.106317	2.182117	-2.783562
N	-0.191323	-1.139216	-2.158911
H	-0.670513	-1.161621	-3.049616
H	-0.369436	-1.98502	-1.63565
C	-0.498608	-1.198649	0.805817
H	-0.230089	-1.057846	1.854416
H	-0.008666	-2.122914	0.488653
H	-1.582459	-1.319355	0.737658
Cl	3.529044	0.0	0.0
