15

C	-0.508275	0.015809	-1.427208
C	0.0	0.0	0.0
F	-0.095889	1.169468	-2.075773
H	1.093405	0.0	0.0
H	-0.314473	-0.94798	0.454762
C	0.042494	-1.120229	-2.217745
N	0.339128	-2.057103	-2.861258
N	-1.95302	0.022872	-1.47202
H	-2.274283	-0.1553	-2.416587
H	-2.312122	-0.704724	-0.866859
C	-0.509861	1.191859	0.803501
H	-0.042557	1.180461	1.790369
H	-1.5955	1.191392	0.922359
H	-0.218659	2.120134	0.310605
Cl	3.514612	0.0	0.0
