15

C	-0.365275	-0.10577	-1.468195
C	0.0	0.0	0.0
F	-1.699923	-0.535912	-1.607477
H	1.09535	0.0	0.0
H	-0.321147	-0.951084	0.436421
C	-0.356775	1.221426	-2.14408
N	-0.342515	2.267858	-2.67786
N	0.484729	-1.062663	-2.095596
H	1.431983	-0.981753	-1.729677
H	0.497995	-0.955715	-3.101383
C	-0.605815	1.18293	0.733167
H	-0.20208	2.126365	0.360014
H	-0.364495	1.12046	1.796582
H	-1.694856	1.203928	0.628041
Cl	3.454095	0.0	0.0
