16
Coordinates from ORCA-job run
  C   -0.53257471491217     -0.15816278235197      0.61804789039018
  C   0.80349347786341     -0.04592682439541     -0.12822375500587
  H   -0.31856520707066     -0.09441264318890      1.68892535255603
  H   1.43753953828378     -0.88993973812238      0.15427339789878
  C   -1.23044160601256     -1.48217963883097      0.29889369071022
  H   -0.59590927699475     -2.31507797055227      0.61073780671093
  H   -2.17836447577366     -1.55096080929140      0.83493228263141
  H   -1.41567774110794     -1.56434625625856     -0.77120953184370
  C   -1.37690782503911      0.98270328789331      0.25278750421575
  N   -2.04681407249753      1.88650709227676     -0.08484837154913
  N   1.54109977839930      1.16939553774853      0.47288486168817
  O   1.74334885858108      2.13420418272102     -0.25709435642141
  O   1.86087569954582      1.07081782344869      1.65395236389716
  N   0.63635647800037      0.01419727840448     -1.52870881508149
  H   1.52406943726532     -0.01659002852197     -2.01134727361106
  H   0.14947165146929      0.85877148902105     -1.80500304718595
