16
Coordinates from ORCA-job run
  C   -0.40020117763676     -0.55679454640124      0.26335457709858
  C   0.71045004838555      0.47027553253895     -0.03523563355817
  H   -0.19373836507822     -1.43763828405600     -0.35681621248741
  H   0.54906654153349      1.38530616705272      0.53636809457666
  C   -1.80691632750563     -0.03206035934850     -0.03627265254632
  H   -2.55792665331468     -0.76486068412862      0.26178712450081
  H   -1.99691520781235      0.89784135820906      0.50364521419209
  H   -1.92084224116052      0.15620954405860     -1.10487583643453
  C   -0.25918180628807     -0.94098057386394      1.66802671722953
  N   -0.13186157257628     -1.21269911018821      2.80357699493139
  N   0.52393341445214      0.86151497657944     -1.47767146556339
  O   0.76126075081856     -0.01950611655378     -2.30023707694762
  O   0.12372733073557      1.99576728608728     -1.72057175524853
  N   2.05925727479683      0.02674005639151      0.12472593860488
  H   2.18801228935820     -0.91607807453986     -0.21854883573454
  H   2.35187570129215      0.08696282816257      1.08974480738656
