17

C	-0.337758	0.029415	-1.497148
C	0.0	0.0	0.0
F	-1.646466	0.479914	-1.699963
H	1.091844	0.0	0.0
N	0.559396	0.954577	-2.105159
H	1.51099	0.811546	-1.758415
H	0.549371	0.864468	-3.112926
C	-0.318922	-1.313897	-2.135112
N	-0.335048	-2.304256	-2.767631
N	-0.505242	-1.257451	0.617747
O	-1.6117	-1.228216	1.162812
O	0.203296	-2.257442	0.514981
C	-0.527915	1.220405	0.719855
H	-0.179652	1.203592	1.75411
H	-0.121792	2.105633	0.230673
H	-1.615209	1.255156	0.704334
Br	3.454494	0.0	0.0
