17

C	-0.321204	-0.044367	-1.50021
C	0.0	0.0	0.0
F	-0.058764	1.264935	-1.981445
H	1.092125	0.0	0.0
N	0.469931	-1.024333	-2.116597
H	0.420285	-0.968242	-3.1248
H	1.434587	-0.958585	-1.789936
C	-1.757231	-0.25681	-1.798714
N	-2.895907	-0.395056	-2.049936
N	-0.464215	-1.284952	0.608321
O	-1.60842	-1.302941	1.073672
O	0.306961	-2.238954	0.599358
C	-0.586873	1.184996	0.72561
H	-0.124713	2.091325	0.338434
H	-0.354123	1.108556	1.788501
H	-1.669299	1.238671	0.607568
Br	3.471757	0.0	0.0
