17

C	-0.423208	0.058369	-1.4793
C	0.0	0.0	0.0
F	-1.555952	0.872973	-1.636386
H	1.089716	0.0	0.0
N	0.649373	0.588491	-2.247059
H	0.358732	1.342358	-2.84687
H	1.507998	0.760497	-1.732756
C	-0.843193	-1.25784	-2.033527
N	-1.149822	-2.278813	-2.524682
N	-0.550499	-1.188117	0.702663
O	0.210077	-1.876578	1.376196
O	-1.767618	-1.364071	0.597621
C	-0.450873	1.240367	0.755264
H	-0.014485	1.213076	1.755535
H	-0.06927	2.125513	0.245812
H	-1.537516	1.293691	0.816763
Br	3.477085	0.0	0.0
