17

C	-0.221956	0.044789	-1.526055
C	0.0	0.0	0.0
Cl	-1.962091	0.287466	-1.970961
H	1.096605	0.0	0.0
N	0.473049	1.245105	-1.954085
H	0.402516	1.330809	-2.962106
H	1.457032	1.12648	-1.703591
N	0.183052	-1.218902	-2.085313
H	0.248957	-1.13542	-3.093778
H	1.105106	-1.445071	-1.715225
N	-0.529086	-1.285615	0.546415
O	-1.709918	-1.287035	0.891568
O	0.228264	-2.250164	0.601946
N	-0.511664	1.084465	0.769843
H	-1.429595	1.351179	0.435981
H	0.120221	1.864715	0.660894
Cl	3.32587	0.0	0.0
