17

C	-0.466543	-0.000443	-1.464128
C	0.0	0.0	0.0
Cl	0.202164	1.557112	-2.202909
H	1.089719	0.0	0.0
N	0.063352	-1.157547	-2.094454
H	-0.094534	-1.131958	-3.094839
H	1.062899	-1.23408	-1.909954
N	-1.897739	0.148996	-1.566459
H	-2.164468	0.294461	-2.532866
H	-2.329674	-0.697189	-1.212354
N	-0.459767	-1.328721	0.573266
O	0.375615	-2.203922	0.76063
O	-1.666229	-1.443336	0.808185
N	-0.521364	1.049544	0.807238
H	0.18225	1.768959	0.893435
H	-1.365644	1.423098	0.391916
Cl	3.390516	0.0	0.0
