17

C	-0.452606	0.107012	-1.473977
C	0.0	0.0	0.0
Cl	-0.186402	-1.444953	-2.405146
H	1.096379	0.0	0.0
N	-1.863622	0.35406	-1.524075
H	-2.140829	0.591123	-2.470381
H	-2.022848	1.141956	-0.902234
N	0.374643	1.155753	-1.995105
H	1.360001	0.925939	-1.856456
H	0.197474	1.301478	-2.981726
N	-0.503258	-1.230294	0.675271
O	0.07429	-2.281038	0.422029
O	-1.452443	-1.115653	1.457206
N	-0.519534	1.179999	0.68729
H	0.223767	1.868109	0.663426
H	-0.70351	0.937116	1.653099
Cl	3.334059	0.0	0.0
