17

C	-0.258485	0.007229	-1.511435
C	0.0	0.0	0.0
Cl	-2.049188	0.044447	-1.853989
H	1.101206	0.0	0.0
N	0.298788	1.252376	-1.979765
H	0.361616	1.177053	-2.989442
H	1.248819	1.318176	-1.614672
N	0.292284	-1.108888	-2.243106
H	-0.114024	-1.966154	-1.888688
H	1.289747	-1.122145	-2.031994
N	-0.418929	-1.275711	0.70129
O	-0.915331	-2.207776	0.062006
O	-0.208196	-1.301632	1.906659
N	-0.533682	1.111064	0.722469
H	0.223342	1.679883	1.072391
H	-1.119497	1.666048	0.115979
Cl	3.270276	0.0	0.0
