17

C	-0.433221	-0.143975	-1.459726
C	0.0	0.0	0.0
Cl	-2.332964	-0.597325	-1.391275
H	1.09528	0.0	0.0
N	-0.312637	1.113715	-2.081622
H	-0.733636	1.111436	-3.001172
H	-0.72753	1.825712	-1.491641
N	0.220734	-1.204695	-2.124412
H	0.325969	-0.986878	-3.107345
H	1.136424	-1.351919	-1.711361
N	-0.372804	-1.237181	0.794736
O	-1.106306	-1.092468	1.772842
O	0.120121	-2.300109	0.438227
N	-0.506884	1.194152	0.59144
H	0.181034	1.544342	1.24582
H	-1.358927	0.984605	1.098682
Cl	3.274639	0.0	0.0
