16

C	-0.530494	-0.032964	-1.421326
C	0.0	0.0	0.0
Cl	0.041821	1.544873	-2.246559
H	1.096553	0.0	0.0
H	-0.344083	-0.932383	0.462384
C	0.092112	-1.153507	-2.22399
H	1.180056	-1.07357	-2.188836
H	-0.218918	-2.103725	-1.78225
H	-0.243821	-1.122425	-3.262538
N	-1.954071	-0.093191	-1.396987
H	-2.33628	0.125618	-2.308246
H	-2.264268	0.600803	-0.722508
N	-0.600317	1.120942	0.741269
H	-0.447333	0.954997	1.729108
H	-0.060981	1.948483	0.512644
Cl	3.570377	0.0	0.0
