16

C	-0.482362	0.003759	-1.438171
C	0.0	0.0	0.0
Cl	0.030635	-1.666088	-2.193746
H	1.101451	0.0	0.0
H	-0.347352	0.948027	0.429061
C	-1.987682	0.043052	-1.586199
H	-2.275289	-0.021207	-2.639049
H	-2.356668	0.985709	-1.17138
H	-2.426434	-0.788623	-1.038988
N	0.147768	1.077756	-2.107543
H	1.15385	1.033583	-1.955586
H	-0.054255	1.059076	-3.099743
N	-0.601624	-1.104762	0.771164
H	-0.364225	-0.934476	1.743329
H	-0.087121	-1.94193	0.515623
Cl	3.228586	0.0	0.0
