19

C	0.0	0.0	0.0
C	-0.363504	0.02133	-1.529425
Br	1.979818	0.0	0.0
H	0.449296	0.551247	-2.039446
N	-0.459915	1.162297	0.710738
H	-0.440873	1.94563	0.06276
H	-1.461528	0.993104	0.872472
C	-0.488059	-1.225794	0.747339
H	-0.218896	-1.118991	1.799795
H	-0.061022	-2.149813	0.359355
H	-1.582229	-1.239183	0.656372
N	-1.576807	0.81337	-1.721387
H	-2.346537	0.455282	-1.104549
H	-1.887582	0.668831	-2.678724
C	-0.436853	-1.386027	-2.12706
H	0.469082	-1.970371	-1.939764
H	-0.564272	-1.30803	-3.212623
H	-1.304739	-1.912371	-1.72573
H	-3.466665	0.0	0.0
