19

C	0.0	0.0	0.0
C	-0.494842	-0.065059	-1.458556
Br	1.97654	0.0	0.0
H	-1.59067	-0.050288	-1.310267
N	-0.523861	1.206989	0.582305
H	-1.553429	1.086628	0.462093
H	-0.353586	1.180771	1.584492
C	-0.418211	-1.243533	0.773535
H	0.010648	-2.162618	0.368448
H	-0.10762	-1.153241	1.819108
H	-1.516809	-1.258526	0.719586
N	-0.1673	-1.29134	-2.181994
H	-0.697133	-2.058189	-1.786533
H	0.818869	-1.499396	-2.057527
C	-0.078972	1.138694	-2.287908
H	0.982316	1.081225	-2.549276
H	-0.658605	1.140977	-3.214242
H	-0.254835	2.063978	-1.739692
H	-3.16405	0.0	0.0
