19

C	0.0	0.0	0.0
C	-0.430115	-0.070317	-1.535073
Br	1.980621	0.0	0.0
H	0.496103	-0.172763	-2.11541
N	-0.467506	1.238033	0.582789
H	-0.213085	1.233634	1.567026
H	-1.492607	1.147895	0.538997
C	-0.418812	-1.210743	0.82497
H	-1.515787	-1.1939	0.846214
H	-0.06614	-2.158761	0.405229
H	-0.041859	-1.116299	1.851024
N	-1.112694	1.135846	-2.008085
H	-2.059656	1.107301	-1.607608
H	-0.668137	1.938838	-1.572485
C	-1.3315	-1.256521	-1.894046
H	-2.245252	-1.203864	-1.294984
H	-1.624549	-1.105688	-2.930371
H	-0.861307	-2.241221	-1.772752
H	-3.302786	0.0	0.0
