19

C	0.0	0.0	0.0
C	-0.246877	0.033892	-1.55111
Br	1.996583	0.0	0.0
H	0.462452	-0.676425	-1.997616
N	-0.545099	1.106595	0.698031
H	-1.532112	0.884028	0.873066
H	-0.526387	1.898556	0.059194
C	-0.464697	-1.296566	0.62466
H	-1.562468	-1.301553	0.590858
H	-0.067992	-2.16148	0.087622
H	-0.13866	-1.341931	1.666214
N	0.017025	1.404201	-2.008163
H	-0.435508	1.551185	-2.900416
H	1.01417	1.540218	-2.12433
C	-1.653451	-0.384111	-1.941806
H	-1.758552	-1.468552	-1.87893
H	-1.843709	-0.10187	-2.984989
H	-2.444795	0.024465	-1.29611
H	-3.742992	0.0	0.0
