16

C	-0.400068	0.019393	-1.461102
C	0.0	0.0	0.0
F	-1.790653	0.166742	-1.605659
H	1.097753	0.0	0.0
H	0.061887	0.874888	-1.963297
C	-0.029784	-1.208141	-2.186773
N	0.217673	-2.184492	-2.789275
C	-0.515132	-1.240245	0.718823
H	-1.608436	-1.294628	0.688256
H	-0.198653	-1.213739	1.764154
H	-0.105455	-2.151706	0.277368
C	-0.472306	1.286182	0.671758
H	-0.084594	2.165486	0.149252
H	-1.564158	1.349152	0.700822
H	-0.091494	1.322408	1.694908
Cl	3.457599	0.0	0.0
