13

C	0.0	0.0	0.0
C	-0.624492	0.340128	-1.340682
Cl	1.789462	0.0	0.0
H	-0.395889	-0.436488	-2.078109
H	-0.302552	0.768984	0.710645
H	-1.730151	0.301885	-1.056969
C	-0.512173	-1.345272	0.479382
H	-1.604851	-1.229471	0.477494
H	-0.193027	-2.13738	-0.205802
H	-0.132464	-1.574152	1.478455
C	-0.236497	1.638181	-1.86304
N	0.057539	2.691313	-2.294926
F	-2.927192	0.0	0.0
