13

C	0.0	0.0	0.0
C	-0.624102	0.333099	-1.342502
Cl	1.789435	0.0	0.0
H	-1.729708	0.298534	-1.057631
H	-0.301121	0.773816	0.705897
H	-0.397214	-0.447735	-2.075914
C	-0.511463	-1.341299	0.488744
H	-0.133775	-1.559862	1.490842
H	-0.187918	-2.138884	-0.187625
H	-1.604786	-1.227429	0.482508
C	-0.234238	1.627599	-1.873184
N	0.062017	2.678259	-2.31007
F	-2.926583	0.0	0.0
