13

C	0.0	0.0	0.0
C	-0.61951	-0.35418	-1.339708
Cl	1.790317	0.0	0.0
H	-1.72655	-0.270709	-1.064255
H	-0.312016	1.019204	0.226877
H	-0.353104	0.381479	-2.104933
C	-0.491446	-0.925863	1.097576
H	-1.585369	-0.847375	1.047588
H	-0.153859	-1.949718	0.914088
H	-0.112112	-0.602578	2.070434
C	-0.270462	-1.68427	-1.80982
N	-0.003451	-2.759171	-2.205138
F	-2.913558	0.0	0.0
