14

C	-0.324599	0.088859	-1.487487
C	0.0	0.0	0.0
Cl	-2.142799	0.523334	-1.722656
H	1.094304	0.0	0.0
H	-0.361329	-0.937386	0.428378
N	0.418549	1.172872	-2.039429
H	1.396904	1.045639	-1.777105
H	0.333525	1.201043	-3.048165
N	-0.064226	-1.176397	-2.091121
H	-0.191436	-1.123644	-3.094766
H	-0.673534	-1.89636	-1.721598
C	-0.499776	1.125709	0.775446
N	-0.886964	2.0118	1.440287
Cl	3.354232	0.0	0.0
