14

C	-0.32254	-0.099076	-1.48679
C	0.0	0.0	0.0
Cl	-2.138875	-0.552226	-1.719328
H	1.094304	0.0	0.0
H	-0.3609	0.939853	0.42165
N	-0.07708	1.165798	-2.095998
H	-0.195682	1.106906	-3.099835
H	-0.697864	1.879302	-1.731808
N	0.431014	-1.176785	-2.033981
H	0.343314	-1.216645	-3.041874
H	1.40744	-1.041293	-1.770705
C	-0.497425	-1.121116	0.782968
N	-0.883674	-2.004968	1.450882
Cl	3.351872	0.0	0.0
