14

C	-0.56503	0.035501	-1.418149
C	0.0	0.0	0.0
Cl	-0.02373	1.521721	-2.260375
H	1.090867	0.0	0.0
H	-0.307358	-0.951588	0.456771
N	-0.005359	-1.072867	-2.156194
H	-0.338796	-1.069853	-3.114121
H	-0.254391	-1.948572	-1.706405
N	-2.020076	0.134169	-1.351439
H	-2.372319	-0.699202	-0.891188
H	-2.39587	0.159593	-2.293471
C	-0.519371	1.081474	0.830148
N	-0.91635	1.938408	1.526482
Cl	3.415511	0.0	0.0
