14

C	-0.409577	0.066296	-1.477177
C	0.0	0.0	0.0
Cl	-0.145096	-1.548913	-2.226863
H	1.09225	0.0	0.0
H	-0.294584	0.952556	0.461223
N	-1.810308	0.375548	-1.606189
H	-2.017169	1.203772	-1.058338
H	-1.996782	0.578963	-2.582227
N	0.436799	0.987502	-2.215882
H	1.40995	0.712138	-2.077332
H	0.341404	1.901259	-1.778281
C	-0.593741	-1.085949	0.761585
N	-1.066861	-1.954594	1.393369
Cl	3.350703	0.0	0.0
