14

C	-0.419492	-0.067758	-1.475773
C	0.0	0.0	0.0
Cl	0.051799	1.59042	-2.165529
H	1.092068	0.0	0.0
H	-0.35911	0.909609	0.487739
N	0.30977	-1.032928	-2.250475
H	1.305662	-0.875831	-2.105982
H	0.079068	-1.949939	-1.878608
N	-1.804307	-0.331516	-1.632179
H	-2.032605	-0.32939	-2.618431
H	-2.363931	0.358544	-1.149084
C	-0.484277	-1.171758	0.723529
N	-0.874688	-2.111205	1.309962
Cl	3.347621	0.0	0.0
