15

C	-0.154804	-0.001231	-1.518733
C	0.0	0.0	0.0
Cl	-1.838778	-0.438054	-2.040948
H	1.092998	0.0	0.0
H	-0.038847	1.047217	-1.793193
N	0.826795	-0.788266	-2.225077
H	0.666696	-1.754807	-1.959464
H	1.703347	-0.536852	-1.739285
N	-0.459896	-1.294227	0.599467
O	-0.104948	-2.344524	0.063175
O	-1.160183	-1.252196	1.61561
N	-0.568314	1.144163	0.624986
H	-0.105731	1.298184	1.511153
H	-1.554856	1.001215	0.807101
F	2.599919	0.0	0.0
