15

C	-0.217447	0.099868	-1.518107
C	0.0	0.0	0.0
Cl	-0.223026	-1.616022	-2.287986
H	1.097176	0.0	0.0
H	-1.209187	0.466457	-1.801226
N	0.837869	0.911845	-1.972673
H	0.915186	0.939184	-2.978531
H	1.71885	0.627496	-1.504524
N	-0.696951	-1.182678	0.562253
O	-0.044416	-2.118456	1.011688
O	-1.93091	-1.130421	0.543576
N	-0.461829	1.162929	0.714232
H	-1.289709	1.563677	0.288126
H	0.29011	1.838398	0.683218
F	2.657605	0.0	0.0
