15

C	-0.212049	0.315842	-1.489473
C	0.0	0.0	0.0
Cl	-0.222128	-1.27383	-2.49335
H	1.089413	0.0	0.0
H	-1.199952	0.723251	-1.721785
N	0.847388	1.178752	-1.820566
H	0.925845	1.355888	-2.810913
H	1.72725	0.829928	-1.394114
N	-0.700555	-1.249394	0.385361
O	-0.051565	-2.233199	0.724586
O	-1.934214	-1.198313	0.349663
N	-0.461279	1.047031	0.874578
H	-1.280865	1.514637	0.506303
H	0.296291	1.711454	0.9584
F	2.661045	0.0	0.0
