15

C	-0.282603	0.084791	-1.519999
C	0.0	0.0	0.0
Cl	-0.602618	-1.535882	-2.275353
H	1.08934	0.0	0.0
H	-1.197169	0.654658	-1.700311
N	0.842987	0.711571	-2.156696
H	1.685254	0.450104	-1.615285
H	0.72653	1.71203	-2.048201
N	-0.594632	-1.21068	0.648605
O	0.062503	-2.246096	0.667339
O	-1.739722	-1.10592	1.112532
N	-0.472325	1.221276	0.589629
H	0.099748	1.431458	1.39713
H	-1.437132	1.115236	0.880441
F	2.640234	0.0	0.0
