15

C	-0.60895	0.055286	-1.396753
C	0.0	0.0	0.0
Cl	0.076113	1.500265	-2.2169
H	1.093088	0.0	0.0
H	-0.28215	-0.800741	-1.980107
N	-2.050757	0.152307	-1.429492
H	-2.427826	-0.753089	-1.168196
H	-2.303909	0.828412	-0.712944
N	-0.413058	-1.289689	0.604806
O	-0.692538	-1.332248	1.808749
O	-0.425515	-2.288161	-0.122585
N	-0.470829	1.112158	0.809366
H	0.36391	1.63003	1.064036
H	-0.851313	0.737707	1.669962
F	2.536383	0.0	0.0
