15

C	-0.495725	-0.029613	-1.439169
C	0.0	0.0	0.0
Cl	0.130973	1.487051	-2.272848
H	1.091884	0.0	0.0
H	-0.007868	-0.844598	-1.965099
N	-1.914011	-0.155662	-1.547601
H	-2.191887	-0.214486	-2.51915
H	-2.373723	0.651866	-1.14408
N	-0.470065	-1.311705	0.574403
O	-0.132061	-2.320773	-0.047861
O	-1.139856	-1.33411	1.604106
N	-0.411346	1.089669	0.818739
H	0.349899	1.751201	0.851236
H	-1.271119	1.546592	0.547388
F	2.563857	0.0	0.0
