15
Coordinates from ORCA-job run
  C   -0.46267989046440     -0.04352798819108     -0.27022260035428
  C   0.98643984619186     -0.48267062381154     -0.09803653060124
  Br  -1.57919267432467     -1.43999609279332      0.76340455197177
  H   1.10883388184506     -1.45723910665561     -0.59623905779197
  H   1.58078189178471      0.24907971111204     -0.65550471444496
  N   -0.79782348895626     -0.04278200432344     -1.64032537045832
  H   -1.75295990537039      0.25202838104595     -1.79733733381055
  H   -0.65515752576001     -0.94825877296204     -2.06992071046417
  C   -0.76713566842824      1.28913580447962      0.37563532374084
  H   -0.48737024544726      1.27229668473873      1.42589015467461
  H   -0.18242287624562      2.05716085338281     -0.13959415012586
  H   -1.82792580451460      1.53207364188454      0.28462444168358
  N   1.40779891521446     -0.45844544052639      1.29246188832289
  H   2.41586552110670     -0.52555814216912      1.34451741914150
  H   1.01494802336866     -1.25229690521117      1.78264668851617
