15
Coordinates from ORCA-job run
  C   -0.65998110889888     -0.26062283422902     -0.03654276624314
  C   0.66236481517089     -0.84590619661850      0.46156495823416
  Br  -2.09401954347903     -1.38641762413199      0.74690205696278
  H   0.71011336989691     -1.87947066488665      0.11370912269776
  H   0.66049875668050     -0.85524972342621      1.55759188356543
  N   -0.70158737067022     -0.40846312805837     -1.46402855548789
  H   -1.45773766326102      0.13329917617839     -1.86474994901119
  H   0.18636804585157     -0.06698141674247     -1.82024893577883
  C   -0.88738573434122      1.15746215135350      0.46979395022669
  H   -1.85834077635547      1.53066799031160      0.13709186076868
  H   -0.85855223027147      1.20911955956567      1.56079850159092
  H   -0.10971759468042      1.80464305280960      0.05268386915927
  N   1.77094485708359     -0.08904257804799     -0.12627713712430
  H   2.56505960022696     -0.69422603593131     -0.28410638541103
  H   2.06997257704732      0.65018827185375      0.49581752585071
