14

C	0.0	0.0	0.0
C	-0.467602	0.088551	-1.48893
Cl	1.760536	0.0	0.0
H	0.432615	0.044077	-2.113607
H	-0.375387	0.839531	0.567418
N	-0.398719	-1.214777	0.785083
O	-0.591645	-1.041878	1.981971
O	-0.376124	-2.294875	0.208244
N	-1.15919	1.338861	-1.769358
H	-0.551517	2.10503	-1.494194
H	-1.946306	1.253509	-1.106552
C	-1.31441	-1.017341	-1.957755
N	-1.877104	-1.860021	-2.551263
F	-2.413526	0.0	0.0
