14

C	0.0	0.0	0.0
C	-0.471057	-0.055421	-1.489339
Cl	1.760587	0.0	0.0
H	0.434556	-0.1326	-2.103106
H	-0.375937	0.89097	0.484376
N	-0.400346	-1.132407	0.903847
O	-0.623407	-0.838048	2.071807
O	-0.352229	-2.267123	0.444094
N	-1.195038	1.142684	-1.890542
H	-1.987277	1.091132	-1.227421
H	-0.617012	1.949799	-1.673692
C	-1.276631	-1.230382	-1.846692
N	-1.796883	-2.140987	-2.373045
F	-2.440979	0.0	0.0
