14

C	0.0	0.0	0.0
C	-0.486078	-0.136285	-1.462396
Cl	1.748115	0.0	0.0
H	0.400876	-0.259805	-2.094601
H	-0.375502	0.9214	0.421395
N	-0.413105	-1.080639	0.953227
O	-0.416139	-2.235319	0.543602
O	-0.591262	-0.73064	2.11323
N	-1.123162	1.131878	-1.803119
H	-1.357565	1.108545	-2.790773
H	-1.9848	1.040728	-1.232968
C	-1.334073	-1.306941	-1.767293
N	-1.908643	-2.183386	-2.30063
F	-2.468743	0.0	0.0
