14

C	0.0	0.0	0.0
C	-0.379601	-0.082865	-1.48871
Cl	1.761066	0.0	0.0
H	0.406835	-0.628614	-2.001213
H	-0.373006	0.882877	0.497904
N	-0.402631	-1.193097	0.798937
O	-0.541028	-1.021599	1.999608
O	-0.438933	-2.276422	0.217411
N	-0.39848	1.241102	-2.082554
H	0.469181	1.695924	-1.871441
H	-1.147948	1.734851	-1.631909
C	-1.615913	-0.773345	-1.865418
N	-2.380813	-1.348685	-2.541759
F	-2.340778	0.0	0.0
