14

C	0.0	0.0	0.0
C	-0.311172	-0.073938	-1.562095
Cl	1.749102	0.0	0.0
H	0.516637	0.506826	-1.984111
H	-0.39042	0.921714	0.414245
N	-0.504536	-1.081776	0.9032
O	-0.603514	-0.759476	2.081314
O	-0.681483	-2.19858	0.444182
N	-1.525289	0.4622	-2.120809
H	-1.428683	1.473114	-2.101341
H	-2.248923	0.230347	-1.371049
C	-0.067712	-1.431386	-2.089101
N	0.207899	-2.457914	-2.589051
F	-2.605682	0.0	0.0
