18
Coordinates from ORCA-job run
  C   0.62188341693326     -0.55460202998741      0.57341623412860
  C   -0.42396867540038      0.52730083013636      0.32610133264573
  Cl  0.43100307095191     -1.32064180637945      2.13692463482779
  H   -0.33034250810709      1.19069388898934      1.19143888250154
  N   0.55795353860688     -1.59247059738038     -0.54408166132314
  O   0.00343685184570     -2.65668872115401     -0.31965953011439
  O   1.02002957019278     -1.20480688596573     -1.61118411348007
  N   2.05762227472054     -0.02141594877812      0.56507012105638
  O   2.19867332168792      1.14908115429193      0.89291292025525
  O   2.93699464904354     -0.83157198903077      0.31260074748981
  C   -1.82724436017623     -0.08363517806666      0.30900664496204
  H   -2.55992598566788      0.72269635413691      0.23905926177631
  H   -1.96408959913343     -0.73037506627177     -0.56117974442043
  H   -2.04616563015474     -0.66308272962558      1.20532123181462
  C   -0.19584607956545      1.35111365978916     -0.94322870761543
  H   -0.38575727831094      0.76564878156383     -1.84290035874287
  H   -0.90167267689569      2.18506867705072     -0.92942790959450
  H   0.80841609942929      1.76668760668164     -1.00118998616724
