18
Coordinates from ORCA-job run
  C   0.60875314356754     -0.57207329253194      0.34866103371182
  C   -0.46177368656281      0.27953793911173     -0.31243569955462
  Cl  0.46382862165059     -0.67644259626039      2.07864976740384
  H   -0.35192343765910      0.08491448475080     -1.38324489671702
  N   0.67370472959133     -2.00305655572322     -0.21357346209655
  O   1.56606497243441     -2.70199278154830      0.24409377054029
  O   -0.13810535445937     -2.31073301610552     -1.07572017634192
  N   1.98099980048193     -0.00562012596550     -0.04737408739446
  O   2.23824184427874     -0.15752913093334     -1.23624280193425
  O   2.64300501992436      0.58450833797436      0.78775258767800
  C   -0.20218816263269      1.76317380465610     -0.04642448741367
  H   -0.15773573341271      1.97466091609316      1.02426703839923
  H   0.72364156316478      2.11136240222834     -0.50787865042399
  H   -1.02126538559660      2.34614158546035     -0.47224082540957
  C   -1.86986647294758     -0.11565358909335      0.12834751270188
  H   -2.04098597296253     -1.18832587973269      0.04816154783247
  H   -2.06164397155665      0.19894536304056      1.15543691418361
  H   -2.59175151730364      0.38818213457887     -0.51823508516509
