18
Coordinates from ORCA-job run
  C   0.69583097468043     -0.46179881271032      0.34945045521391
  C   -0.37703219971198      0.38686278010434     -0.31164572026959
  Cl  0.74952848672595     -0.31420890115151      2.08152922712265
  H   -0.15353440485510      0.33648011927951     -1.38126633417608
  N   0.46895439805207     -1.92428628435614     -0.06340454140242
  O   0.68634603875832     -2.12675007387368     -1.25269224043782
  O   0.04317637308081     -2.71434000886259      0.76028445396068
  N   2.10684193545555     -0.18490745772929     -0.19864906515176
  O   2.22320082720854      0.68510282833164     -1.05102318029447
  O   2.99126598304599     -0.89392786444347      0.25890969866747
  C   -0.32541762765967      1.84373275175845      0.14448839810996
  H   -0.68434983979831      1.94619169484926      1.16983382781247
  H   -0.97881513222136      2.43449974875736     -0.50134718007203
  H   0.67816303960367      2.26153200512150      0.07661270835076
  C   -1.76101459633371     -0.21484104311171     -0.06289758974322
  H   -1.87947073808169     -1.19163100989575     -0.53532252282711
  H   -2.51580287748929      0.44969030891964     -0.48804552842184
  H   -1.96487064046026     -0.31840078098723      1.00518513355844
