18
Coordinates from ORCA-job run
  C   0.69229822148574     -0.46435852770651      0.35227909454910
  C   -0.37432677599563      0.38964687122755     -0.31240761930272
  Cl  0.72779784914760     -0.33189965483301      2.08608787153920
  H   -0.13921959212642      0.34896292976274     -1.37991866481447
  N   0.47087952785756     -1.92301105193177     -0.07602781860108
  O   0.70017013771063     -2.11432956418331     -1.26492959739054
  O   0.03750895552836     -2.72089365718049      0.73609601508224
  N   2.10888179278774     -0.18148066268105     -0.17844860496117
  O   2.98892831019430     -0.89394728244329      0.28213944096260
  O   2.23315849058467      0.69597463540776     -1.02199304349785
  C   -0.32864887714431      1.84215187713797      0.15790934421403
  H   -0.70014064609729      1.93471443927040      1.17972158217969
  H   -0.97412941476897      2.43910999663289     -0.49018765841669
  H   0.67554565702685      2.26085950930754      0.10652230516781
  C   -1.76011547837824     -0.21569922224234     -0.08345769939562
  H   -1.87313372178295     -1.18715797441071     -0.56806108900924
  H   -2.51172552936474      0.45294436026216     -0.50778121488206
  H   -1.97372890666487     -0.33158702139655      0.98145735657678
