18
Coordinates from ORCA-job run
  C   0.61930594946254     -0.48714451924915      0.42499356540976
  C   -0.40592460185824      0.31915765297352     -0.35035407334494
  Cl  0.45865177061995     -0.35836834149859      2.14400563136905
  H   -0.17383013799634      0.13502452988814     -1.40062568612340
  N   0.56367592296179     -1.97952896728683     -0.00082541610990
  O   0.70912336034890     -2.83156493169362      0.86118386001468
  O   0.40474578619876     -2.16042011222329     -1.20172755879654
  N   2.05649687548621     -0.08383173332112     -0.00331302965560
  O   2.19350722438699      0.11138738494424     -1.20467220858770
  O   2.92003507255414     -0.02432354599161      0.85746787396172
  C   -0.25877686201435      1.81140972035889     -0.06311124787726
  H   -0.95802124975142      2.36408051383970     -0.69425771211264
  H   -0.48932784143064      2.04310322116867      0.97825770415517
  H   0.74516748561867      2.17580840146429     -0.28961292023012
  C   -1.82168191483681     -0.17339607184839     -0.06051934361745
  H   -2.52372905574943      0.37569260681556     -0.69168044928279
  H   -2.09967063787031     -0.00191377661569      0.98092269561986
  H   -1.94074714613041     -1.23517203172472     -0.28513168479188
