18
Coordinates from ORCA-job run
  C   0.70797204907348     -0.47813742074285      0.54126179186493
  C   -0.58782309974323      0.30339166638253      0.35515422386669
  Cl  1.50261620454538     -0.10081519300657      2.05546002008378
  H   -1.16725502902705      0.07772460341842      1.25570338721670
  N   0.50160109709106     -1.99584617189034      0.56818247308665
  O   -0.59115621118359     -2.38377805197205      0.95891077248336
  O   1.47139575326926     -2.68030987640471      0.27795379674962
  N   1.64071914894427     -0.20805501325889     -0.63702059479094
  O   1.30424611394793     -0.76346505240877     -1.67647593352054
  O   2.56641595239816      0.57213001509915     -0.47959907136229
  C   -1.40861076161496     -0.11464729408407     -0.86699121070820
  H   -2.38004709672935      0.38117963528680     -0.80053288148617
  H   -0.93436117741270      0.19933323838945     -1.79699897753955
  H   -1.58641812272107     -1.18752993386544     -0.91013409430452
  C   -0.30148555027103      1.80594470424272      0.30467610863452
  H   -1.25166663946376      2.34280817714394      0.27448790650140
  H   0.25838646419864      2.15775523389989      1.17063392780948
  H   0.25647090469859      2.07131673377087     -0.59667164458487
