18
Coordinates from ORCA-job run
  C   0.62825751743699     -0.55520381990254      0.56533889443925
  C   -0.43147337375112      0.51618688339919      0.33383446849691
  Cl  0.44547960743868     -1.34955494742593      2.11551148673340
  H   -0.34744543514903      1.16687759833261      1.20978233044307
  N   0.58058450318448     -1.57511164383121     -0.56981336375954
  O   1.03996105518471     -1.16345902356168     -1.62895450091479
  O   0.03811612669855     -2.64947719375085     -0.36519624991465
  N   2.05706261378036     -0.00291558512844      0.56821693187310
  O   2.18221748831419      1.16382525923419      0.91506813814042
  O   2.94694835976250     -0.79826289896889      0.30585300263990
  C   -1.82657445743582     -0.11233816646401      0.30601684428221
  H   -2.03994072858578     -0.70452658734387      1.19534629129915
  H   -2.56912601459880      0.68561293419504      0.24391316030518
  H   -1.95416734781755     -0.75105441098713     -0.57147740571685
  C   -0.21252070748122      1.36204040316229     -0.92238083403032
  H   -0.92312822337245      2.19157271440966     -0.89315914892814
  H   -0.40207093305165      0.78989691355897     -1.83072438952006
  H   0.78881994944297      1.78489157107263     -0.97817565586815
