18
Coordinates from ORCA-job run
  C   0.61722344690544     -0.56295050337779      0.34877080252185
  C   -0.46864393508347      0.27158770272801     -0.30949185027050
  Cl  0.50659694718415     -0.62993627939829      2.08300975893741
  H   -0.37919866722326      0.05385219593427     -1.37771823430843
  N   0.67503983307641     -2.00586226834270     -0.18360057533064
  O   -0.15089419046909     -2.33304577160267     -1.02488631344459
  O   1.57661691551951     -2.69340295485685      0.27343109545005
  N   1.97929166237504     -0.00134601612998     -0.08681335915455
  O   2.65522016421330      0.60966998373284      0.72181407873063
  O   2.21353110118477     -0.17846583830949     -1.27698723690746
  C   -0.20774796483337      1.76111721945018     -0.08052748815587
  H   -1.03631530163613      2.33330467574341     -0.50258756569726
  H   -0.14292051329442      1.99556741740960      0.98433040245508
  H   0.70808034029731      2.10123173266999     -0.56728491329818
  C   -1.86643791823091     -0.11735696235801      0.16776613589746
  H   -2.03943276415300      0.22098296454151      1.19064058482530
  H   -2.60276017135052      0.36825442816677     -0.47648342319067
  H   -2.03524898448181     -1.19220172600078      0.11661810094034
