16

C	-0.526184	0.025683	-1.422519
C	0.0	0.0	0.0
F	0.18303	-0.875896	-2.213827
H	1.093361	0.0	0.0
H	-1.576058	-0.297346	-1.473257
C	-0.33802	1.397932	-2.030268
H	-0.990677	2.129856	-1.556682
H	-0.552971	1.348428	-3.101334
H	0.699339	1.696905	-1.873635
N	-0.409836	-1.282852	0.675232
O	-0.447379	-1.283936	1.910455
O	-0.653995	-2.275905	-0.012268
N	-0.44389	1.137347	0.760354
H	0.156577	1.213752	1.573118
H	-1.39476	1.003613	1.094176
F	2.559762	0.0	0.0
