16

C	-0.46627	0.031118	-1.448631
C	0.0	0.0	0.0
F	-0.139217	-1.138847	-2.133874
H	1.098532	0.0	0.0
H	-1.559848	0.137742	-1.5224
C	0.274139	1.164986	-2.135373
H	1.328415	1.066802	-1.86284
H	-0.093823	2.130993	-1.794408
H	0.149643	1.079557	-3.217998
N	-0.496507	-1.18136	0.774821
O	-0.702165	-1.01879	1.985239
O	-0.642976	-2.262622	0.206138
N	-0.378493	1.237222	0.643077
H	0.358652	1.468751	1.296262
H	-1.228984	1.120424	1.177609
F	2.583114	0.0	0.0
