16

C	-0.400483	0.016828	-1.468125
C	0.0	0.0	0.0
F	-0.293151	-1.280336	-1.985335
H	1.090683	0.0	0.0
H	-1.456288	0.30153	-1.592024
C	0.563241	0.915155	-2.216773
H	1.570605	0.689454	-1.853336
H	0.343671	1.967366	-2.01176
H	0.478212	0.745735	-3.291912
N	-0.668591	-1.182883	0.626513
O	-0.001257	-2.161929	0.943091
O	-1.89543	-1.101487	0.756851
N	-0.413078	1.183568	0.708501
H	-1.213643	1.646261	0.297458
H	0.381957	1.806412	0.75653
F	2.64937	0.0	0.0
