14
Coordinates from ORCA-job run
  C   -0.33672933981741      0.29698595998801     -0.18777292444367
  C   0.69777107040836     -0.14552737534923      0.58236079082186
  N   -0.94158002283737      1.53383146016641      0.01154322248420
  H   -1.93200125343551      1.54381052431287     -0.18147671918023
  H   -0.72133799833051      1.97835312702273      0.89287752470454
  C   -0.78844768904458     -0.42788153598489     -1.41963197865254
  H   -0.54791285882001     -1.48986570888452     -1.37173039463899
  H   -1.87239404118250     -0.33812365382372     -1.53466934729801
  H   -0.33195994531495     -0.00104397951280     -2.31796355412535
  C   1.00845382086288      0.57803289092730      1.77741880206329
  N   1.19478851495282      1.18291487937221      2.77092477458562
  N   1.57903543651985     -1.21317512475733      0.26839663319714
  H   1.54952860680797     -1.46807824722081     -0.70678345618867
  H   1.44078569923099     -2.02923321625623      0.85050662667081
