14
Coordinates from ORCA-job run
  C   -0.25446571822347      0.22096752123631     -0.29391727412659
  C   0.66524339433925     -0.40834476363364      0.48855408983103
  N   -0.11997359419642      1.57646957965932     -0.58581539417825
  H   -0.96404475602815      2.00482381001012     -0.93407836716225
  H   0.29413536327520      2.11790610736405      0.15979700703905
  C   -1.36354576149551     -0.48563031084014     -1.00790080086236
  H   -1.37293932612181     -1.55111559207218     -0.78285478433103
  H   -2.33190753413179     -0.06260701043469     -0.72106668438472
  H   -1.25310765485564     -0.36215768303426     -2.08968936484697
  C   0.52441554911790     -1.79945700644479      0.78698655128006
  N   0.39359842371288     -2.93568784068319      1.06663623792603
  N   1.83462901963249      0.21881281749742      0.98963587380182
  H   1.79099554839181      0.49611914679826      1.96043111583430
  H   2.15796704658327      0.97090122457738      0.39928179417987
