14
Coordinates from ORCA-job run
  C   -0.35275557710134      0.30410595548837     -0.11771219470308
  C   0.79809250332778     -0.16867801100543      0.44009751805359
  N   -0.88634695261318      1.54647633207824      0.20973994653646
  H   -1.89503998066671      1.57661214358482      0.20279136691163
  H   -0.49887908957565      1.97132248637947      1.04180303179885
  C   -1.03736123798823     -0.38855705810526     -1.25727302175749
  H   -0.74438225357723      0.04965236650079     -2.21620731364925
  H   -2.12202143991067     -0.27847120889065     -1.16977668936466
  H   -0.81313162766955     -1.45496987081022     -1.27262763528997
  C   1.33759152296785      0.52644149122385      1.56885115497475
  N   1.71777731154909      1.10783526893714      2.51998646511120
  N   1.58526750329510     -1.24493139550799     -0.04743877673558
  H   1.53804793017113     -2.07025934076429      0.53585316988866
  H   1.37314138779162     -1.47857915910883     -1.00508702177509
