14
Coordinates from ORCA-job run
  C   -0.38111153069526      0.31891712602469     -0.20928091499095
  C   0.63502613823317     -0.26220796392684      0.49127786827954
  N   -1.00181385025125      1.47595864764804      0.20961806393384
  H   -0.85803271611535      1.74049578915592      1.17369097997382
  H   -1.95133806316530      1.59512563749698     -0.10431381710386
  C   -0.82788298487509     -0.20063014307180     -1.53903843130963
  H   -0.25174543102432     -1.08173794373583     -1.80843039913695
  H   -0.69871371182892      0.57186684150859     -2.30224890762283
  H   -1.89141680579485     -0.46011640669462     -1.50637146075178
  C   0.98866756274652      0.28659409974402      1.76480206316162
  N   1.26278982602417      0.74357532900756      2.81654012521523
  N   1.34976233784605     -1.39128736618751     -0.02271514909802
  H   2.32897838959956     -1.16583910529244     -0.15248205684236
  H   1.29683083930088     -2.17071454167679      0.62195203629235
