14
Coordinates from ORCA-job run
  C   -0.30243952792663      0.30533595332806     -0.23606890326620
  C   0.86974451746535     -0.12514304565399      0.31134277584834
  N   -0.48213353943186      1.60900122558548     -0.68778328500671
  H   0.22363063739324      2.26631264780327     -0.38306514626902
  H   -1.41651290471401      1.96586306716861     -0.55436503641500
  C   -1.42788456484443     -0.62875253589451     -0.56328285576001
  H   -2.39031514292141     -0.13508206098951     -0.40012651034368
  H   -1.40360459248299     -1.52249777030493      0.05995705723346
  H   -1.39435337476551     -0.92949853139587     -1.61495969295144
  C   1.85818583092139      0.85308910408904      0.64926440925976
  N   2.62139931573082      1.69945437969056      0.94725744305710
  N   1.26182411630260     -1.47725253672433      0.49527218507744
  H   1.27014361988247     -1.76160979015207      1.46631674608395
  H   0.71231560939099     -2.11922010654980     -0.05475918654798
