14
Coordinates from ORCA-job run
  C   -0.39012641415682      0.25501261739910     -0.08250463839855
  C   0.78071247781460     -0.14983651991498      0.48929348328531
  N   -1.14988853826311      1.30296282179354      0.41845435199658
  H   -1.64671475480911      1.83251026577322     -0.28170821599488
  H   -0.67667603814717      1.89694935112347      1.08581529195246
  C   -0.98632481260006     -0.44271794307275     -1.26802996834103
  H   -2.07568676013639     -0.43592855294563     -1.18976877036254
  H   -0.65911994423771     -1.48093465137764     -1.32326797834846
  H   -0.71088543637837      0.05138680386386     -2.20650228258251
  C   1.25615651537619      0.57417395904351      1.62726356772591
  N   1.58282078984175      1.20360110818592      2.56784372482832
  N   1.63055186164554     -1.19226157476277      0.02524623845137
  H   1.53294868581823     -1.35808451347213     -0.96453316154634
  H   1.51323236823244     -2.05783317163671      0.53639835733437
