14
Coordinates from ORCA-job run
  C   -0.31911102350602      0.29408161887565     -0.24028766258703
  C   0.87457224779450     -0.07837564279748      0.30426932940720
  N   -0.54862393854889      1.57137787660023     -0.74138799636677
  H   -1.49009781603226      1.90596319158987     -0.60128984439358
  H   0.14070178422667      2.26018763910946     -0.46898802404170
  C   -1.40682362226136     -0.69785735221584     -0.52445018951394
  H   -2.39114228389930     -0.22971637275778     -0.42458478378925
  H   -1.32863587534616     -1.07038210535492     -1.55239433897025
  H   -1.37070930023337     -1.54763662892495      0.15789431610030
  C   1.83253263605445      0.94110005870270      0.60351026808851
  N   2.57231179132959      1.81661143451151      0.87590331028126
  N   1.30494605828894     -1.41094174330471      0.53144266101320
  H   0.77889913246127     -2.09107020978906      0.00609646434745
  H   1.35018020967194     -1.66234176424465      1.51026649042462
