14
Coordinates from ORCA-job run
  C   -0.32310391735583      0.31423534931210     -0.18835450358628
  C   0.85662291005734     -0.11236808354140      0.34659958791545
  N   -0.64218536137805      1.66045181583224     -0.33304845382396
  H   0.13421945997269      2.29780592506390     -0.21681579632782
  H   -1.18523820541188      1.87353892747655     -1.15623592822289
  C   -1.39731845577639     -0.64406624742254     -0.61261664881873
  H   -1.43528610620269     -1.50353474022316      0.05857745342332
  H   -2.36896465642548     -0.14844136193137     -0.57511589112432
  H   -1.24474035156246     -1.01887232903185     -1.62973162196206
  C   1.81610040908771      0.87111377755994      0.73798618424259
  N   2.54693117652246      1.73392488772951      1.06716193836175
  N   1.26597367051424     -1.46425401887467      0.50424115513342
  H   1.26976638941569     -1.75667789808180      1.47364917645253
  H   0.70522303854265     -2.10285600386745     -0.04029665166300
