14
Coordinates from ORCA-job run
  C   -0.31030950294389      0.31662332228444     -0.17695007242405
  C   0.67455910792045     -0.21893394259014      0.59828779147700
  N   -0.92261416788887      1.52785641809565      0.12508995997295
  H   -1.90151182249552      1.56251812544282     -0.11577149527082
  H   -0.74926786005374      1.87396549888776      1.06033812277818
  C   -0.71586992695509     -0.26279893343699     -1.49977810035168
  H   -0.32202602965865      0.34098165463299     -2.32090745029970
  H   -0.38450964985552     -1.29334232782031     -1.61907778485669
  H   -1.80750071017831     -0.25159669275256     -1.58041972906325
  C   0.89439970300780      0.35302156999931      1.89158103554284
  N   0.98769647794526      0.82504563753583      2.96673596584475
  N   1.56288088593227     -1.26249199013060      0.22969066650243
  H   1.32651838315600     -2.15641615636341      0.64491778087227
  H   1.66655511206779     -1.35543218378478     -0.76773669072422
