14
Coordinates from ORCA-job run
  C   -0.35754042027201      0.30207885374256     -0.27507642321974
  C   0.76911914826947     -0.18237987737582      0.32261259639483
  N   -0.47967682074146      1.61731195402637     -0.66806637657682
  H   0.18536382799616      2.26931879378798     -0.27727689036605
  H   -1.42133177363183      1.97293123849930     -0.70383227279358
  C   -1.50538557366719     -0.58371830158966     -0.64341009540428
  H   -2.42181646379921     -0.23928445040089     -0.15245905854638
  H   -1.67287086906380     -0.54349929363588     -1.72335692533707
  H   -1.29970312197703     -1.60719416710454     -0.34163478512774
  C   1.81170761217820      0.73842237446139      0.65888544309958
  N   2.65470421488598      1.51395299272277      0.93806665153633
  N   0.92540927924552     -1.57647075545762      0.60847839275364
  H   1.10385839368652     -1.72044428743323      1.59505847747949
  H   1.70916256689068     -1.96202507424273      0.09501126610777
