14
Coordinates from ORCA-job run
  C   -0.40246347331634      0.28602863378752     -0.19669190830828
  C   0.66375104594437     -0.35213447633463      0.36256845885204
  N   -0.98057136223752      1.35131900404892      0.44937668636420
  H   -0.71537097842973      1.40993465823213      1.42383060608429
  H   -1.95735862592077      1.50620498469649      0.25737885691250
  C   -0.94306735455649     -0.03939543824831     -1.55318751074653
  H   -2.00206728027937     -0.30852857108490     -1.48397087085989
  H   -0.40784216496413     -0.86981262944463     -2.01178600382607
  H   -0.86469919518469      0.83476261913369     -2.20511643907728
  C   1.35724907138481     -1.39070014459291     -0.32691606568406
  N   1.95697508918469     -2.26140161342917     -0.84801924714034
  N   1.09498525778166      0.05395665152870      1.67127079867595
  H   1.98830358464134      0.53178506168007      1.62463786876879
  H   1.21117638595216     -0.75301873997297      2.27262476998468
