14
Coordinates from ORCA-job run
  C   -0.37108167744823      0.28060425792949     -0.28251337107663
  C   0.77933116012640     -0.14076399563028      0.31767988270658
  N   -0.54453383667441      1.57528057798385     -0.72231460269443
  H   -1.49880886993869      1.89555547388800     -0.75881448996876
  H   0.09982910587334      2.26429991768273     -0.36077030046836
  C   -1.49036783744512     -0.65867300708609     -0.60223898991200
  H   -2.41591642402856     -0.32220727082808     -0.12293712784842
  H   -1.66446115263105     -0.67640079878300     -1.68162549464982
  H   -1.24848566835034     -1.65926173618650     -0.25433396651399
  C   1.79254639040142      0.82746584399094      0.60728858889295
  N   2.61206200474232      1.64001809111578      0.84901596176392
  N   0.98851510799230     -1.51671966521195      0.65386977118287
  H   1.78276187452119     -1.89205699160606      0.14908956864462
  H   1.17860982285944     -1.61714069725884      1.64360456994147
