14
Coordinates from ORCA-job run
  C   -0.37290230000564      0.27498480538317     -0.00383188249321
  C   0.82284675425183     -0.26397278069125      0.37229866708029
  N   -1.04724391116017      1.20763819640394      0.76821642418119
  H   -0.50673752110829      1.64026864874271      1.50470828348341
  H   -1.59328550121940      1.87231585463777      0.24267118290522
  C   -1.13549131753394     -0.21560319477955     -1.19720994786855
  H   -0.49743543849007     -0.77736021062275     -1.87727638193571
  H   -1.97260576721028     -0.84716750600072     -0.88639764981632
  H   -1.55299481241222      0.63074563743544     -1.75210559388002
  C   1.49368781069065      0.31603379450988      1.49692617524295
  N   2.01623628024141      0.85101761225182      2.40727112209525
  N   1.44607844569941     -1.41119917300986     -0.19429140907053
  H   2.12158267791762     -1.18928693000491     -0.91340652999547
  H   0.77926460033909     -2.08641475425568     -0.53357245992849
