14
Coordinates from ORCA-job run
  C   -0.39406823119218      0.31188470604581     -0.18996624295265
  C   0.79852981912007     -0.18385328093686      0.24954089487432
  N   -0.61497646971823      1.66070627892579     -0.36581040624148
  H   0.20359265969115      2.25138983307787     -0.40180696830590
  H   -1.31609954365743      1.89966746150165     -1.04831070683259
  C   -1.58454742506035     -0.56553037621084     -0.41579980807034
  H   -1.92580690291549     -0.48024919113524     -1.45308507583810
  H   -2.40729261841172     -0.24711066779245      0.23029400898242
  H   -1.33115559415080     -1.60064814078545     -0.20384193311492
  C   1.89345321790439      0.72171314954108      0.41992282436736
  N   2.78877420994369      1.47862697315185      0.54481380965466
  N   0.96827759332203     -1.57413185636177      0.54660252229719
  H   1.19844810469473     -1.70587699510466      1.52443085794839
  H   1.72387118043013     -1.96658789391679     -0.00198377676836
