14
Coordinates from ORCA-job run
  C   -0.37514320168240      0.30476018560336     -0.24542951175088
  C   0.74228011304338     -0.16780510287866      0.37805723985042
  N   -0.61719706016249      1.65161038625478     -0.40993281554522
  H   0.17109078485226      2.27032619962615     -0.28344669192952
  H   -1.19740298410917      1.89373867523316     -1.19696809378180
  C   -1.47252187746652     -0.60240283974308     -0.70418051593032
  H   -2.40525816035730     -0.34260059916219     -0.19592819919665
  H   -1.63719419031183     -0.48472136760978     -1.78046011142626
  H   -1.21549477079383     -1.63677064265034     -0.49198672297297
  C   1.75401399651295      0.76575226385554      0.76894618413263
  N   2.58491850330042      1.54409052600465      1.07561496765221
  N   0.91579554245756     -1.56286443356589      0.64978073052988
  H   1.76961312367673     -1.90486312076909      0.22551597303462
  H   0.98250018104024     -1.72725013019862      1.64741756733388
