14
Coordinates from ORCA-job run
  C   -0.44608439410154      0.24285109145837     -0.14114581315225
  C   0.71880505337719     -0.31514629284805      0.29343187290648
  N   -1.12529578857046      1.12558103560496      0.66212595943004
  H   -0.55742088802694      1.48467281688341      1.41835563191595
  H   -1.69476785299680      1.80745739359999      0.18715653622562
  C   -1.10727473212078     -0.12239545683312     -1.43265496247553
  H   -2.10815721380781     -0.51844928045770     -1.24080748019556
  H   -0.53327425935978     -0.86713250273596     -1.98250534572331
  H   -1.21575864692815      0.76467060263671     -2.06538008300115
  C   1.39639621215241     -1.31380048796058     -0.46717705427080
  N   2.00136330454435     -2.13191570007406     -1.06202714600616
  N   1.25581748712660      0.11660209882301      1.55384370787254
  H   1.17715237848681     -0.61670176791114      2.24993867991398
  H   2.23849934022489      0.34470644981414      1.46084549656016
