14
Coordinates from ORCA-job run
  C   -0.32391915915090      0.31285368160137     -0.18592677852799
  C   0.88719589832163     -0.12900039222743      0.25739066810655
  N   -0.58089349923601      1.65682085624594     -0.44337014382373
  H   -1.20513560489709      1.81286423387935     -1.22093779169988
  H   0.24139931465843      2.24355784798033     -0.49556740827681
  C   -1.52850361791340     -0.57669535311425     -0.25620947328899
  H   -1.25032981078554     -1.62363514402772     -0.37688914496059
  H   -2.14508018368474     -0.47451652533731      0.64200356679636
  H   -2.15393548061313     -0.29858907882940     -1.10947602927415
  C   1.99341157990819      0.77815791748468      0.22384740617356
  N   2.88135212076239      1.54741053460726      0.13782582197126
  N   1.15210493446901     -1.38963666559007      0.85359378070384
  H   1.72167818990484     -1.99143415278052      0.27286111022548
  H   0.31165531825631     -1.86915775989223      1.13685441587511
