14
Coordinates from ORCA-job run
  C   -0.29919157912458      0.30724211432176     -0.23059309443129
  C   0.82884902667649     -0.10712211484347      0.41431187119776
  N   -0.56843183531625      1.64788706934842     -0.47851229663951
  H   -1.06684939488793      1.81799716214302     -1.33904699748175
  H   0.21933025645915      2.27120973784113     -0.36279126110980
  C   -1.42133855762212     -0.62764524616965     -0.56678969797409
  H   -1.86408107641539     -0.35668798839436     -1.52973785697743
  H   -2.21696336835270     -0.56960824420295      0.18227258650410
  H   -1.07695862585969     -1.65892241822328     -0.63746876161002
  C   1.87068254072527      0.85001230508263      0.63154741294392
  N   2.70994066016441      1.66830574860786      0.74842404552606
  N   1.04501292686486     -1.39081430596472      0.98433379002243
  H   1.65587700127378     -1.97725091758160      0.43050060082250
  H   0.18412202541471     -1.87460290196479      1.18854965920712
