14
Coordinates from ORCA-job run
  C   -0.34526342951487      0.28604934361756     -0.31249098023967
  C   0.74669083809971     -0.15118849899244      0.37852834053375
  N   -0.47327817480431      1.58749414449515     -0.74864635245821
  H   -1.42005051858263      1.91314314373892     -0.86032373864746
  H   0.14075159704824      2.26823338750775     -0.32466166009890
  C   -1.43935110378688     -0.64109569197273     -0.73767731977032
  H   -1.22767799274339     -1.65056979480925     -0.39427393662840
  H   -1.53349074386501     -0.63395500821525     -1.82684610440161
  H   -2.39565058303049     -0.31155631999772     -0.31858950307552
  C   1.73706373352958      0.80538073105772      0.76678066739384
  N   2.53630737502103      1.60957334089155      1.09041414170444
  N   0.91428409901573     -1.53284585928536      0.71722546049019
  H   1.75159280565480     -1.90711372193854      0.28682024473840
  H   1.01007209795848     -1.64354919609735      1.71974074045950
