14
Coordinates from ORCA-job run
  C   -0.37206715342218      0.32136813127443     -0.20161015308219
  C   0.63858467653016     -0.40061033059679      0.35943155470070
  N   -0.77313112046602      1.50149322123101      0.37427978411669
  H   -1.73027948592810      1.77047559079819      0.21267228135898
  H   -0.44516207575302      1.60640258784766      1.32538359372118
  C   -1.02964869213809     -0.04263515580842     -1.49520441600250
  H   -2.10698843966882     -0.17132737211594     -1.34887830463931
  H   -0.88686030909382      0.75961904804910     -2.22417543721831
  H   -0.62670196217053     -0.96749304209647     -1.90584127279759
  C   1.15236263550068     -1.57498740917585     -0.26639649575883
  N   1.60356722476518     -2.55754111455835     -0.73578599199435
  N   1.19464169544969      0.05380481473287      1.60334990172488
  H   2.13471564068128      0.41008930076414      1.47048721289277
  H   1.24796736571359     -0.70865827034558      2.26828774297787
