14
Coordinates from ORCA-job run
  C   -0.42948092029841      0.28150275521964     -0.13516778612765
  C   0.59489674838901     -0.40073795691151      0.45413876534304
  N   -1.43400589707626      0.88083004515790      0.59188144832062
  H   -2.31236101124153      0.99572623261723      0.11292529597095
  H   -1.52939450408226      0.59908597774815      1.55757561015609
  C   -0.47699543303456      0.53071180524488     -1.60931460918630
  H   -1.41224116971930      0.14393197257296     -2.02747190585882
  H   0.36368341489929      0.04760270713488     -2.10024464583596
  H   -0.44583371485881      1.60610765027809     -1.80346005800291
  C   0.55377306485502     -0.59908085749922      1.87076931042426
  N   0.49945081261020     -0.76434450153889      3.03687234580942
  N   1.68891045603127     -0.91656115998612     -0.30919891863949
  H   2.56139565929678     -0.48781959667728     -0.02453044880815
  H   1.77820249422957     -1.91695507336072     -0.18077440356511
