14
Coordinates from ORCA-job run
  C   -0.40828473529843      0.30863281339846     -0.15482398027284
  C   0.72936609390715     -0.22762147287138      0.37371429298279
  N   -0.88775353010292      1.54497909134897      0.22051532939898
  H   -0.24296896807025      2.15057348210957      0.70807745599171
  H   -1.44518426996960      2.02068332088873     -0.47045620195180
  C   -1.27709013240309     -0.45126396094817     -1.10637547692957
  H   -0.85070333055596     -1.43206226655237     -1.29963994672723
  H   -2.28048699105897     -0.56185253768870     -0.68592508207298
  H   -1.37103660682860      0.09433361868975     -2.05149420176315
  C   1.51248994622498      0.57298137651140      1.26502785578777
  N   2.15275980119630      1.24630141467419      1.99076319914985
  N   1.14093204247004     -1.56378355866040      0.06596375858703
  H   1.15445494526808     -2.13569678903854      0.90220249320713
  H   2.07550573522126     -1.56820453186151     -0.32454949538770
