14
Coordinates from ORCA-job run
  C   -0.41921831370953      0.28116422425006     -0.15528839398111
  C   0.67329929258330     -0.38236413908640      0.31733570245003
  N   -1.07343786483259      1.18354542333159      0.64701963184163
  H   -1.56033362386677      1.92568988688181      0.17056894875236
  H   -0.52345672133840      1.46806454194199      1.44697876291000
  C   -1.03245650848557      0.01724841613147     -1.49400819113951
  H   -0.48285291593587     -0.74466069286123     -2.04523642206968
  H   -1.04356413018392      0.93418965511541     -2.09218030560646
  H   -2.06764500041257     -0.31257225674442     -1.37228215316275
  C   1.31518731075001     -1.40228100032531     -0.44604309922249
  N   1.88893052947664     -2.24288740517723     -1.04056661467169
  N   1.16733519202744     -0.04293518865477      1.62288741539909
  H   0.99091683824148     -0.79337070658465      2.28168771722036
  H   2.16829591568636      0.11016924178168      1.59512700128023
