14
Coordinates from ORCA-job run
  C   -0.39144716168185      0.30265921970477     -0.19235960714728
  C   0.64187418759713     -0.39044573921225      0.36347942400144
  N   -0.97990120470185      1.33109324969332      0.50243632022259
  H   -1.94557800325381      1.51541473833746      0.28224778722721
  H   -0.75468459746662      1.31730479584567      1.48854631326948
  C   -0.88005090383227      0.08087763093189     -1.58878380599664
  H   -0.75851823315843      0.99488229188395     -2.17612069852978
  H   -0.34104354366252     -0.72771542936493     -2.08071277520492
  H   -1.94566738837106     -0.17007412391011     -1.58128055768400
  C   1.34675233491393     -1.39215206547710     -0.36779516360607
  N   1.95225963772835     -2.23684978733212     -0.92385036262607
  N   1.02482426715035     -0.08204284249136      1.71321849646278
  H   1.92358200077538      0.38739721545921      1.73534720422302
  H   1.10959860796328     -0.93034915406841      2.26062742538823
