14
Coordinates from ORCA-job run
  C   -0.35571628166157      0.20170369352607     -0.14339010747413
  C   0.75053305438336     -0.44752636402686      0.31363569907679
  N   -1.06427397179666      1.05956556983962      0.69371802699555
  H   -1.68717514332477      1.68556897174909      0.20676392185357
  H   -0.48892205959181      1.54896011828487      1.36440065595325
  C   -0.97674995336350     -0.05255557786360     -1.48093969404009
  H   -1.04809385393924      0.87949952768666     -2.05123465743151
  H   -1.99074278972976     -0.44495435970194     -1.35604699678644
  H   -0.39937868675718     -0.76912157930202     -2.06326455055149
  C   1.47506223811047     -1.32901578285385     -0.54768020391435
  N   2.09697992301559     -2.02761436652127     -1.26279057003722
  N   1.21594517609069     -0.36634411286907      1.65152272083635
  H   0.47346577523959     -0.19288695162564      2.31281479440438
  H   1.99906657332479      0.25572121367795      1.79549096111534
