14
Coordinates from ORCA-job run
  C   -0.39818277826454      0.11117536014886     -0.11731086140501
  C   0.85192478560794     -0.27987189237587      0.25459000420008
  N   -1.28651691857098      0.62005873149688      0.82547375932691
  H   -2.06545382734260      1.12194686548607      0.42776847912322
  H   -0.84531165931427      1.13783942239210      1.57204374137231
  C   -0.96299935691690     -0.09902587652373     -1.48716465424264
  H   -1.84159631739556     -0.74956310916609     -1.43582189535955
  H   -1.28007997840105      0.85605951790071     -1.91884832944322
  H   -0.23525957594891     -0.55486240537257     -2.15697833665273
  C   1.76168315623271     -0.80281007908979     -0.71609846887553
  N   2.52744925993767     -1.20056611787420     -1.51702321272526
  N   1.31450178205389     -0.27135156636280      1.59725039662723
  H   1.88970949258958      0.52193956723809      1.84477867470402
  H   0.56913193573301     -0.41196841789766      2.26334070335016
