14
Coordinates from ORCA-job run
  C   -0.31672231765873      0.14975333385167     -0.42206009560912
  C   0.65463833367795     -0.16862813808192      0.47912166396358
  N   0.00048609842916      0.87351172104401     -1.54552285141911
  H   0.89971762347481      1.33168977804268     -1.47519966760585
  H   -0.74110281401020      1.43543429644564     -1.93208439827468
  C   -1.72958893629555     -0.33063065641853     -0.31923996696243
  H   -1.98141729649989     -0.93782848838090     -1.19287858172675
  H   -2.41796881619641      0.52043531604170     -0.29657174211015
  H   -1.88920588473374     -0.92435979927408      0.57977303412839
  C   0.38413217052429     -1.00427927143377      1.60335460359146
  N   0.20986372626061     -1.67897465542225      2.55397792344323
  N   1.97778371969303      0.35064273162059      0.27137063322235
  H   2.33088545849100      0.77085727646265      1.12283605238970
  H   2.61849893484366     -0.38962344449750      0.00712339296935
