14
Coordinates from ORCA-job run
  C   -0.39034005852204      0.31114823690415     -0.17955242958544
  C   0.65554134082421     -0.39470116549865      0.33497009056395
  N   -0.90628254722323      1.37703918794407      0.51618443143264
  H   -0.62126487246699      1.38532956859905      1.48708499462044
  H   -1.87800906707136      1.58462171246172      0.34952537472607
  C   -0.97239034277705      0.05817105528216     -1.53409117033847
  H   -0.88122529651605      0.95427378704636     -2.15343573649747
  H   -2.03736375848031     -0.18070557747132     -1.44913759166671
  H   -0.47500998252378     -0.76947651066770     -2.03808320271283
  C   1.28471994457432     -1.44132770725220     -0.40242570362576
  N   1.83056135480033     -2.32215240836646     -0.96398084386856
  N   1.12884467036703     -0.05695921776861      1.64865409098851
  H   1.22192173609920     -0.89019711377745      2.21709508766496
  H   2.04029687891571      0.38493615256489      1.60119260829867
