14
Coordinates from ORCA-job run
  C   -0.31411109417680      0.30506042246227     -0.33875762983783
  C   0.77819949426434     -0.10420484606640      0.37028664930734
  N   -0.62548498880256      1.63545566259715     -0.56089937706044
  H   0.08364196566294      2.31979456424051     -0.33291125440031
  H   -1.12572380296732      1.82475391381129     -1.41273894505576
  C   -1.34353997742362     -0.68891763706182     -0.77183019868265
  H   -2.05099200137117     -0.88126410429940      0.03898938155804
  H   -1.91205056738029     -0.34463909904890     -1.63625391710687
  H   -0.87297802930860     -1.63726260517725     -1.03046139848751
  C   1.75030707508389      0.84893645923475      0.78468917920499
  N   2.59325236741744      1.62669550609455      1.06022760777508
  N   0.92982782592353     -1.47795877056810      0.74001693459872
  H   1.85564870990690     -1.65734047057618      1.09498986606388
  H   0.25300302317133     -1.77010899564246      1.43065310212331
