14
Coordinates from ORCA-job run
  C   -0.36350525584439      0.19187284533173     -0.13364057495985
  C   0.76850671040020     -0.43356203822608      0.29232074420283
  N   -1.11256209727705      0.96806427560639      0.74705475011232
  H   -1.76029540363902      1.59275576160685      0.29161760118831
  H   -0.56109767120194      1.44536408949189      1.44617585574083
  C   -0.96768873309373     -0.01158433759935     -1.48753030231019
  H   -0.35816177979764     -0.66874829393553     -2.10596527040347
  H   -1.07626821656162      0.94774500044882     -2.00420756788504
  H   -1.96448563827951     -0.45318160370760     -1.39146537648234
  C   1.53272584304314     -1.23412975847754     -0.61285259944114
  N   2.18650468498906     -1.86529591826590     -1.36144253010667
  N   1.22473337621184     -0.41000798184191      1.63565953437497
  H   1.97961848022084      0.23587022856205      1.82028687547927
  H   0.47197570082982     -0.30516226899381      2.29998886049018
