14
Coordinates from ORCA-job run
  C   -0.34980732103367      0.05963247852664     -0.34067741996856
  C   0.76383624740091     -0.13901967154813      0.42148184911790
  N   -0.17159354978874      0.73267110660689     -1.55523965351774
  H   -0.98925754905625      0.71546926363483     -2.15044522935399
  H   0.66879511178339      0.46329072749642     -2.04979132241862
  C   -1.74513321050868     -0.21625974185211      0.11017243821359
  H   -2.25722072988814      0.72924603648892      0.32264787535004
  H   -2.31138819363498     -0.74149722794419     -0.66788799839841
  H   -1.76781104069016     -0.82293956794300      1.00701288488648
  C   0.70645472104198     -0.90946717200510      1.61527212319685
  N   0.71227825073815     -1.54981369277116      2.60498189786695
  N   2.02831207601144      0.26070243013415     -0.08668156702015
  H   2.75653177967915      0.19759007524094      0.61420400448041
  H   1.95800340794561      1.22139495593489     -0.40904988243474
