14
Coordinates from ORCA-job run
  C   -0.36326558672069      0.29087120388986     -0.28184662725958
  C   0.77500500678278     -0.16245739831449      0.31799098823365
  N   -0.50217555020989      1.59076776806332     -0.71887595273943
  H   0.15946927086965      2.26155736497193     -0.35454220794780
  H   -1.44781037859272      1.93584435973330     -0.75412748051826
  C   -1.50793293134679     -0.61681311101380     -0.60318495245615
  H   -1.28881471054857     -1.62747938529117     -0.26922435584478
  H   -2.42025397026012     -0.26342757325069     -0.11093655180951
  H   -1.69135126183559     -0.61595948569027     -1.68117812501223
  C   1.81366388807197      0.77791242496155      0.60988335792336
  N   2.65455775854450      1.56697267655031      0.85576414254272
  N   0.94801050714778     -1.54432537906811      0.65001665608555
  H   1.72733391439402     -1.94086368639883      0.13815529832301
  H   1.14356404370365     -1.65159977914289      1.63810581047945
