14
Coordinates from ORCA-job run
  C   -0.38218464479791      0.29229618545625     -0.24957128676038
  C   0.74769439005350     -0.14408266566637      0.37796826748991
  N   -0.64612163348976      1.62947389309577     -0.45338624808313
  H   0.13344162649875      2.26400936517141     -0.35324950920807
  H   -1.23875700059200      1.83886430049224     -1.24038705165827
  C   -1.46889256597920     -0.64490737560281     -0.67167542380919
  H   -2.40968767524193     -0.36686566257185     -0.18860140021304
  H   -1.62127175368211     -0.58244868177539     -1.75448044605746
  H   -1.20611839024047     -1.66517800129506     -0.40570040101724
  C   1.74934519642014      0.81676823722759      0.72673430214734
  N   2.57089367104342      1.61823983568998      0.99649620615493
  N   0.94695629942655     -1.52743299970291      0.68794093930527
  H   1.80630976053068     -1.86494739996632      0.27157427343435
  H   1.01839272005035     -1.66378903055254      1.68933777827498
