16

C	0.0	0.0	0.0
C	-0.444274	-0.305982	-1.452227
F	1.39579	0.0	0.0
H	0.492626	-0.407708	-2.016154
H	-0.323642	-0.825399	0.636229
C	-0.49065	1.304133	0.571331
H	-0.137998	2.143807	-0.034807
H	-0.112723	1.420078	1.592366
H	-1.586913	1.21668	0.549023
C	-1.161749	0.802912	-2.088683
N	-1.61764	1.684529	-2.716223
C	-1.257491	-1.600429	-1.553949
H	-1.503936	-1.825298	-2.596631
H	-2.159549	-1.40194	-0.958167
H	-0.666343	-2.429323	-1.148363
F	-2.841057	0.0	0.0
