16

C	0.0	0.0	0.0
C	-0.452283	0.046889	-1.478515
F	1.395888	0.0	0.0
H	0.478098	0.135776	-2.054406
H	-0.324826	-0.947453	0.432393
C	-0.47741	1.143308	0.859291
H	-0.122778	2.096246	0.456335
H	-0.090025	1.020529	1.874934
H	-1.5732	1.069334	0.828498
C	-1.241266	1.23666	-1.830624
N	-1.767554	2.164677	-2.321867
C	-1.210012	-1.22001	-1.89078
H	-2.115584	-1.192197	-1.273538
H	-1.454392	-1.198961	-2.957401
H	-0.597292	-2.103535	-1.688251
F	-2.806512	0.0	0.0
