13
Coordinates from ORCA-job run
  C   0.93153305184991     -0.47490619579953      0.12026146495052
  C   -0.32036063225909      0.05988713623664      0.07443180449909
  H   1.17107528562934     -1.35211191142212      0.70057748381153
  N   2.04521382282217      0.02925328652519     -0.61516651847771
  O   1.89884306169099      1.03758056059198     -1.32631429052159
  O   3.11117352708258     -0.57906038037266     -0.50416676414573
  N   -0.67561415704718      1.19270148629257     -0.57988957099006
  H   -0.00667141933254      1.57278424954135     -1.23211408173056
  H   -1.65346422727883      1.35034019188359     -0.75134054833935
  C   -1.41081428894039     -0.58920825285332      0.87761211328186
  H   -2.23080624797547     -0.89782129276516      0.22222400830560
  H   -1.04894793480729     -1.46838665012794      1.40836226823566
  H   -1.81115984143419      0.11994777226940      1.60652263112074
