13
Coordinates from ORCA-job run
  C   1.04679925696127      0.32928352647909     -0.21913917584862
  C   -0.29541433600192      0.38423296699109     -0.02879084714499
  H   1.63949226635290      1.18616768606570     -0.51147998194774
  N   1.84916801370990     -0.84460593466000     -0.04364590575029
  O   3.05162117241994     -0.71440995685697     -0.28920881936462
  O   1.32731310302486     -1.90003331713466      0.32838618053795
  N   -0.93953392005412      1.59754141272522     -0.11450531920603
  H   -0.42755126490041      2.35815649909417     -0.53405857098280
  H   -1.91159623343877      1.56899361064660     -0.37395136878582
  C   -1.17313883478615     -0.76848277443287      0.36517109258672
  H   -1.05808479487567     -1.60372658114808     -0.32355923029820
  H   -2.21848254662441     -0.45479736593680      0.39410081382538
  H   -0.89159188178744     -1.13931977183250      1.35068113237906
