13
Coordinates from ORCA-job run
  C   0.80146126329333     -0.62924090301971     -0.26236252082462
  C   -0.31925033550994      0.06886960634022      0.07200725920947
  H   0.83522402179318     -1.70726613437010     -0.28171464687148
  N   2.05442133113310     -0.02683260828562     -0.58356468241961
  O   2.14911386139618      1.21197840725606     -0.59446917902738
  O   2.99274882632042     -0.78602462583355     -0.83243706631086
  N   -0.44810835038541      1.41815630350249      0.05201047474370
  H   -1.22152534256314      1.82447871744574      0.54915760820437
  H   0.39855116393651      1.95817000059324     -0.04143393631496
  C   -1.56743467136593     -0.69300605505369      0.41375098217699
  H   -2.36680926406665     -0.43345658226089     -0.28497317360061
  H   -1.90438822993150     -0.43509239172452      1.42222712000803
  H   -1.40400427405015     -1.76873373458968      0.37280176102695
