13
Coordinates from ORCA-job run
  C   0.87413742754686     -0.58138330546606     -0.07123652768519
  C   -0.32556888316651      0.05087777106037      0.05771470474428
  H   1.04208126200259     -1.59189254902556      0.26695372460206
  N   2.04083285712371      0.02019150931887     -0.63015064529275
  O   1.97990995337437      1.18566461525889     -1.05687106521316
  O   3.06619710610596     -0.66298265244156     -0.65476503315530
  N   -0.62378161289553      1.28919592257786     -0.40654498417912
  H   -1.44058887302041      1.74511950407462     -0.03838946285255
  H   0.14920702853391      1.86193681989231     -0.70963037085465
  C   -1.46711578301110     -0.69286724734508      0.68969130519441
  H   -1.17173225236597     -1.69492364536803      0.99669416616906
  H   -1.82603161350531     -0.15576779583099      1.57282039416554
  H   -2.29754661672257     -0.77316894670564     -0.01628620564264
