13
Coordinates from ORCA-job run
  C   0.83056447095824     -0.62924861372015     -0.14354234993646
  C   -0.30422947009209      0.07765750418854      0.11612163400136
  H   0.91231311073750     -1.69035103463992      0.03267858323640
  N   2.01369410104746     -0.06618261876123     -0.70864908586754
  O   2.04773747831594      1.14919191450847     -0.96432571662390
  O   2.95332956085589     -0.83494024654355     -0.92023685707060
  N   -0.45202408479565      1.41899888074513     -0.01882461322661
  H   -1.38763827629147      1.78553572853691     -0.05119510945465
  H   0.26993073113576      1.90732563486028     -0.52664160532654
  C   -1.48920838242934     -0.64681935018965      0.68738082431905
  H   -2.35766948329940     -0.52802804297783      0.03253507586468
  H   -1.29132554600454     -1.71142166457207      0.80173630596978
  H   -1.74547421013833     -0.23071809143493      1.66496291411504
