13
Coordinates from ORCA-job run
  C   0.82472272983814     -0.64558835993407     -0.10547974836324
  C   -0.32343456274177      0.07196173542373      0.04363394526630
  H   0.88253029078940     -1.70451762704668      0.09198981887557
  N   2.07691080931697     -0.08145686825737     -0.49135954058323
  O   2.14559714934332      1.13320326184249     -0.74423470811556
  O   3.04129594279668     -0.84649157785224     -0.55005412153225
  N   -0.48063758117184      1.38651302487951     -0.24700382559465
  H   0.35769680060528      1.92178595904111     -0.41439494476891
  H   -1.28311404572625      1.85984567080282      0.13045967978300
  C   -1.56756135885351     -0.64329914509827      0.48640998388912
  H   -1.38205042738160     -1.70285161600749      0.65541986020797
  H   -2.34801163288939     -0.54102525441725     -0.27184167698414
  H   -1.94294411392543     -0.20807920337629      1.41745527792004
