13
Coordinates from ORCA-job run
  C   1.01264627695794      0.18646140942185     -0.41792479733544
  C   -0.31213580571529      0.30169747676442     -0.15252358403242
  H   1.51295470671310      0.83364923005607     -1.12688464910694
  N   1.94288258814747     -0.73583948827727      0.17739524922672
  O   1.57979649412002     -1.54571366081262      1.03249583427313
  O   3.10186793412421     -0.64662266210715     -0.23806598762479
  N   -1.02306038807121      1.32524829412605     -0.74508306919674
  H   -0.59540119923386      1.78012449571534     -1.53668060929195
  H   -2.01071543458104      1.16278895924916     -0.85761647674548
  C   -1.13375065488591     -0.51990398783675      0.79433337495621
  H   -0.54108671985888     -1.26977999038800      1.30272442178239
  H   -1.93791756869319     -1.01401194660192      0.23942705707787
  H   -1.59608022902336      0.14390187069081      1.52940323601743
