13
Coordinates from ORCA-job run
  C   0.88702566720000      0.04975375783566     -0.68107361665412
  C   -0.32209674684532      0.33677705081489     -0.13577100417047
  H   1.27533935701606      0.55324820801561     -1.55676050249728
  N   1.80610935578489     -0.92044315062894     -0.16546364452891
  O   1.52966891761164     -1.54890462050808      0.86103184212080
  O   2.84846094248527     -1.06847669058724     -0.80930429660881
  N   -1.06478723725061      1.37384478731279     -0.65087650739908
  H   -0.78460057724267      1.73966422193162     -1.54760329673969
  H   -2.06175665418618      1.31642984859408     -0.52613737157246
  C   -0.92123615994137     -0.33047399866188      1.06833063657783
  H   -1.92911133676007      0.04821158189169      1.24936637840181
  H   -0.95105691038082     -1.41154932299907      0.94326792916698
  H   -0.31095861749081     -0.13908167301114      1.95099345390340
