13
Coordinates from ORCA-job run
  C   0.80287504132632     -0.62261829064238     -0.27510273614838
  C   -0.30348731892335      0.06419790655830      0.12470047364017
  H   0.82289608921805     -1.69745468298414     -0.36442393431772
  N   2.03064034881382     -0.00813557792154     -0.66265132270639
  O   2.13663468206537      1.22862383802010     -0.60664527292497
  O   2.93503722095064     -0.75449210468752     -1.04160641413632
  N   -0.37866235822847      1.40383753288705      0.31664672294946
  H   -1.29101532742192      1.82257459575638      0.36801452616321
  H   0.38632841087597      1.96010668706207     -0.03354756359245
  C   -1.54317848901544     -0.70772554355763      0.47493524429517
  H   -2.37874054006001     -0.38759992409466     -0.15475538947380
  H   -1.81679373811253     -0.52301823884781      1.51682238548003
  H   -1.40153402148845     -1.77829619754822      0.33561328077200
