13
Coordinates from ORCA-job run
  C   0.97201681634557      0.24940566279222     -0.49512032481467
  C   -0.30761860984252      0.37121275213998     -0.06056268307153
  H   1.46763649902523      1.00073110723306     -1.09585784348762
  N   1.83115861802166     -0.85983044196470     -0.20536727749963
  O   1.42777358796213     -1.78442995136064      0.50684199898766
  O   2.95660094112040     -0.81324896869187     -0.70974212860219
  N   -0.99463665413609      1.53824340196906     -0.30534559950681
  H   -0.60022187231541      2.16787361554938     -0.98695148720412
  H   -1.99736470213624      1.46436501975369     -0.35080195156778
  C   -1.05350834982819     -0.63814210892114      0.76329879238944
  H   -2.08315267261038     -0.31154807805052      0.92181590399764
  H   -0.57277441807752     -0.76650249741209      1.73299059440085
  H   -1.04790918352864     -1.61612951303643      0.28480200597877
