13
Coordinates from ORCA-job run
  C   0.96455440868199      0.23438850040043     -0.51641811940935
  C   -0.32632884705053      0.34153516133252     -0.11240790658198
  H   1.44918324264653      0.96436395607374     -1.15146460775605
  N   1.83572819941722     -0.85400819295979     -0.18705397224962
  O   1.41906788186203     -1.79433108650315      0.49638645690430
  O   2.98712217600328     -0.77127329803246     -0.62372289087675
  N   -1.09956664935414      1.37316588600322     -0.59356823679160
  H   -1.86379426708248      1.66849299771220     -0.00897283650131
  H   -0.61794581081949      2.13206662789326     -1.05041557488774
  C   -1.05175540653245     -0.63100448298932      0.77165423124311
  H   -1.12220421047501     -1.60450865934370      0.28666204710993
  H   -0.51393895024725     -0.78940255512482      1.70496081162865
  H   -2.06012176704970     -0.27048485446214      0.98436059816839
