13
Coordinates from ORCA-job run
  C   1.01071915442815      0.27062994366354     -0.39592260376740
  C   -0.31481591454505      0.35059962510064     -0.11768505634128
  H   1.55601007333561      1.05025556897145     -0.91153698716212
  N   1.84837886135232     -0.84438362593871     -0.06869109614768
  O   1.36738062344839     -1.83616707209305      0.48799221021555
  O   3.03857649706805     -0.72979338239163     -0.37435989589299
  N   -1.03860321806776      1.42316121391364     -0.58663901452299
  H   -1.85822644527896      1.67284754699411     -0.05849932977399
  H   -0.51503000408060      2.21506755969757     -0.92639336129276
  C   -1.12325459740258     -0.68827077375918      0.60405695516569
  H   -1.13805884680780     -1.61900298002259      0.03713734977125
  H   -2.14999404025913     -0.34275236639872      0.73950408928541
  H   -0.68408214319062     -0.92419125773706      1.57203674046331
