13
Coordinates from ORCA-job run
  C   1.00468002526348      0.25136969797508     -0.42454437167351
  C   -0.32285083636145      0.32791132282051     -0.15443060446847
  H   1.52996091231442      0.98403295082891     -1.02311633274764
  N   1.86972157796182     -0.79951110748068      0.02159701148383
  O   3.05733403426445     -0.68834166446571     -0.29547619580483
  O   1.41288858531795     -1.73756991144157      0.68210918973628
  N   -1.07288420304470      1.32393073107030     -0.73649503759161
  H   -1.90108909156823      1.60718739228335     -0.23971788994833
  H   -0.57091719799200      2.08714202628544     -1.16315175632531
  C   -1.10575635430172     -0.64648489223523      0.67714597365778
  H   -1.10059604491012     -1.63236623147691      0.21250483863387
  H   -2.13989804232631     -0.31170910464504      0.77968838943668
  H   -0.65959336461759     -0.76759120951845      1.66288678561126
