13
Coordinates from ORCA-job run
  C   0.82292568851290     -0.55132803074690     -0.36098968446093
  C   -0.30883764366773      0.01448551667809      0.12390234596794
  H   0.89052098571894     -1.60442567830091     -0.58952564569099
  N   2.07033043576639      0.14761986303021     -0.50147690045902
  O   2.06319450873782      1.37869251387331     -0.63379546631251
  O   3.09316239929211     -0.53769209776400     -0.46376742867548
  N   -0.43019390742748      1.31851632206423      0.52694824171079
  H   -1.34226780211937      1.73339842549335      0.42379562030858
  H   0.31812646005480      1.92628692318582      0.22768807595945
  C   -1.55138740662313     -0.80885479242448      0.28351350190554
  H   -1.95335105160032     -0.67768278417121      1.29045676336894
  H   -1.36496893508800     -1.86713114596870      0.10545864230140
  H   -2.30825373155692     -0.47188503494880     -0.43220806592371
