13
Coordinates from ORCA-job run
  C   1.07091084383161      0.29333936716981     -0.13920665641907
  C   -0.27607863501825      0.39927786602662     -0.01501994094391
  H   1.71644176140502      1.13935004188627     -0.33555186558345
  N   1.80966338726729     -0.92724302203455     -0.00975431249270
  O   3.02827302592444     -0.83813566172161     -0.18396189261130
  O   1.22234328902295     -1.98006378531808      0.25755334342716
  N   -0.85984135474645      1.64503981170659     -0.04331169696687
  H   -1.81704465341316      1.68265133560679     -0.35200082384607
  H   -0.29287623037819      2.40963195516937     -0.37573377411968
  C   -1.22452115658715     -0.73528540502851      0.24446676480733
  H   -1.10662073666445     -1.52238465346937     -0.49848673195272
  H   -1.01626506797507     -1.19048222780938      1.21258882675574
  H   -2.25538447266859     -0.37569562218394      0.23941875994555
