13
Coordinates from ORCA-job run
  C   0.77628988998789     -0.42989621615233     -0.56587061972372
  C   -0.31256493981149      0.02035902970355      0.11793005790408
  H   0.81210648000484     -1.40156631464480     -1.03302149927232
  N   1.99253164900991      0.30227021230009     -0.70832916612150
  O   2.90739440263455     -0.24650577448428     -1.32517333290877
  O   2.08082211653474      1.43836937488766     -0.21291020559113
  N   -0.44768166723651      1.25013721925937      0.67200704893198
  H   -1.17359690892711      1.38225577753458      1.35467220821447
  H   0.38589940471672      1.81363542160579      0.74241696491891
  C   -1.52001958282128     -0.86704008231631      0.21558187127630
  H   -2.38390092483395     -0.37451644846334     -0.23789214122362
  H   -1.35865703000547     -1.82002176034928     -0.28581141772352
  H   -1.75862288925284     -1.06748043888070      1.26440023131882
