13
Coordinates from ORCA-job run
  C   0.81220228659290     -0.66632471141983     -0.06145778545594
  C   -0.31611007982416      0.08575691002725      0.06843141719860
  H   0.91160307839504     -1.65014826373632      0.36969023292274
  N   1.99333349510130     -0.22983417760303     -0.73204873898571
  O   2.00901807607813      0.89000554676876     -1.27033793452933
  O   2.95273450672968     -1.00324982963275     -0.73695407279683
  N   -0.52979884803268      1.29876789488814     -0.49768825554878
  H   -1.28017815387028      1.86153927230376     -0.13625911638443
  H   0.27079909609835      1.76480290447412     -0.89662953977079
  C   -1.47883573934226     -0.48521112788571      0.82822218304346
  H   -1.73869223622221      0.16601290499638      1.66818806773545
  H   -1.25351211403548     -1.47536297839555      1.22118122929365
  H   -2.35256336766835     -0.55775434478520      0.17566231327791
