13
Coordinates from ORCA-job run
  C   0.81058690882989     -0.61108644416586     -0.27630572744167
  C   -0.31008734501821      0.05894270289573      0.11177372570163
  H   0.82432157258952     -1.67572956128106     -0.44970244288276
  N   2.06505224761927      0.01283488085805     -0.54463114495665
  O   2.18079433307015      1.23989481237881     -0.38607288269909
  O   2.98189708171469     -0.71535678891888     -0.92919400116014
  N   -0.38133140437412      1.38086531287610      0.40424658980319
  H   0.40837294194490      1.95029188416549      0.14056317253143
  H   -1.29086476390598      1.80805264003847      0.43157262880134
  C   -1.57542370021625     -0.71937276349470      0.33103884770167
  H   -2.37277074248290     -0.33360808212182     -0.31127497220205
  H   -1.90136163200886     -0.61920232250055      1.36939574782409
  H   -1.43918549776208     -1.77652627072981      0.10859045897901
