13
Coordinates from ORCA-job run
  C   0.99452120212271      0.19346471027030     -0.47476358880793
  C   -0.29558522973082      0.37362069190665     -0.09547550219065
  H   1.55668740416777      0.93017434466895     -1.03357496129675
  N   1.76946467485653     -0.98050090263995     -0.20358751273489
  O   2.93745290227865     -0.95663795403399     -0.60149604709748
  O   1.26020856461088     -1.93230638288750      0.39601331384541
  N   -0.97065911408757      1.49779385976032     -0.51395952831347
  H   -0.41596201687750      2.24820798607233     -0.89590942242021
  H   -1.72522039021443      1.80865006926953      0.07522922729484
  C   -1.12259604332170     -0.60192337641320      0.69079123135728
  H   -0.62985822192629     -0.87052244531635      1.62384779993127
  H   -1.25153818746971     -1.52863199580306      0.13191150980949
  H   -2.10691554440851     -0.17938860485403      0.90197348062308
