13
Coordinates from ORCA-job run
  C   0.83147273976081     -0.54491949649216     -0.34532192942134
  C   -0.32266885025668      0.04259835225591      0.07697140027916
  H   0.91505760943187     -1.60481462610104     -0.52788371958177
  N   2.05569502194841      0.15566429000341     -0.55887334581300
  O   3.02917014261455     -0.51274522442590     -0.91155813941174
  O   2.09298713251815      1.38468907515011     -0.37969384002417
  N   -0.51478451658670      1.37208563067455      0.26010295675159
  H   0.30685640281741      1.95709165083075      0.26127725152735
  H   -1.30846828735549      1.66195581105162      0.80467932066585
  C   -1.53499191275117     -0.81856801358001      0.28696052392834
  H   -1.88149830048105     -0.73784688774947      1.32164812257028
  H   -2.34606043514994     -0.48798959694104     -0.36677280164590
  H   -1.32376674651016     -1.86620096467673      0.07846420017535
