13
Coordinates from ORCA-job run
  C   0.79188535586175     -0.58488819321422     -0.37134839283552
  C   -0.31722401006249      0.05794063758001      0.08911165060387
  H   0.82091697376757     -1.64920694871091     -0.54472356666090
  N   2.03641457834381      0.05774535691477     -0.64213916028938
  O   2.13497154851951      1.28597614769219     -0.48143678182236
  O   2.96465809824420     -0.65757528045070     -1.02345080148591
  N   -0.44286656915994      1.39651833099081      0.26275259738116
  H   -1.19996542638371      1.72777639412442      0.83504793763612
  H   0.40300294881610      1.94435591421676      0.22161561954967
  C   -1.55631679844490     -0.74639114316477      0.35895559149953
  H   -1.85843742398605     -0.63644091124455      1.40479931133657
  H   -1.39861561083908     -1.80500951170077      0.15884631351441
  H   -2.37742366467677     -0.38980079303305     -0.26803031842727
