17

C	-0.490534	-0.002371	-1.462446
C	0.0	0.0	0.0
Cl	-0.086765	-1.559786	-2.186864
H	1.091639	0.0	0.0
C	-1.954993	0.321366	-1.687514
H	-2.175977	1.311434	-1.280434
H	-2.576165	-0.417237	-1.184353
H	-2.15826	0.309198	-2.759851
N	0.290774	1.096663	-2.205797
O	0.592718	2.072246	-1.530568
O	0.444196	0.964449	-3.410713
N	-0.488564	-1.261732	0.678504
O	-1.707746	-1.368247	0.831408
O	0.353262	-2.080012	1.022767
C	-0.535378	1.115497	0.768831
N	-0.987945	1.98997	1.410334
Cl	3.189159	0.0	0.0
