17

C	-0.45328	0.001133	-1.455534
C	0.0	0.0	0.0
Cl	0.347553	1.36606	-2.242231
H	1.093027	0.0	0.0
C	-0.190377	-1.266183	-2.247242
H	-0.754667	-2.098595	-1.831904
H	0.874586	-1.494198	-2.203398
H	-0.493457	-1.090739	-3.282174
N	-1.977319	0.228342	-1.498384
O	-2.606894	-0.562688	-0.800285
O	-2.459954	1.063254	-2.249264
N	-0.367678	-1.241616	0.748077
O	-1.149273	-1.161311	1.693667
O	0.138294	-2.281	0.334448
C	-0.504733	1.165576	0.699703
N	-0.87229	2.137538	1.246796
Cl	2.925323	0.0	0.0
