17

C	-0.476862	0.013366	-1.471301
C	0.0	0.0	0.0
Cl	-0.104218	-1.543112	-2.207471
H	1.091998	0.0	0.0
C	-1.933349	0.368927	-1.695528
H	-2.136299	1.357022	-1.278627
H	-2.567595	-0.364218	-1.202009
H	-2.137302	0.371254	-2.767819
N	0.329562	1.109391	-2.189514
O	0.6643	0.923217	-3.348161
O	0.467587	2.140241	-1.54335
N	-0.493741	-1.272435	0.652167
O	0.33772	-2.11575	0.95337
O	-1.71186	-1.365696	0.822059
C	-0.543041	1.101704	0.781627
N	-0.990723	1.969802	1.43471
Cl	3.173015	0.0	0.0
