14
Coordinates from ORCA-job run
  C   -0.45289826196551     -0.22158924241925     -0.29360340953986
  C   0.89325329328601     -0.29710611953919      0.39387041317886
  Cl  -0.22298296819475     -0.06161150583064     -2.06941030703456
  H   1.38341708762141     -1.23652275282163      0.14181268603096
  H   0.75501605013625     -0.22029586688364      1.47134324001506
  N   -1.26850434097369      0.98397582933726      0.20168306411556
  O   -2.25341947800304      1.27194720136989     -0.46221349344827
  O   -0.93031298578210      1.47395161064722      1.26899396372769
  N   -1.23578412609932     -1.33801878197437      0.09035145461785
  H   -0.78629919107784     -2.20789493543562     -0.16640034064404
  H   -2.14948670283512     -1.29534007796930     -0.34798050879666
  N   1.84708261120043      0.78414224054691      0.00243936662593
  O   3.03594694403712      0.49521756403772      0.09526449334661
  O   1.38497206865015      1.87014483693466     -0.32615062219511
