14
Coordinates from ORCA-job run
  C   -0.47779878532569     -0.03904977097497     -0.47651510945940
  C   0.99689317297061      0.30673514057372     -0.44038067184723
  Cl  -1.01962509530491      0.26154042837354     -2.19959967811671
  H   1.13927910421356      1.37456074957075     -0.59237977740927
  H   1.54349880425680     -0.27486832153542     -1.17997725151768
  N   -1.29886022385784      0.97825179047649      0.33164333213146
  O   -2.27819752399592      0.53810721097322      0.91799130772532
  O   -0.93819446867985      2.14213100598530      0.27226468289243
  N   -0.73065817902681     -1.31072413027828      0.02829688592096
  H   -1.71692486405300     -1.50228071858451      0.13831089937204
  H   -0.25740508819146     -2.03881346629159     -0.48874327644205
  N   1.54765988945606     -0.05440424933765      0.89848584103076
  O   2.41364301226059     -0.92426520503360      0.93003679004042
  O   1.07669024527786      0.54207953608301      1.86056602567896
