14
Coordinates from ORCA-job run
  C   -0.46615154789291     -0.09513366735841     -0.47953337167183
  C   1.01110847377361      0.23995444590234     -0.44875428557828
  Cl  -0.96144878040270     -0.01092010781229     -2.23994807776698
  H   1.56955701846516     -0.43488767154862     -1.09428920158116
  H   1.16873524660723      1.27864747787190     -0.73168582627303
  N   -1.29505064639257      1.02274672222778      0.17217384969743
  O   -2.29422625145446      0.66826862453241      0.78268514552178
  O   -0.91933022139756      2.16684440891371     -0.02326444147522
  N   -0.74629818677758     -1.29123389195819      0.17486650735991
  H   -0.27132779222835     -2.08190868131786     -0.23853318654796
  H   -1.73751946779906     -1.45837687548082      0.28101015524829
  N   1.52489945562256      0.04815952190179      0.93869282933321
  O   2.38642127683780     -0.81151286699976      1.10129570043357
  O   1.03163142303883      0.76035256112601      1.80628420330027
