14
Coordinates from ORCA-job run
  C   -0.41108496592816     -0.28865284163101     -0.30018634370655
  C   0.83982940335667     -0.19325552776078      0.54593616652833
  Cl  0.03584880555515     -0.46788291785180     -2.03187841452206
  H   0.56834523747831      0.07317471032944      1.56636972377685
  H   1.36715716875722     -1.14623739660235      0.53305389863474
  N   -1.28561167479978      0.96671841230858     -0.14981336463865
  O   -1.08633294144883      1.65723966949633      0.83871773093334
  O   -2.17838415496738      1.09936059538668     -0.97373622136577
  N   -1.23135963837737     -1.33185574159723      0.19669269346065
  H   -2.08239136467231     -1.40153514754585     -0.35088778609531
  H   -0.74883032586453     -2.22140619288308      0.17048126437225
  N   1.82449157901125      0.82997294674240      0.08096913932341
  O   1.40032998926097      1.80958500823152     -0.52008236716260
  O   2.99099288263881      0.61477442337716      0.39436388046137
