14
Coordinates from ORCA-job run
  C   -0.45306889213080      0.19159408590573     -0.31586668194671
  C   0.74840532950725      0.36745614657412      0.60461394489052
  Cl  -0.53440360687365      1.47274244372304     -1.54418588294642
  H   0.88075870509811      1.41034825396625      0.87397691617078
  H   0.63089966810017     -0.25318436743965      1.49308682154427
  N   -1.71141039695863      0.46294641319684      0.58349690661101
  O   -2.72082624109088     -0.16418142856068      0.29277947115742
  O   -1.59019875478403      1.28660181357412      1.48202848029278
  N   -0.47698539491766     -1.05968017223154     -0.93061118772688
  H   -1.33226144040763     -1.21881967130343     -1.44522757480929
  H   -0.27544436053634     -1.81998982658463     -0.29472569071779
  N   1.97633431143675     -0.10412029547476     -0.09232346080185
  O   2.26612170953828     -1.28990864753813      0.05636377398509
  O   2.59107936401907      0.71819525219273     -0.76340583570293
