15

C	-0.417673	0.009289	-1.458904
C	0.0	0.0	0.0
F	-1.813694	-0.062296	-1.542419
H	1.093837	0.0	0.0
H	-0.02393	-0.901217	-1.912538
C	0.075069	1.243971	-2.170153
H	1.160562	1.308966	-2.070373
H	-0.193105	1.187232	-3.226967
H	-0.381382	2.137638	-1.740053
N	-0.440888	-1.28571	0.642039
O	-0.163644	-2.31151	0.029996
O	-1.017003	-1.233995	1.725722
C	-0.533178	1.137479	0.732632
N	-0.922194	2.105839	1.270723
Cl	3.199807	0.0	0.0
