15

C	-0.412785	0.00493	-1.458616
C	0.0	0.0	0.0
F	-1.80913	-0.018301	-1.550125
H	1.093747	0.0	0.0
H	-0.047504	-0.920607	-1.904688
C	0.12814	1.219358	-2.172439
H	-0.122827	1.164838	-3.233975
H	1.213961	1.252184	-2.053396
H	-0.307266	2.129992	-1.756091
N	-0.428374	-1.271376	0.677463
O	-0.793402	-1.20479	1.847223
O	-0.334673	-2.301978	0.018725
C	-0.524109	1.147904	0.724486
N	-0.919583	2.112967	1.263815
Cl	3.182645	0.0	0.0
