20

C	-0.222147	0.053613	-1.510573
C	0.0	0.0	0.0
Br	-2.188522	0.325246	-1.941517
H	1.102909	0.0	0.0
N	0.478354	1.203334	-2.023657
H	0.565952	1.134414	-3.031382
H	1.416449	1.192604	-1.618936
C	0.167347	-1.24496	-2.203432
H	1.210487	-1.449981	-1.936945
H	0.091213	-1.126608	-3.288013
H	-0.461636	-2.085039	-1.906594
C	-0.509424	-1.267742	0.668059
H	0.019115	-2.15643	0.319248
H	-0.342474	-1.196756	1.746412
H	-1.583482	-1.399906	0.49715
C	-0.492132	1.245715	0.726077
H	-0.230421	2.14921	0.175305
H	-0.025448	1.294263	1.714138
H	-1.57898	1.219129	0.85341
Cl	3.464404	0.0	0.0
