20

C	-0.467107	0.038207	-1.454436
C	0.0	0.0	0.0
Br	0.295918	-1.631346	-2.401398
H	1.094993	0.0	0.0
N	-1.888038	0.033859	-1.563685
H	-2.271563	-0.800121	-1.134845
H	-2.162459	0.039165	-2.539195
C	0.135108	1.197018	-2.22778
H	-0.065755	1.095171	-3.296978
H	-0.31577	2.128766	-1.877748
H	1.213498	1.222812	-2.065361
C	-0.507993	-1.208313	0.779402
H	-0.290101	-2.143353	0.262531
H	-1.58655	-1.145579	0.972598
H	-0.00197	-1.241399	1.747186
C	-0.426591	1.286015	0.72377
H	-0.147091	1.202058	1.777524
H	-1.505493	1.449171	0.653688
H	0.093425	2.159449	0.328717
Cl	3.561911	0.0	0.0
