20

C	-0.211086	0.017122	-1.519994
C	0.0	0.0	0.0
Br	-2.160541	0.280831	-1.951274
H	1.102116	0.0	0.0
N	0.50009	1.08942	-2.19127
H	0.249665	1.9761	-1.768849
H	1.48947	0.938093	-1.979513
C	0.219505	-1.287144	-2.167671
H	-0.407895	-2.124007	-1.862781
H	0.173305	-1.176408	-3.25176
H	1.255231	-1.479908	-1.864432
C	-0.516883	-1.250854	0.697538
H	0.000475	-2.148924	0.357262
H	-1.593486	-1.377637	0.536832
H	-0.34037	-1.167737	1.773904
C	-0.484081	1.250308	0.722243
H	-1.576342	1.276886	0.784054
H	-0.076155	1.254887	1.736615
H	-0.142985	2.170159	0.242343
Cl	3.468356	0.0	0.0
