20

C	-0.380349	-0.055779	-1.494387
C	0.0	0.0	0.0
Br	-0.162605	1.769581	-2.293223
H	1.098069	0.0	0.0
N	0.507601	-0.902771	-2.260751
H	1.467073	-0.719989	-1.966005
H	0.302147	-1.87021	-2.034802
C	-1.822019	-0.450882	-1.767033
H	-2.01827	-0.413043	-2.838891
H	-1.996544	-1.471777	-1.41758
H	-2.517473	0.214274	-1.255507
C	-0.416741	-1.308449	0.686339
H	-0.163109	-2.188733	0.091844
H	0.130796	-1.39618	1.627198
H	-1.488776	-1.333819	0.90892
C	-0.527828	1.180079	0.803815
H	-0.095298	2.119323	0.464696
H	-1.620008	1.256271	0.748417
H	-0.253281	1.047568	1.854235
Cl	3.516154	0.0	0.0
