20

C	-0.499214	0.003785	-1.453598
C	0.0	0.0	0.0
Br	0.426331	1.441062	-2.454779
H	1.095148	0.0	0.0
N	-0.109892	-1.233088	-2.113481
H	-0.661649	-1.993684	-1.730522
H	-0.311887	-1.165807	-3.105334
C	-1.995756	0.297423	-1.590766
H	-2.566881	-0.463586	-1.04587
H	-2.26599	1.281218	-1.205417
H	-2.282035	0.25206	-2.645226
C	-0.417981	-1.288574	0.716785
H	-1.50421	-1.446594	0.718189
H	0.080098	-2.156495	0.281478
H	-0.092265	-1.229776	1.758578
C	-0.475168	1.215104	0.791843
H	0.066815	1.250073	1.740676
H	-0.262661	2.145857	0.261644
H	-1.547954	1.172428	1.015973
Cl	3.583815	0.0	0.0
