17

C	0.0	0.0	0.0
C	-0.443085	-0.079527	-1.481886
Cl	1.781638	0.0	0.0
H	0.317606	-0.630613	-2.039059
N	-0.616514	1.009555	0.719491
H	-0.444539	0.886591	1.710788
H	-1.635944	0.943656	0.553546
N	-0.279801	-1.445642	0.598024
O	0.054628	-2.412702	-0.068475
O	-0.756109	-1.472646	1.726289
N	-0.219649	1.377596	-2.053263
O	0.86009	1.596466	-2.610107
O	-1.14828	2.173402	-1.975296
N	-1.719087	-0.583844	-1.621826
H	-2.502485	-0.257505	-0.927672
H	-2.035067	-0.605135	-2.582234
H	-3.435481	0.0	0.0
