17

C	0.0	0.0	0.0
C	-0.463803	-0.125853	-1.481842
Cl	1.794327	0.0	0.0
H	0.329061	-0.589247	-2.077595
N	-0.594766	0.96152	0.830656
H	-0.413978	1.876649	0.437266
H	-1.613102	0.774711	0.821632
N	-0.326317	-1.410967	0.599781
O	0.222154	-2.363962	0.060331
O	-1.090708	-1.45062	1.548112
N	-0.475899	1.327632	-2.111963
O	-1.185584	1.458945	-3.105918
O	0.265539	2.204028	-1.665085
N	-1.671635	-0.799086	-1.577603
H	-1.993646	-0.854781	-2.53483
H	-2.456837	-0.415207	-0.921695
H	-3.391768	0.0	0.0
