17

C	0.0	0.0	0.0
C	-0.375231	-0.116326	-1.519521
Cl	1.794067	0.0	0.0
H	0.354472	-0.789758	-1.960415
N	-0.621114	1.015462	0.696651
H	-0.434128	0.920007	1.689721
H	-1.647056	0.897494	0.532267
N	-0.285105	-1.429576	0.619761
O	-0.517689	-1.450337	1.821443
O	-0.199647	-2.410276	-0.110726
N	-0.045118	1.233269	-2.143731
O	0.989698	1.306472	-2.812272
O	-0.851719	2.140515	-1.986892
N	-1.68766	-0.471794	-1.89847
H	-2.40917	-0.185506	-1.170126
H	-1.728582	-1.481413	-1.964874
H	-3.228694	0.0	0.0
