18

C	-0.492798	-0.003433	-1.457792
C	0.0	0.0	0.0
Br	0.29353	1.525566	-2.430288
H	1.095743	0.0	0.0
C	-0.027154	-1.207197	-2.157128
N	0.304423	-2.197466	-2.695978
N	-1.934	0.083993	-1.666762
H	-2.368518	-0.720752	-1.226903
H	-2.273299	0.921146	-1.205997
C	-0.444709	-1.281053	0.708227
H	-0.066075	-2.17336	0.205376
H	-0.029048	-1.280172	1.718581
H	-1.535803	-1.354827	0.797236
C	-0.474152	1.224906	0.773455
H	-0.191047	2.153073	0.275244
H	0.009353	1.222047	1.752977
H	-1.558884	1.220818	0.937083
Br	3.598734	0.0	0.0
