18

C	-0.292113	0.056952	-1.507596
C	0.0	0.0	0.0
Br	-0.113008	-1.850843	-2.337687
H	1.098431	0.0	0.0
C	-1.69075	0.37158	-1.813487
N	-2.81653	0.649136	-2.010259
N	0.594186	0.956821	-2.114046
H	1.550726	0.78571	-1.797378
H	0.536078	0.963977	-3.123073
C	-0.57633	-1.189819	0.742141
H	-0.398721	-1.056592	1.813356
H	-1.658327	-1.270309	0.584892
H	-0.105782	-2.123713	0.437364
C	-0.465076	1.312885	0.637248
H	-1.557038	1.361973	0.70454
H	-0.105072	2.173614	0.073596
H	-0.052669	1.373782	1.646879
Br	3.572547	0.0	0.0
