18

C	-0.318859	0.071313	-1.508709
C	0.0	0.0	0.0
Br	-0.08089	-1.721497	-2.350095
H	1.098205	0.0	0.0
C	-1.727293	0.414848	-1.746248
N	-2.858743	0.713354	-1.864476
N	0.541333	0.969726	-2.244448
H	0.293859	1.927044	-2.018678
H	1.499291	0.804973	-1.923729
C	-0.577892	-1.189745	0.746099
H	-1.664956	-1.253454	0.614766
H	-0.371898	-1.076173	1.8143
H	-0.128919	-2.126337	0.418678
C	-0.438287	1.30697	0.667674
H	-1.528667	1.383838	0.740084
H	-0.05763	2.186334	0.143324
H	-0.019136	1.337794	1.676351
Br	3.567914	0.0	0.0
