18

C	-0.320324	0.064578	-1.508048
C	0.0	0.0	0.0
Br	-0.075898	-1.729057	-2.345191
H	1.098229	0.0	0.0
C	-1.729774	0.40364	-1.742975
N	-2.860089	0.706037	-1.859231
N	0.533569	0.964404	-2.248406
H	1.492466	0.805864	-1.930714
H	0.281583	1.920912	-2.023997
C	-0.577262	-1.187333	0.751007
H	-0.366958	-1.071922	1.817722
H	-1.664516	-1.25001	0.624337
H	-0.131005	-2.125033	0.42444
C	-0.439431	1.310241	0.660344
H	-0.054527	2.187008	0.134976
H	-0.026155	1.344242	1.67096
H	-1.529731	1.389047	0.726592
Br	3.56906	0.0	0.0
