18

C	-0.526878	0.024164	-1.445272
C	0.0	0.0	0.0
Br	0.2946	1.52781	-2.426574
H	1.095791	0.0	0.0
C	-0.137978	-1.19354	-2.166653
N	0.107275	-2.20908	-2.704756
N	-1.969139	0.170969	-1.610488
H	-2.422151	-0.621659	-1.164993
H	-2.260267	1.015749	-1.131044
C	-0.437643	-1.287217	0.7026
H	-1.52709	-1.359111	0.810732
H	-0.07092	-2.175097	0.183738
H	-0.002478	-1.297224	1.704567
C	-0.456117	1.216847	0.799697
H	-1.530522	1.195552	1.018117
H	-0.211862	2.150877	0.291134
H	0.077873	1.219021	1.752399
Br	3.584177	0.0	0.0
