15

C	-0.487928	-0.01153	-1.43292
C	0.0	0.0	0.0
Br	0.345436	-1.45725	-2.434909
H	1.092124	0.0	0.0
H	-0.344861	-0.942434	0.44053
C	-1.935016	-0.170929	-1.570059
N	-3.095744	-0.35869	-1.608925
N	-0.112778	1.323997	-2.090524
O	-0.99488	2.182451	-2.059719
O	1.02102	1.465191	-2.510352
C	-0.518748	1.1954	0.790853
H	-0.043521	2.116365	0.446688
H	-1.606009	1.327021	0.755107
H	-0.21977	1.058219	1.832705
F	2.598805	0.0	0.0
