15

C	-0.259462	-0.004782	-1.454477
C	0.0	0.0	0.0
Br	-2.20847	-0.200743	-1.98849
H	1.096758	0.0	0.0
H	-0.364991	-0.938269	0.423113
C	0.199712	1.202425	-2.128613
N	0.55493	2.210419	-2.617181
N	0.405529	-1.223075	-2.10753
O	1.003655	-1.040374	-3.160228
O	0.25585	-2.290136	-1.53324
C	-0.521474	1.227482	0.720228
H	-1.607894	1.350455	0.639374
H	-0.25981	1.150035	1.778098
H	-0.035358	2.12864	0.337468
F	2.544233	0.0	0.0
