15

C	-0.431188	-0.183125	-1.414725
C	0.0	0.0	0.0
Br	-2.407576	0.005948	-1.713647
H	1.107735	0.0	0.0
H	-0.319007	1.004656	0.298477
C	0.187226	0.777779	-2.320988
N	0.624997	1.593957	-3.043955
N	-0.049223	-1.595851	-1.885342
O	-0.818796	-2.512333	-1.629241
O	1.05287	-1.6927	-2.410559
C	-0.488911	-1.059107	0.972906
H	-1.574649	-1.203342	0.970981
H	-0.173408	-0.762403	1.976275
H	-0.009424	-2.017774	0.76494
F	2.552452	0.0	0.0
