14

C	0.0	0.0	0.0
C	-0.424469	-0.087996	-1.472275
F	1.379477	0.0	0.0
H	-1.522402	-0.134331	-1.457679
C	-0.417473	1.23618	0.673864
N	-0.605575	2.202503	1.314292
C	-0.420491	-1.201104	0.73772
N	-0.671847	-2.216545	1.270853
N	0.150969	-1.302941	-2.024343
H	1.11805	-1.159311	-2.285193
H	-0.37375	-1.598655	-2.835542
C	0.028908	1.127414	-2.172436
N	0.427783	2.029351	-2.812234
Cl	-3.227375	0.0	0.0
