14

C	0.0	0.0	0.0
C	-0.365139	-0.390698	-1.494295
F	1.373258	0.0	0.0
H	0.401235	0.170706	-2.044546
C	-0.453089	1.374254	0.254211
N	-0.650264	2.526241	0.374449
C	-0.473345	-0.941485	1.01684
N	-0.707056	-1.743727	1.842645
N	-1.640879	-0.079698	-2.044465
H	-2.421936	-0.335627	-1.423597
H	-1.718391	0.9217	-2.175845
C	-0.033504	-1.817711	-1.662439
N	0.228342	-2.950006	-1.830847
Cl	-3.923371	0.0	0.0
