14

C	0.0	0.0	0.0
C	-0.342115	-0.016484	-1.560497
F	1.37518	0.0	0.0
H	0.526706	0.527872	-1.951835
C	-0.441278	1.276223	0.578912
N	-0.630999	2.353893	1.006795
C	-0.472403	-1.152141	0.767879
N	-0.699081	-2.123127	1.39002
N	-1.52343	0.595648	-2.07739
H	-2.354786	0.271394	-1.561313
H	-1.468385	1.596337	-1.920966
C	-0.205211	-1.405	-2.028525
N	-0.057737	-2.501068	-2.421813
Cl	-3.660579	0.0	0.0
