14

C	0.0	0.0	0.0
C	-0.538679	0.376525	-1.414084
F	1.369377	0.0	0.0
H	-1.406268	1.023947	-1.250285
C	-0.392711	1.021829	0.993559
N	-0.550106	1.848584	1.812687
C	-0.427864	-1.339372	0.435677
N	-0.54815	-2.441286	0.824353
N	-0.888232	-0.839885	-2.140055
H	-1.808496	-1.088505	-1.772536
H	-1.00898	-0.607449	-3.120194
C	0.494627	1.125519	-2.134742
N	1.271706	1.748176	-2.756872
Cl	-3.207147	0.0	0.0
