14

C	0.0	0.0	0.0
C	-0.364894	0.029211	-1.551836
F	1.375761	0.0	0.0
H	0.475341	0.617498	-1.941912
C	-0.444174	1.257182	0.616632
N	-0.70041	2.319847	1.046083
C	-0.472252	-1.173555	0.736007
N	-0.700982	-2.160034	1.33187
N	-1.580228	0.614768	-2.012733
H	-2.398066	0.250968	-1.49947
H	-1.556781	1.6122	-1.836215
C	-0.195111	-1.337501	-2.069863
N	-0.035017	-2.419316	-2.495511
Cl	-3.805861	0.0	0.0
