18

C	0.0	0.0	0.0
C	-0.552366	0.46671	-1.372499
Cl	1.728675	0.0	0.0
H	-1.573751	0.75391	-1.083258
N	-0.397052	1.021503	1.077148
O	-0.137192	0.733351	2.238261
O	-0.818841	2.103356	0.693086
N	-0.44833	-1.398633	0.45147
O	-0.021043	-2.302801	-0.263318
O	-1.106782	-1.542325	1.461918
C	-0.669294	-0.654935	-2.384708
H	-1.019077	-0.218956	-3.327993
H	-1.426245	-1.35507	-2.042176
H	0.273282	-1.174935	-2.565641
N	0.305523	1.5384	-1.896156
H	0.111612	1.62426	-2.886047
H	0.010375	2.402368	-1.45733
F	-2.613171	0.0	0.0
