18

C	0.0	0.0	0.0
C	-0.247394	-0.043338	-1.61097
Cl	1.747346	0.0	0.0
H	0.402312	-0.895309	-1.840788
N	-0.509758	1.208564	0.761408
O	-0.947874	1.089772	1.888447
O	-0.348917	2.267449	0.160904
N	-0.420687	-1.30617	0.656249
O	-0.23928	-1.409687	1.862622
O	-0.785496	-2.202082	-0.09119
C	0.318617	1.181029	-2.340328
H	-0.358157	2.024839	-2.215401
H	0.344278	0.9142	-3.399931
H	1.313215	1.49684	-2.034222
N	-1.537614	-0.323626	-2.17895
H	-1.928896	0.56853	-2.469062
H	-2.148372	-0.540029	-1.356042
F	-2.537581	0.0	0.0
