18

C	0.0	0.0	0.0
C	-0.514894	0.100453	-1.478546
Cl	1.738821	0.0	0.0
H	-1.543388	0.437008	-1.294647
N	-0.383962	1.268347	0.775987
O	-0.109443	1.288608	1.968554
O	-0.807189	2.218123	0.132594
N	-0.436326	-1.233722	0.805778
O	-1.04315	-1.110006	1.850361
O	-0.039642	-2.293978	0.325822
C	-0.579723	-1.242709	-2.17814
H	-1.32964	-1.865556	-1.698594
H	-0.884059	-1.040186	-3.206833
H	0.377647	-1.771691	-2.19221
N	0.221423	1.045039	-2.299314
H	1.196304	0.784521	-2.390101
H	0.166067	1.963629	-1.880442
F	-2.531477	0.0	0.0
