18

C	0.0	0.0	0.0
C	-0.244881	0.102451	-1.573278
Cl	1.744235	0.0	0.0
H	0.466004	0.889838	-1.835036
N	-0.474995	1.25264	0.71219
O	-0.704706	1.232554	1.906659
O	-0.439311	2.259462	0.009572
N	-0.453559	-1.276349	0.679135
O	-0.867294	-2.188009	-0.019782
O	-0.241717	-1.349671	1.883495
C	-1.562577	0.52322	-2.205938
H	-2.319426	-0.240738	-2.074681
H	-1.334251	0.680395	-3.273892
H	-1.949973	1.442058	-1.778708
N	0.293781	-1.123351	-2.181472
H	-0.437008	-1.823778	-2.159064
H	0.490029	-0.908937	-3.152636
F	-2.316174	0.0	0.0
