18

C	0.0	0.0	0.0
C	-0.490691	0.047856	-1.4912
Cl	1.745827	0.0	0.0
H	0.428396	-0.113608	-2.063455
N	-0.413563	1.060462	1.017826
O	-0.150921	0.78337	2.182362
O	-0.847544	2.129543	0.623737
N	-0.355194	-1.405332	0.621171
O	-1.209322	-1.482983	1.480803
O	0.29981	-2.326282	0.157741
C	-1.101022	1.376681	-1.940395
H	-2.045871	1.475733	-1.413333
H	-0.464136	2.247232	-1.772217
H	-1.275348	1.280763	-3.018513
N	-1.365007	-1.087758	-1.759339
H	-1.60167	-1.039842	-2.745216
H	-2.204888	-0.845276	-1.176744
F	-2.751685	0.0	0.0
