18

C	0.0	0.0	0.0
C	-0.280855	-0.0838	-1.573602
Cl	1.747025	0.0	0.0
H	0.578709	-0.676416	-1.895643
N	-0.448572	1.198471	0.81194
O	-0.207575	1.133601	2.012235
O	-0.886571	2.174503	0.22829
N	-0.426162	-1.319533	0.67503
O	-0.077394	-2.303806	0.035616
O	-0.990891	-1.32238	1.749663
C	-0.152122	1.292719	-2.242209
H	0.014128	1.113719	-3.308466
H	0.675793	1.902009	-1.873515
H	-1.080896	1.841163	-2.110048
N	-1.458795	-0.80924	-2.01857
H	-2.18666	-0.555793	-1.302063
H	-1.722239	-0.405202	-2.91019
F	-2.528803	0.0	0.0
