16

C	-0.381946	0.151464	-1.470819
C	0.0	0.0	0.0
F	0.040114	-1.103063	-2.065617
H	1.09786	0.0	0.0
N	-1.786599	0.27529	-1.640846
H	-2.024747	0.138727	-2.615795
H	-2.212201	-0.466252	-1.094828
N	0.348748	1.217955	-2.036199
H	0.184187	1.278514	-3.031451
H	1.341682	1.064851	-1.872515
N	-0.5849	-1.244899	0.521121
H	-0.054241	-1.994542	0.089753
H	-0.386062	-1.286431	1.514647
C	-0.49268	1.135582	0.776388
N	-0.887112	1.999254	1.467343
Br	3.514194	0.0	0.0
