16

C	-0.349545	-0.035146	-1.497639
C	0.0	0.0	0.0
F	-0.027732	1.25297	-2.015088
H	1.09563	0.0	0.0
N	0.44062	-1.033429	-2.117965
H	0.397409	-0.926345	-3.124988
H	1.409002	-0.912042	-1.823559
N	-1.74814	-0.269223	-1.70657
H	-1.915205	-0.535974	-2.670235
H	-2.247661	0.593085	-1.518546
N	-0.450055	-1.184169	0.71985
H	0.259083	-1.895459	0.595589
H	-1.301504	-1.510661	0.274532
C	-0.564103	1.208906	0.60553
N	-1.085714	2.158906	1.056885
Br	3.495477	0.0	0.0
