16

C	-0.376621	-0.036431	-1.480703
C	0.0	0.0	0.0
F	0.039924	-1.358215	-1.90641
H	1.094585	0.0	0.0
N	-1.779233	0.07339	-1.673495
H	-2.210819	-0.570611	-1.019608
H	-2.018589	-0.211245	-2.615782
N	0.366846	0.944364	-2.171749
H	1.357067	0.796679	-1.989656
H	0.194991	0.900017	-3.168415
N	-0.591168	-1.16669	0.672604
H	-0.408282	-1.077795	1.66833
H	-0.05266	-1.965455	0.350819
C	-0.492266	1.228482	0.621058
N	-0.881057	2.183363	1.1831
Br	3.5195	0.0	0.0
