14

C	0.0	0.0	0.0
C	-0.346432	-0.216436	-1.484908
Cl	1.739665	0.0	0.0
H	0.414343	-0.879645	-1.900296
H	-0.210743	0.760543	-1.952311
N	-0.452432	1.356416	0.528935
O	-0.548931	1.511519	1.732468
O	-0.536371	2.239362	-0.314562
N	-0.423041	-1.197366	0.839619
O	-0.514578	-1.083218	2.0483
O	-0.489178	-2.242554	0.20577
C	-1.645261	-0.758495	-1.883437
N	-2.430129	-1.289422	-2.584156
F	-2.261071	0.0	0.0
