14

C	-0.565112	-0.004442	-1.40651
C	0.0	0.0	0.0
Cl	0.22391	-1.371909	-2.301675
H	1.089465	0.0	0.0
H	-0.290662	-0.953271	0.456713
N	-1.976856	-0.033736	-1.439711
H	-2.308959	-0.081501	-2.394601
H	-2.330642	-0.813178	-0.901445
N	-0.176043	1.25385	-2.183133
O	0.588182	2.043274	-1.651458
O	-0.700021	1.368366	-3.287792
C	-0.548724	1.086396	0.803921
N	-0.97828	1.948148	1.474868
Cl	3.315734	0.0	0.0
