14

C	-0.597342	-0.022831	-1.395768
C	0.0	0.0	0.0
Cl	0.112198	-1.355799	-2.327653
H	1.089199	0.0	0.0
H	-0.313543	-0.934044	0.476037
N	-2.009141	-0.155476	-1.383106
H	-2.411305	0.559059	-0.784468
H	-2.366322	-0.042906	-2.32491
N	-0.184149	1.264135	-2.171394
O	0.715469	1.954882	-1.717577
O	-0.828426	1.48469	-3.195768
C	-0.553394	1.117069	0.756337
N	-1.057248	2.019978	1.313918
Cl	3.308477	0.0	0.0
