14

C	-0.35101	-0.054124	-1.486278
C	0.0	0.0	0.0
Cl	0.012855	1.486873	-2.251634
H	1.092989	0.0	0.0
H	-0.325904	-0.942191	0.450996
N	0.329806	-1.100136	-2.19138
H	1.330253	-0.912969	-2.10912
H	0.142904	-1.973778	-1.710838
N	-1.855766	-0.352302	-1.615807
O	-2.16157	-1.484673	-1.248914
O	-2.630123	0.504636	-2.01265
C	-0.588988	1.112875	0.722869
N	-1.097575	1.987118	1.317899
Cl	3.279331	0.0	0.0
