14

C	-0.304718	-0.013014	-1.487215
C	0.0	0.0	0.0
Cl	-0.082462	1.710723	-2.113877
H	1.093931	0.0	0.0
H	-0.389071	0.890369	0.488389
N	0.465386	-0.975832	-2.124866
H	0.361393	-0.969915	-3.129163
H	1.439286	-0.908892	-1.829948
N	-1.780854	-0.26472	-1.795222
O	-2.59429	0.082487	-0.947473
O	-2.040517	-0.757146	-2.887688
C	-0.494956	-1.205783	0.651503
N	-0.889837	-2.172896	1.186883
Cl	3.280644	0.0	0.0
