14

C	-0.573842	-0.034812	-1.418425
C	0.0	0.0	0.0
Cl	0.083108	-1.39907	-2.305175
H	1.093082	0.0	0.0
H	-0.330982	0.931322	0.469778
N	-2.010517	-0.047457	-1.541152
H	-2.386798	0.680186	-0.943369
H	-2.35468	-0.945123	-1.221418
N	-0.157236	1.287691	-2.089576
O	0.54177	1.285965	-3.086086
O	-0.635057	2.275567	-1.533906
C	-0.536236	-1.123293	0.754588
N	-1.02034	-2.026049	1.329092
Cl	3.285869	0.0	0.0
