14

C	-0.60214	-0.054267	-1.409858
C	0.0	0.0	0.0
Cl	-0.007215	-1.513806	-2.199971
H	1.091947	0.0	0.0
H	-0.302063	-0.923467	0.505805
N	-2.033898	-0.023571	-1.511438
H	-2.374157	0.839139	-1.101677
H	-2.411029	-0.813946	-1.003191
N	-0.105325	1.177755	-2.185122
O	-0.799572	2.182042	-2.030312
O	0.920374	1.097678	-2.837141
C	-0.539656	1.127065	0.751542
N	-0.996818	2.032983	1.34312
Cl	3.299861	0.0	0.0
