19

C	0.0	0.0	0.0
C	-0.311524	0.074746	-1.542375
Cl	1.810361	0.0	0.0
H	0.549028	0.565965	-1.997861
C	-0.390998	1.229355	0.812294
H	0.046948	2.144296	0.419028
H	-0.032766	1.073684	1.835107
H	-1.478615	1.306877	0.815971
N	-0.500333	-1.230779	0.543928
H	-1.522264	-1.16247	0.444489
H	-0.309231	-1.228605	1.541331
N	-1.405075	1.030274	-2.000404
O	-2.184717	0.635975	-2.857029
O	-1.317236	2.192292	-1.612657
C	-0.517905	-1.288939	-2.166124
H	0.26563	-1.962101	-1.821344
H	-0.487926	-1.211347	-3.25333
H	-1.486694	-1.688813	-1.872071
Cl	-3.566163	0.0	0.0
