19

C	0.0	0.0	0.0
C	-0.397457	0.324366	-1.457277
Cl	1.845679	0.0	0.0
H	-0.128732	-0.541577	-2.066164
C	-0.495289	0.986877	1.034198
H	-0.160016	1.994505	0.802069
H	-0.110677	0.701245	2.016579
H	-1.588203	0.948968	1.052318
N	-0.51722	-1.288783	0.273111
H	-0.512616	-1.508377	1.259373
H	-0.053404	-2.015456	-0.254113
N	0.439225	1.423916	-2.041767
O	1.079101	1.163877	-3.060715
O	0.403549	2.526353	-1.499349
C	-1.856371	0.697507	-1.623965
H	-2.052745	1.685079	-1.207186
H	-2.522423	0.000125	-1.11349
H	-2.111388	0.711999	-2.686883
Cl	-4.796532	0.0	0.0
