19

C	0.0	0.0	0.0
C	-0.490149	0.025196	-1.474855
Cl	1.804289	0.0	0.0
H	-1.549484	-0.247695	-1.406523
C	-0.443346	1.265794	0.720451
H	-1.531511	1.34326	0.660927
H	0.02968	2.153748	0.302786
H	-0.14582	1.161509	1.764713
N	-0.462285	-1.129007	0.760103
H	-1.473811	-1.000175	0.849804
H	-0.321122	-1.975063	0.218902
N	0.17245	-1.080491	-2.241326
O	0.974397	-0.789757	-3.128983
O	-0.109504	-2.237505	-1.921011
C	-0.322083	1.33773	-2.206354
H	-0.999004	2.06788	-1.763357
H	0.706124	1.699522	-2.157049
H	-0.594628	1.21758	-3.255683
Cl	-3.65323	0.0	0.0
