19

C	0.0	0.0	0.0
C	-0.566268	-0.09851	-1.417899
Cl	1.844068	0.0	0.0
H	-1.659573	-0.094967	-1.257995
C	-0.450937	1.309581	0.626101
H	-0.130193	1.325277	1.671186
H	-0.00912	2.172905	0.13161
H	-1.544288	1.337888	0.58172
N	-0.484026	-1.065469	0.79275
H	-0.361625	-0.892077	1.779276
H	-0.098546	-1.956057	0.519753
N	-0.301725	-1.419741	-2.095617
O	-0.774178	-1.544329	-3.222291
O	0.345	-2.297745	-1.524477
C	-0.144322	1.00163	-2.376833
H	-0.418915	1.973058	-1.972558
H	0.933824	0.977957	-2.548549
H	-0.664521	0.872038	-3.323475
Cl	-3.834588	0.0	0.0
