15

C	0.0	0.0	0.0
C	-0.56665	-0.407247	-1.400515
Br	1.950282	0.0	0.0
H	-1.352324	-1.129287	-1.166439
H	-0.330915	1.007848	0.230821
C	-0.41061	-0.92627	1.052051
N	-0.58684	-1.717753	1.903401
C	0.414741	-1.009029	-2.394209
H	0.952767	-1.868165	-1.987051
H	-0.161567	-1.356129	-3.259559
H	1.135425	-0.264645	-2.736532
N	-1.1703	0.813092	-1.938967
H	-1.514306	0.594668	-2.871598
H	-2.00048	0.852081	-1.311336
F	-2.662373	0.0	0.0
