15

C	0.0	0.0	0.0
C	-0.240324	-0.191712	-1.557118
Br	1.960682	0.0	0.0
H	0.609051	0.334884	-2.015204
H	-0.333066	0.9706	0.347638
C	-0.492345	-1.064782	0.857768
N	-0.624785	-1.972694	1.595515
C	-1.458466	0.408256	-2.232992
H	-1.301643	0.321509	-3.322423
H	-1.549521	1.467617	-1.986002
H	-2.359607	-0.081864	-1.886589
N	-0.17626	-1.624203	-1.841913
H	-0.370473	-1.760143	-2.827766
H	0.76694	-1.958804	-1.668144
F	-2.368603	0.0	0.0
