16

C	-0.412618	0.112888	-1.458436
C	0.0	0.0	0.0
Br	-0.163464	-1.694106	-2.381661
H	1.091828	0.0	0.0
H	-1.484244	0.265253	-1.585423
N	0.354043	1.140338	-2.036215
H	1.345968	0.990572	-1.86137
H	0.183187	1.239108	-3.02632
N	-0.565196	-1.22053	0.626334
O	0.187144	-1.976446	1.231232
O	-1.789036	-1.358059	0.535992
C	-0.491169	1.199917	0.800752
H	-1.580592	1.278543	0.76286
H	-0.039541	2.102535	0.391982
H	-0.171863	1.092571	1.840281
Br	3.508893	0.0	0.0
