16

C	-0.525824	-0.027996	-1.427668
C	0.0	0.0	0.0
Br	0.161383	1.596683	-2.396805
H	1.091597	0.0	0.0
H	-0.05717	-0.846597	-1.966473
N	-1.939848	-0.147063	-1.472966
H	-2.263015	-0.283054	-2.421704
H	-2.38845	0.677263	-1.094559
N	-0.380952	-1.340158	0.580714
O	-0.105941	-2.332974	-0.088538
O	-0.918882	-1.373641	1.687156
C	-0.520101	1.120651	0.872108
H	-0.243052	2.073777	0.420976
H	-1.602204	1.071626	1.014069
H	-0.050089	1.05965	1.852601
Br	3.484007	0.0	0.0
