16

C	-0.439005	0.135801	-1.458868
C	0.0	0.0	0.0
Br	-0.179723	-1.580145	-2.396198
H	1.091828	0.0	0.0
H	-1.511831	0.326323	-1.533169
N	0.299271	1.152263	-2.15786
H	-0.033388	2.066961	-1.879952
H	1.288211	1.070221	-1.923639
N	-0.580729	-1.214289	0.625852
O	0.161453	-2.020634	1.175521
O	-1.812426	-1.306664	0.571801
C	-0.467089	1.197656	0.818237
H	-1.548412	1.339197	0.746664
H	-0.193441	1.046827	1.865204
H	0.054393	2.092787	0.477745
Br	3.512741	0.0	0.0
