16

C	-0.496538	-0.009807	-1.440514
C	0.0	0.0	0.0
Br	0.172738	1.642405	-2.374451
H	1.091594	0.0	0.0
H	-0.000214	-0.809546	-1.984296
N	-1.905972	-0.151213	-1.523644
H	-2.378194	0.651902	-1.128528
H	-2.203999	-0.26012	-2.484699
N	-0.402293	-1.346059	0.544782
O	-1.079543	-1.393018	1.573951
O	-0.022555	-2.330584	-0.086953
C	-0.526499	1.110299	0.880515
H	-0.204096	2.066732	0.469019
H	-1.614088	1.089651	0.976065
H	-0.101328	1.010029	1.878682
Br	3.489352	0.0	0.0
