16

C	-0.304973	0.009609	-1.502385
C	0.0	0.0	0.0
Br	-2.249872	-0.276057	-1.803357
H	1.095074	0.0	0.0
H	-0.136959	1.033604	-1.839297
N	0.447731	-0.874469	-2.336408
H	1.409417	-0.535094	-2.325747
H	0.465414	-1.788446	-1.898644
N	-0.442987	-1.278814	0.6211
O	-1.176697	-1.233057	1.609406
O	-0.054809	-2.328465	0.102016
C	-0.529939	1.192807	0.757235
H	-1.619387	1.23288	0.743332
H	-0.191036	1.162195	1.792602
H	-0.12329	2.096813	0.298066
Br	3.458992	0.0	0.0
