16

C	-0.399097	0.115317	-1.464423
C	0.0	0.0	0.0
Br	-0.166788	-1.700898	-2.378434
H	1.09183	0.0	0.0
H	-1.466241	0.285972	-1.606525
N	0.391937	1.127155	-2.036899
H	1.381163	0.96635	-1.848567
H	0.234305	1.226346	-3.029594
N	-0.574446	-1.219117	0.620222
O	-1.80009	-1.340778	0.533256
O	0.170579	-1.992454	1.211429
C	-0.494942	1.202456	0.792785
H	-1.582706	1.289262	0.73767
H	-0.030112	2.100941	0.390016
H	-0.192831	1.095289	1.837416
Br	3.5197	0.0	0.0
