16

C	-0.489049	-0.000785	-1.444522
C	0.0	0.0	0.0
Br	-0.003052	1.688914	-2.298388
H	1.090935	0.0	0.0
H	0.079726	-0.743837	-2.006584
N	-1.934892	-0.146327	-1.531861
H	-2.137963	-1.118007	-1.319108
H	-2.225549	0.023207	-2.487483
N	-0.357508	-1.341636	0.591348
O	-0.561236	-2.283749	-0.182093
O	-0.380743	-1.447093	1.812974
C	-0.544876	1.104103	0.879668
H	-0.183313	0.968707	1.896958
H	-0.175365	2.060567	0.512069
H	-1.636421	1.110884	0.866817
Br	3.471002	0.0	0.0
