16

C	-0.572859	0.02896	-1.408659
C	0.0	0.0	0.0
Br	0.172936	-1.434714	-2.464241
H	1.089859	0.0	0.0
H	-1.644472	-0.190712	-1.365061
N	-0.250756	1.298623	-2.042244
H	-0.155122	1.175712	-3.042478
H	-1.013494	1.947253	-1.87407
N	-0.492317	-1.236942	0.683697
O	0.316183	-1.946423	1.270554
O	-1.711538	-1.443772	0.645145
C	-0.492314	1.19191	0.809763
H	-0.045281	2.095005	0.394227
H	-0.148946	1.093592	1.842017
H	-1.584573	1.263288	0.801502
Br	3.617226	0.0	0.0
