17

C	0.0	0.0	0.0
C	-0.569328	0.173417	-1.417553
Br	1.968349	0.0	0.0
H	-1.661298	0.250167	-1.273914
C	-0.486374	1.028593	1.012616
H	-1.581125	1.017206	0.991353
H	-0.129839	0.750932	2.006084
H	-0.118464	2.021847	0.761435
C	-0.36125	-1.34779	0.447502
N	-0.604641	-2.425216	0.849136
N	-0.230684	-0.902339	-2.271348
H	0.703587	-0.792639	-2.642683
H	-0.894651	-0.97303	-3.029118
N	-0.119837	1.529751	-1.971216
O	0.721474	1.524631	-2.87089
O	-0.631559	2.537891	-1.492374
Br	-3.834141	0.0	0.0
