17
Coordinates from ORCA-job run
  C   0.67526133321309     -0.33182621079236     -0.14310507843423
  C   -0.55943399737694      0.14663156266182      0.13148670060878
  C   1.96917292765571      0.41776290053747     -0.00566342207872
  H   1.85016316823671      1.38569481438661      0.47485258418063
  H   2.43603688162510      0.57701765924593     -0.98461177326268
  H   2.66794917430655     -0.17093805281556      0.59730478748312
  N   0.87213244465930     -1.68439371723343     -0.50325053701225
  H   0.09408702128189     -2.08378030047806     -1.00788842692133
  H   1.72726049679234     -1.82317682551919     -1.02257858824352
  C   -0.86320502573449      1.56059148404493      0.54119917748977
  H   -1.29847208040687      1.59360038903557      1.54713076751359
  H   -1.60453717998282      2.00170711779254     -0.13512237306799
  H   0.00901888028534      2.21359044298682      0.53348845780673
  C   -1.75294737748234     -0.77010711828082      0.01458545776138
  H   -2.04963407317494     -0.93894961429069     -1.02947989862640
  H   -1.55493395401880     -1.74814557395816      0.46480229931753
  H   -2.61991863987882     -0.34427895732342      0.52484986548557
