17
Coordinates from ORCA-job run
  C   0.69095242911013     -0.20141700194832     -0.25949081662350
  C   -0.57552478239634      0.08337021791534      0.11949450785136
  C   1.89041693938216      0.68652913731807     -0.09341625079560
  H   2.39624707558707      0.79860572712130     -1.05773719965606
  H   2.61108500240630      0.24431722983931      0.60431696756401
  H   1.63686717349685      1.68039945898231      0.26706513931813
  N   0.99067616142882     -1.38227496001287     -0.97713625999737
  H   1.95673473962138     -1.65880465997119     -0.87371668563132
  H   0.38523607928910     -2.15677573974401     -0.74621716767280
  C   -1.68045916566944     -0.89508725083206     -0.19741909972292
  H   -2.65987023257256     -0.42520833927696     -0.08281619835008
  H   -1.60973839130829     -1.26125867032712     -1.22671427206175
  H   -1.66725646805537     -1.76963093581811      0.46719983214587
  C   -0.99394765260359      1.32116555544258      0.86239071631949
  H   -1.52392231391839      1.05256673114717      1.78350636275508
  H   -1.69005395980245      1.92139472625343      0.26434018275662
  H   -0.15944263399538      1.96210877391113      1.14535024180083
