17
Coordinates from ORCA-job run
  C   0.73961060261089     -0.18564815360560     -0.06719587521472
  C   -0.56477427270008      0.09146114580855      0.15671823330637
  C   1.40034295985966     -0.33036521077328     -1.40768326981856
  H   2.14130243179126      0.46173833849194     -1.56671808948532
  H   1.93159940722078     -1.28664387595786     -1.44884283209216
  H   0.69546860427286     -0.30501543143017     -2.23492219371924
  N   1.61761417489049     -0.48372041593264      1.00075853287679
  H   1.38442550852649     -0.00108403365915      1.85655960394713
  H   2.58325683805479     -0.30843525228259      0.76147734097437
  C   -1.57509002225897      0.39904255141098     -0.91293418863508
  H   -1.14558926549609      0.46402354384782     -1.91214424998982
  H   -2.06654837734874      1.35710554243283     -0.70817775199252
  H   -2.36620636023962     -0.35992453746812     -0.93596565734196
  C   -1.08552937602578      0.11691310488181      1.57327727031822
  H   -0.81257177724837      1.04060510162604      2.10145933118464
  H   -0.70125388242796     -0.72465512977395      2.15816478882691
  H   -2.17605719348161      0.05560271238338      1.58616900685493
