17
Coordinates from ORCA-job run
  C   0.73520498595573     -0.20541575693624     -0.05203292720836
  C   -0.54800302693945      0.16802975820733      0.15410608501042
  C   1.51760481369617     -0.03662318229705     -1.32246815018330
  H   2.45723625126954      0.48083891299572     -1.10400725178808
  H   0.98696160151817      0.54024304035513     -2.07580940087183
  H   1.77414793837303     -1.01006969993484     -1.75645996667383
  N   1.52576781399366     -0.71790634815699      1.00227139767654
  H   0.99389492901882     -1.23324624208107      1.68868729201522
  H   2.29222651326493     -1.28358305171155      0.66632040475227
  C   -1.15757361270646     -0.00021531179058      1.52482845400260
  H   -0.47320400601046      0.33076591076163      2.31248458984232
  H   -2.07337372771157      0.58800677229949      1.61677123646218
  H   -1.42712432644480     -1.04386173771238      1.73662950745025
  C   -1.45706342248183      0.74168620355856     -0.89653107856815
  H   -1.01135875737738      0.76889166986585     -1.89040775501099
  H   -2.37673959665453      0.14978137511262     -0.96922006949472
  H   -1.76160437076355      1.76267768746437     -0.63716236741252
