17
Coordinates from ORCA-job run
  C   0.75630448686001     -0.09628763517983     -0.06958317311663
  C   -0.55879734687578      0.12166627469173      0.15764566225039
  C   1.42126972943570     -0.20050936164539     -1.41185904969182
  H   0.75351546377902      0.03463304710491     -2.23689361466915
  H   2.26478005365337      0.49592214568781     -1.45434514498842
  H   1.82119732825212     -1.20833505933091     -1.57334060138331
  N   1.68513285171927     -0.13909809868581      0.99531206626313
  H   1.29464492915410     -0.49617905734139      1.85526976473397
  H   2.51955931996035     -0.65549251635642      0.75597649137025
  C   -1.61461591223316      0.20327808345437     -0.90907585760303
  H   -2.41527408408397     -0.51790072844218     -0.70828208774888
  H   -1.23862617485139     -0.00259052554950     -1.91076711235271
  H   -2.08279190238311      1.19474975277051     -0.92339203408962
  C   -1.04933557784900      0.28268487823927      1.57611378678419
  H   -1.11894570847223     -0.67724135100445      2.10546549411880
  H   -2.04731134101188      0.72662477507265      1.59250132756217
  H   -0.39070611505344      0.93507537651462      2.15825408256066
