17
Coordinates from ORCA-job run
  C   0.75813648294072     -0.09424382663400     -0.04343504583161
  C   -0.56673151486240      0.10075095989837      0.14411907208896
  C   1.49950733591181      0.02424668999956     -1.34374979123090
  H   1.90897278513110     -0.94557260041173     -1.64974694564361
  H   2.34375809910864      0.70998200492848     -1.21988554468038
  H   0.88015887816803      0.40037603451545     -2.15413577134292
  N   1.62341270940438     -0.33245697399875      1.04913978941275
  H   1.18193954415850     -0.82829509275687      1.80997158541113
  H   2.46807158421420     -0.81174369894179      0.77132109891388
  C   -1.13611545680564      0.02230116286420      1.54006492749185
  H   -2.13403971545280      0.46489983645675      1.57727567115479
  H   -1.23353654134811     -1.01310385851299      1.89369165858881
  H   -0.51071963839623      0.56017350372183      2.25975947366149
  C   -1.55962065610919      0.38110987314271     -0.94898957746012
  H   -1.12816563468967      0.34663360883100     -1.94888103667053
  H   -2.37453196281959     -0.35134757153079     -0.92090309372056
  H   -2.02049629855374      1.36728994842858     -0.81661647014303
