17
Coordinates from ORCA-job run
  C   0.75826457440716     -0.09424600636268     -0.04305542945243
  C   -0.56676758258790      0.09970602489971      0.14431993515409
  C   1.49971363954145      0.02608006368524     -1.34316473507593
  H   2.34015507184145      0.71661291026506     -1.21995144021253
  H   0.87881499673454      0.39721563533076     -2.15464733509932
  H   1.91473910349034     -0.94204404288110     -1.64705546509457
  N   1.62364286646846     -0.33214603490432      1.04954093004590
  H   1.18280877092950     -0.82988650916135      1.80951316871245
  H   2.46921443665883     -0.80959066063182      0.77135464339044
  C   -1.13659840382559      0.02158197143811      1.54007545661436
  H   -1.24029769356250     -1.01397740154801      1.89144163520641
  H   -2.13189434559547      0.47007042265617      1.57794315087547
  H   -0.50832674466762      0.55445599498644      2.26092504883795
  C   -1.55973608172197      0.37938681813895     -0.94896073540812
  H   -2.37716123482272     -0.35005859516714     -0.91685780538103
  H   -2.01698139047896      1.36775741762233     -0.82021700580572
  H   -1.12958998280900      0.33908199163365     -1.94920401730743
