16

C	0.0	0.0	0.0
C	-0.63734	-0.217429	-1.392428
Cl	1.821514	0.0	0.0
H	-1.5712	-0.746182	-1.157883
N	-0.496161	1.119012	0.644998
H	-0.366294	1.014445	1.643481
H	-1.492895	1.208271	0.437164
N	-0.257275	-1.320063	0.815906
O	-0.27242	-2.375297	0.194984
O	-0.382798	-1.19675	2.027364
C	0.176827	-1.063114	-2.266053
N	0.781307	-1.670806	-3.069605
N	-0.978438	1.043566	-2.021853
H	-1.985131	1.088845	-2.121726
H	-0.506849	1.171293	-2.904768
Br	-3.700723	0.0	0.0
