13

C	-0.417581	0.051362	-1.478
C	0.0	0.0	0.0
Cl	-0.91127	1.794257	-1.826928
H	1.089022	0.0	0.0
H	-1.338288	-0.508007	-1.645564
H	-0.417635	0.784457	0.621866
N	0.584591	-0.380799	-2.382398
H	1.514894	-0.315323	-1.973452
H	0.409222	-1.32288	-2.697926
N	-0.469473	-1.283447	0.573758
O	-0.277848	-2.306456	-0.084585
O	-1.041298	-1.252791	1.665442
Cl	3.329968	0.0	0.0
