13

C	-0.440991	-0.17964	-1.458122
C	0.0	0.0	0.0
Cl	-0.716113	1.469077	-2.13564
H	1.088683	0.0	0.0
H	-1.403634	-0.686953	-1.515521
H	-0.412944	0.869108	0.504227
N	0.494205	-0.879145	-2.295927
H	1.423137	-0.501353	-2.120105
H	0.519004	-1.835456	-1.963581
N	-0.431621	-1.18115	0.788654
O	-0.840435	-0.992999	1.932337
O	-0.358156	-2.288488	0.251548
Cl	3.328173	0.0	0.0
