13

C	-0.621152	0.012222	-1.383628
C	0.0	0.0	0.0
Cl	0.010508	1.384396	-2.339891
H	1.086784	0.0	0.0
H	-1.693636	0.210742	-1.29105
H	-0.367626	-0.884066	0.530851
N	-0.288878	-1.219517	-2.064022
H	-0.660011	-1.203786	-3.003639
H	-0.699299	-1.999662	-1.563494
N	-0.533924	1.153874	0.780841
O	0.254933	1.947624	1.280077
O	-1.764551	1.229011	0.877157
Cl	3.477802	0.0	0.0
