15

C	0.0	0.0	0.0
C	-0.562032	0.014964	-1.40618
Cl	1.853734	0.0	0.0
H	-0.359794	-0.918987	-1.927184
H	-1.679404	0.116414	-1.177272
N	-0.422713	1.133712	0.728988
H	-0.11219	1.051352	1.686272
H	-0.115455	1.991021	0.296683
N	-0.491417	-1.142997	0.705925
H	-1.52503	-0.985934	0.672039
H	-0.274376	-1.98559	0.183672
N	-0.120968	1.088829	-2.303371
O	0.055904	2.222514	-1.845149
O	-0.005342	0.812081	-3.501836
H	-3.014559	0.0	0.0
