15

C	0.0	0.0	0.0
C	-0.481984	0.161867	-1.437343
Cl	1.827092	0.0	0.0
H	-0.13318	-0.680745	-2.025705
H	-1.583152	0.206151	-1.355937
N	-0.440616	1.113346	0.791938
H	-0.217571	0.915498	1.762951
H	-1.469839	1.074047	0.697194
N	-0.467568	-1.317105	0.372091
H	-0.209775	-1.472257	1.345797
H	-1.499768	-1.190285	0.355862
N	-0.003264	1.384657	-2.118684
O	-0.506553	2.461919	-1.80888
O	0.850612	1.240433	-3.000148
H	-2.98871	0.0	0.0
