15

C	0.0	0.0	0.0
C	-0.499138	-0.114292	-1.440022
Cl	1.796862	0.0	0.0
H	-1.598713	-0.083549	-1.357825
H	-0.080392	0.692184	-2.035695
N	-0.47048	1.297419	0.434893
H	-0.193183	1.420306	1.405055
H	-1.501428	1.174311	0.424243
N	-0.458136	-1.156183	0.723588
H	-1.487911	-1.095108	0.635867
H	-0.229453	-1.02681	1.705085
N	-0.125697	-1.389934	-2.095011
O	0.923044	-1.411994	-2.748158
O	-0.889257	-2.345882	-1.975323
H	-3.008051	0.0	0.0
