16

C	0.0	0.0	0.0
C	-0.528991	0.102206	-1.417888
F	1.388385	0.0	0.0
H	-1.623148	0.119782	-1.247096
H	-0.359992	-0.917653	0.470171
C	-0.395339	1.149437	0.841058
N	-0.491127	2.113898	1.505307
C	-0.146657	-1.148545	-2.197928
H	0.939499	-1.281281	-2.25046
H	-0.586994	-2.035177	-1.731304
H	-0.531305	-1.088936	-3.220371
C	-0.060422	1.378191	-2.103237
H	1.031904	1.42631	-2.171123
H	-0.41131	2.261456	-1.562943
H	-0.466404	1.427586	-3.118234
H	-3.04721	0.0	0.0
