16

C	0.0	0.0	0.0
C	-0.515566	-0.057353	-1.425543
F	1.388378	0.0	0.0
H	-1.611163	-0.03658	-1.270605
H	-0.360199	-0.864892	0.561845
C	-0.401996	1.222991	0.724213
N	-0.499112	2.225998	1.328226
C	-0.098642	-1.378289	-2.060254
H	0.99074	-1.490031	-2.09011
H	-0.520739	-2.219065	-1.500736
H	-0.475058	-1.44242	-3.085739
C	-0.053549	1.144523	-2.237368
H	-0.440448	2.073418	-1.80982
H	1.039138	1.210829	-2.277819
H	-0.42722	1.069836	-3.26323
H	-3.022703	0.0	0.0
