12
Coordinates from ORCA-job run
  C   -0.55101173429794      0.01979227790831     -0.49254981638637
  C   0.50282504621005      0.11542562576657      0.60070199309198
  H   -0.35212743556176      0.79922571220174     -1.22881374962579
  H   0.52512254850907      1.12429550336462      1.01198116042850
  H   -0.45437949579511     -0.94963290125802     -1.00218141014845
  H   0.34673963065887     -0.61531033054010      1.39252117393989
  N   -1.85500784619494      0.25784685287546      0.11782942023971
  H   -2.19630033054297     -0.58856853388935      0.55542498664491
  H   -2.52759231091557      0.52526518649908     -0.58814566069729
  N   1.85072479333275     -0.16090661372868      0.02927040404895
  O   2.22636578690056      0.58629530217025     -0.87239575638376
  O   2.48364134769697     -1.11572808136987      0.47535725484772
