12
Coordinates from ORCA-job run
  C   -0.58718671845211     -0.00361529109202     -0.44865700186113
  C   0.54826747604345      0.14456973564673      0.55306112810960
  H   -0.44117122628789      0.72972592310755     -1.24242978858502
  H   0.60695256371850      1.17478901083114      0.90328077765382
  H   -0.53536484608939     -1.00186290387694     -0.90654026072990
  H   0.45092569463698     -0.53890527023954      1.39490836170350
  N   -1.83914163215148      0.28255331491944      0.24451660984283
  H   -2.56197277268046      0.51609010602947     -0.42277057403108
  H   -2.15113383430013     -0.53399222399705      0.75472072867648
  N   1.84674945924462     -0.17604934988379     -0.10352154916789
  O   2.15502855544096      0.51475883839186     -1.07309426793283
  O   2.50804728087695     -1.10906188983686      0.34752583632162
