17
Coordinates from ORCA-job run
  C   -0.47812146656105      0.13442356200105     -0.46508446834475
  C   0.70600700063468     -0.28930116088404      0.41869552859609
  Cl  -1.04020040419231     -1.28297794720126     -1.41906931464504
  H   0.96571801681656      0.62454479935521      0.98368545790240
  C   -1.65140159762765      0.61956055374707      0.36948267913633
  H   -2.47025201063406      0.92533004547750     -0.28547238912174
  H   -1.33612443502405      1.48386581048035      0.96372762636375
  H   -1.99327664486127     -0.15846562927913      1.04839385934750
  N   0.01393338054867      1.11181533697539     -1.43083863268875
  H   0.17116552627237      1.98936655276890     -0.94301835136484
  H   -0.69637064950770      1.27785415935975     -2.13516518839491
  N   1.79180754508924     -0.77054499919125     -0.41844897754175
  H   2.66678949779232     -0.71980971820600      0.08872902481366
  H   1.85583770396995     -0.18357743836862     -1.24318939667280
  N   0.27616729564217     -1.26461400677081      1.40106086568687
  H   0.97149492358293     -1.33291898334758      2.13455739689178
  H   0.24682631805920     -2.16455093691653      0.93195428003620
