17
Coordinates from ORCA-job run
  C   -0.40014889625098      0.41839051139390     -0.51400688818900
  C   0.86957541158961     -0.27035723325565      0.02545085884332
  Cl  -0.57394913686542     -0.22860426540780     -2.28177445106576
  H   1.69503379032111      0.06222224028597     -0.62480331097717
  C   -1.66748386545986      0.01108582294571      0.20397288001005
  H   -1.60654633747880      0.36782722583117      1.23461473778727
  H   -1.79041012910177     -1.06936345133806      0.19397480910485
  H   -2.53431305676646      0.47578188547419     -0.27084074205289
  N   -0.24585204532178      1.81687270062790     -0.51075666056871
  H   -1.01292337460135      2.27823261946043     -0.98139933827960
  H   0.63203998904403      2.11069725132616     -0.91833775515425
  N   0.68842543119769     -1.71913812504869      0.02408382068559
  H   0.53114602138438     -2.05888962798850     -0.91735669869639
  H   1.53682894636480     -2.14988408311932      0.37210463090877
  N   1.15797881904331      0.21441367072106      1.35930056346781
  H   2.13042076841563      0.04577712893935      1.58452387973195
  H   0.59117766448586     -0.30406427084783      2.02124966444417
