17
Coordinates from ORCA-job run
  C   -0.50304518068495      0.13864735788354     -0.59866982523389
  C   0.50772071305725     -0.78541982951908      0.10337074050160
  Cl  -0.99063461298580     -0.61046132102803     -2.15641887145145
  H   0.03199484475518     -1.76691512109003      0.23401894358048
  C   -1.77192429336374      0.30119315827318      0.22896527181479
  H   -1.53639720983825      0.81482968772165      1.16347975779780
  H   -2.49899177695940      0.90133651506529     -0.32171324433538
  H   -2.22955675594438     -0.66715820727461      0.44870934434923
  N   0.18226488976396      1.38078296010982     -0.89459225910691
  H   0.43610630327509      1.79493978864732     -0.00283486098841
  H   -0.43534518432207      2.01044931699466     -1.39322479504691
  N   0.81235711832881     -0.14109532653064      1.40229343131033
  H   1.75217537475863     -0.39704519802741      1.67788790460456
  H   0.18371749881820     -0.47815025284522      2.12315103461993
  N   1.66228606286147     -0.95264843602951     -0.73108136736083
  H   2.38077733223885     -1.49734007770119     -0.27360521892522
  H   2.01549487624115     -0.04594501464975     -1.00973598612973
