17
Coordinates from ORCA-job run
  C   -0.50248869873837      0.15699451227332     -0.55696397626861
  C   0.45040316096512     -0.82107479326995      0.15171375108662
  Cl  -0.87206043691173     -0.45199097465906     -2.20313033915383
  H   -0.09879229343783     -1.74905203447981      0.34333280278533
  C   -1.82338776264642      0.28718920277384      0.18466453153506
  H   -1.62921513835541      0.64057278345263      1.19791183847861
  H   -2.47246670644377      0.99358852277306     -0.33695452729115
  H   -2.33604542880098     -0.67580332326435      0.23848425053759
  N   0.21704831003091      1.42176768065040     -0.70881026235436
  H   -0.19413333912180      1.96030507398507     -1.46186865937963
  H   0.09862215096768      1.95178840098136      0.14871851873437
  N   0.75318308709854     -0.20981936033102      1.45597031931036
  H   1.54697054146589      0.40988461371763      1.33585005453800
  H   1.02768912106068     -0.92820792709355      2.11493026679872
  N   1.57963618783791     -1.12034096026684     -0.70059882423477
  H   1.97240173420577     -0.24337127914771     -1.02610563905969
  H   2.28363551082381     -1.62443013809500     -0.17614410606263
