17
Coordinates from ORCA-job run
  C   -0.46467873497977      0.05485888241525     -0.54902008438097
  C   0.60667388559383     -0.69414808224470      0.27487020970940
  Cl  -0.81536581092698     -0.94224507800202     -2.01561762489383
  H   0.21199554842701     -1.69395744371176      0.50330563829655
  C   -1.77567740212365      0.19677048409581      0.21086634890654
  H   -1.62247797126474      0.84896961053384      1.07395213522207
  H   -2.53686503534115      0.64892989528996     -0.42875483827432
  H   -2.14906910802721     -0.77380564698457      0.54842487745012
  N   0.12171179934135      1.29733107994831     -0.99004100677825
  H   0.40603791025451      1.80023269360370     -0.15449334890044
  H   -0.55159194661006      1.84911491261090     -1.50795551020774
  N   0.86272586792755      0.11880590266516      1.46613762463843
  H   0.20152177418724     -0.09859536008749      2.20164269479223
  H   1.78939745508806     -0.12974034732285      1.79097253261145
  N   1.87123288998391     -0.85710372646452     -0.40863427110415
  H   2.04407371779552     -0.00934785085716     -0.94110495260432
  H   1.79935516067459     -1.61606992548786     -1.07355042448276
