17
Coordinates from ORCA-job run
  C   -0.49664723699330      0.30281683041968     -0.40298577635611
  C   0.69766323940527     -0.13435687398640      0.45316083987640
  Cl  -0.85065669288538     -1.16666670024706     -1.55422864003531
  H   0.88259352296469      0.71498640974913      1.12001441658924
  C   -1.76841090293231      0.50543521485894      0.38912432976107
  H   -1.59457126405404      1.30014543851140      1.11908017200662
  H   -2.57941140637073      0.81114150356588     -0.27577355893267
  H   -2.05148296027351     -0.40409996170607      0.91153630019553
  N   -0.14203400292042      1.45361283691464     -1.12389445045610
  H   0.75290192345632      1.32885376537621     -1.58018791432274
  H   -0.85905317072384      1.74101371546023     -1.77558005153420
  N   1.87043060288091     -0.24765218515236     -0.41086515801188
  H   2.71239658813970     -0.28243676639023      0.15024840219200
  H   1.81172102735695     -1.10492403311570     -0.94922417989099
  N   0.33785318421367     -1.26604719878401      1.28687652951406
  H   0.18731470397130     -2.08531232997779      0.70907863390058
  H   1.09039284476473     -1.46750966549648      1.93362010550448
