17
Coordinates from ORCA-job run
  C   -0.50879440827615      0.32159737718480     -0.37188854233805
  C   0.71790092204514     -0.15972054330096      0.41157746649340
  Cl  -0.97500008752184     -1.12729173144242     -1.50955770584388
  H   0.96794718391766      0.67801139725145      1.07182098663428
  C   -1.72620811395068      0.55827761426761      0.49292805992378
  H   -2.00906021148198     -0.34596909504031      1.02453331146191
  H   -1.48522702349581      1.34090787856371      1.21678958342777
  H   -2.56314627282633      0.89522572487946     -0.12294527294978
  N   -0.15935622437218      1.46602019092145     -1.10516327078777
  H   -0.90248355900247      1.78067215505697     -1.71358854650368
  H   0.70365281235787      1.31665594417068     -1.61275791934724
  N   1.83501217531651     -0.30353554109226     -0.51916226916965
  H   1.71802825991278     -1.15467224916654     -1.05771898454801
  H   2.70630498124736     -0.36858419272129     -0.00777885735285
  N   0.37014475386523     -1.28565237546390      1.25779207615085
  H   1.15078389037791     -1.51679271263011      1.85960482552002
  H   0.15850092188697     -2.09514984143834      0.68551505922892
