17
Coordinates from ORCA-job run
  C   -0.34623178943871      0.34481729210777     -0.66697327027808
  C   0.88394969897318     -0.30045323270527     -0.00420861531044
  Cl  -0.47451175601025     -0.33164828867657     -2.35058786397347
  H   1.73680854275342     -0.01085957373361     -0.63335809114864
  C   -1.64407077166800      0.01033303980631      0.05031005070969
  H   -2.48502455751478      0.46286083222549     -0.48013664979173
  H   -1.60611006681753      0.43204455787928      1.05830441590268
  H   -1.80304972816326     -1.06518124428517      0.11969418372611
  N   -0.06114630104008      1.74916693358437     -0.79448461149040
  H   -0.88823968281210      2.25162702584974     -1.09416988392531
  H   0.22301335409778      2.07593384883711      0.12343705548824
  N   0.70248561788186     -1.73954329652160      0.13145139759907
  H   0.50835426667999     -2.15222639334169     -0.77385199169148
  H   1.56567734923032     -2.14730230844372      0.47207686142902
  N   1.06760596206251      0.31984022962646      1.30091854871146
  H   0.57309711252959     -0.23653001913502      1.98972095836370
  H   2.04739274925607      0.33612059692612      1.55185750567957
