17
Coordinates from ORCA-job run
  C   -0.57486661385642      0.18188662854168     -0.53638201431625
  C   0.48945762006684     -0.68120909910912      0.16828956338394
  Cl  -0.95938755086498     -0.70112994811526     -2.10587354331915
  H   0.06316608866666     -1.68334181247808      0.31620222767478
  C   -1.86841861619678      0.24641662673981      0.24723087904933
  H   -2.26713728771594     -0.75517897956248      0.41258054684120
  H   -2.60179350128668      0.82664218578890     -0.31468637354306
  H   -1.67961267886364      0.71072386104560      1.21560146332580
  N   -0.10793962607569      1.49061669305696     -0.85624948040826
  H   0.88698730725863      1.47856043536783     -1.04503097985946
  H   -0.33531397518586      2.15044189604382     -0.12610618923102
  N   0.73628598652305     -0.10761865218358      1.47863759998179
  H   1.40439532231100      0.64794920935724      1.37529629469068
  H   1.13884442049278     -0.79936089089168      2.09806228127831
  N   1.71146958928087     -0.67719409990287     -0.63437618766940
  H   2.42313283457205     -1.21793821622471     -0.15721155905156
  H   1.54273068087409     -1.11126583747407     -1.53498452882766
