17
Coordinates from ORCA-job run
  C   -0.29446302686995      0.38974719986297     -0.65735485236772
  C   0.87273173443405     -0.41134807496009     -0.05537195195007
  Cl  -0.28876878676726      0.10722326118130     -2.42902750685350
  H   1.73008640645711     -0.25724584279572     -0.72262804433893
  C   -1.64369931469403     -0.04586302036970     -0.11241507939587
  H   -2.43120116760722      0.58769019684373     -0.52542565544646
  H   -1.85521414952595     -1.08213666797737     -0.37464602858949
  H   -1.63233143538150      0.06175525164941      0.97598450705416
  N   -0.00320717876161      1.80767183151815     -0.45117030969420
  H   -0.51253901502230      2.35816920351147     -1.13240892929805
  H   -0.35157484048548      2.06393259358228      0.46759961205548
  N   0.56942350703887     -1.82293067527233     -0.03771096153400
  H   0.01986219284236     -2.04163798338202      0.78541056855726
  H   1.41805976065594     -2.37224445941310     -0.01168664015081
  N   1.10269670758954      0.11808409519948      1.29502368371547
  H   1.54061857498495      1.02951257811266      1.21432018212510
  H   1.75852003111249     -0.49137948729110      1.77050740611161
