17
Coordinates from ORCA-job run
  C   -0.61675508633520      0.17223760693831     -0.56038659981407
  C   0.50745490312344     -0.70142135305654      0.04450473424719
  Cl  -1.16025343177974     -0.67526657669002     -2.05215904776888
  H   0.16083987190907     -1.74405241269288      0.04680040414949
  C   -1.81378168988974      0.29780682971577      0.36426317490171
  H   -1.55451665586773      0.91100802664730      1.23093484623473
  H   -2.62509424431187      0.79131055275998     -0.16936083906289
  H   -2.15722316190012     -0.68386015840779      0.70044709844857
  N   -0.17530182067315      1.49005246058763     -0.95274851353078
  H   0.56864440298231      1.38746837292544     -1.63534001243937
  H   0.20889174418137      1.94209851700766     -0.12774825872073
  N   0.80674085985250     -0.18138806927137      1.38404568120763
  H   0.04979499604800     -0.38529032402984      2.02697883475097
  H   1.62944937073356     -0.65925397729464      1.73496354951699
  N   1.68417639256056     -0.62169266630018     -0.79360673435964
  H   2.21648557876264     -1.47975408119211     -0.76773646892436
  H   2.27144797060410      0.13899725235327     -0.47385184883657
