17
Coordinates from ORCA-job run
  C   -0.47125121412444      0.36454584993680     -0.66588530838649
  C   0.83977070674033     -0.26341801951225     -0.13591446375677
  Cl  -0.67387447976180     -0.15127122166644     -2.37167121939817
  H   1.62944783297947      0.06076581155526     -0.82126274261435
  C   -1.68599399401104     -0.09178923204124      0.12236350699056
  H   -1.59927818400528      0.23351906431232      1.16373511670616
  H   -2.57111214150168      0.38152802863754     -0.30097540130676
  H   -1.81101808640898     -1.17458246060579      0.07897419694269
  N   -0.42823055030865      1.81625393425441     -0.66857937348848
  H   0.21625428267459      2.12716902463191     -1.38796509993591
  H   -0.03501495329911      2.09090838189830      0.22735769694837
  N   0.79627976158776     -1.71291825099168     -0.18200625553392
  H   0.20781273086103     -2.07521768132028      0.55898486332995
  H   1.72500369806203     -2.09487466219371     -0.05357730263405
  N   1.12579505533799      0.35663473969428      1.16633817293025
  H   2.11301429868096      0.26952657446495      1.37585658454475
  H   0.62239523649681     -0.13577988105438      1.89622702866216
