17
Coordinates from ORCA-job run
  C   -0.49385699877656      0.21476295078374     -0.42785427828260
  C   0.58122845754161     -0.73713971248110      0.13510086774906
  Cl  -0.98603233115536     -0.53300597006822     -2.08237880999611
  H   0.14222568024668     -1.74438291385748      0.16506599768553
  C   -1.76799257328084      0.23080111616641      0.38967150636227
  H   -1.56722573426402      0.67920169994291      1.36408640614778
  H   -2.15767385362297     -0.78030310262652      0.51932240503514
  H   -2.53391309620779      0.82523785847500     -0.11243838878002
  N   0.06039530658309      1.50191792819606     -0.55989795480409
  H   0.94060120024017      1.45189899952804     -1.05999222863481
  H   -0.57318134884849      2.16121560934782     -0.99090372220491
  N   0.99980406119280     -0.39391769371217      1.47971836336377
  H   1.15698741574680      0.60691275866342      1.52656552444295
  H   0.28658714119903     -0.64199069009906      2.15223212408676
  N   1.76496109337910     -0.63971037627252     -0.70622393067336
  H   2.52840233897397     -1.07978311318439     -0.20853194486762
  H   1.61768324105278     -1.12271534880194     -1.58354193662973
