17
Coordinates from ORCA-job run
  C   -0.44355198837446      0.13047362345294     -0.55424596841609
  C   0.56400361259432     -0.74659089912013      0.22265787173332
  Cl  -0.79345481909045     -0.70362899177111     -2.11913922780686
  H   0.11504807280114     -1.74237895924269      0.34276742673305
  C   -1.77021216503492      0.26554331455001      0.17916067112251
  H   -1.61446487637477      0.82383291074926      1.10530948713300
  H   -2.20027220075417     -0.71262455444626      0.41068488553312
  H   -2.48767691732129      0.81437027570627     -0.43482028509571
  N   0.21543473173214      1.37822066713883     -0.85640131444938
  H   -0.41560978100262      2.01169793843255     -1.33247220280445
  H   0.49871192134504      1.78215794965923      0.03165561061359
  N   0.81991605898541     -0.06468450898040      1.49362712602361
  H   0.12424046776179     -0.31653078198998      2.18508600211177
  H   1.72135666550014     -0.39184441381994      1.81989352591612
  N   1.84064748399323     -0.90770526637061     -0.43814437582820
  H   1.75397651384800     -1.59528762333137     -1.17500146392422
  H   2.07190721939147     -0.02302068061659     -0.88061776859519
