17
Coordinates from ORCA-job run
  C   -0.28481266912309      0.39699136320439     -0.52182711696844
  C   0.88947690274741     -0.43505083172835      0.04759487982684
  Cl  -0.42549344104623     -0.08935549362343     -2.30975744815755
  H   1.77226437864986     -0.15572495013359     -0.55403967761350
  C   -1.61892323089875      0.09403836630891      0.12215646330803
  H   -1.55484828617257      0.31470021883975      1.18747886930938
  H   -1.88425891621442     -0.95353250818305     -0.01517648310536
  H   -2.40521959099816      0.69878799294307     -0.33552814204428
  N   0.03871332914898      1.77727861778780     -0.39265830543916
  H   -0.72286722125275      2.36765997473091     -0.70401857521652
  H   0.86378821894234      2.00665921664732     -0.93531025585065
  N   0.77891281281861     -1.87183763799274     -0.02390732003566
  H   0.63234833165665     -2.17922446999344     -0.97621468274423
  H   0.00463145091330     -2.17615667518466      0.55373624908157
  N   0.99762843169176     -0.10333979778233      1.45613313046266
  H   1.11518834282307      0.89535269713884      1.56646013479264
  H   1.80147115631399     -0.58724608297940      1.83687828039425
