17
Coordinates from ORCA-job run
  C   -0.51520662403178      0.18442718583715     -0.43343258841448
  C   0.68790278185551     -0.21786953918715      0.45432713456626
  Cl  -0.91056035870664     -1.25404293703831     -1.47566067562934
  H   0.89563792748688      0.67975281094289      1.05261975253129
  C   -1.74009187286561      0.52450595417302      0.39104426389402
  H   -1.49912136895509      1.35254023834211      1.06655805974832
  H   -2.54870228437791      0.83043202659787     -0.27366197798170
  H   -2.04739565440276     -0.32279694506088      0.99786397820714
  N   -0.24037227085822      1.27260210246883     -1.33864884366815
  H   0.62813676414885      1.12206230569218     -1.83605218508757
  H   -0.18730721631340      2.14299295645645     -0.82201084264656
  N   1.92318258540853     -0.52620185694197     -0.25428467177509
  H   2.34543908088811      0.29885511007951     -0.66085295734589
  H   1.75373590595724     -1.20635998460802     -0.98682780640754
  N   0.29936241554069     -1.27079146317814      1.36868239552397
  H   1.11638540648970     -1.51794882428203      1.91519618613089
  H   0.03797478273590     -2.09315914029349      0.83514077835441
