17
Coordinates from ORCA-job run
  C   -0.45581616233286      0.26819883181503     -0.35097236014547
  C   0.71309355549443     -0.25247878957132      0.50603338340654
  Cl  -0.94889072373512     -1.13865884689018     -1.48745249600709
  H   0.93163622877871      0.57729721389869      1.18797026438225
  C   -1.68042557439429      0.60412947791433      0.47195385457549
  H   -2.49212147038387      0.94662597009821     -0.17458918368036
  H   -2.00965754905803     -0.26328675644060      1.03713916117305
  H   -1.42078993638381      1.40609701361989      1.16775021179888
  N   -0.03035016498101      1.39491027346568     -1.09903086516404
  H   0.69923269900688      1.14743829828237     -1.75452229731533
  H   -0.80034020708564      1.80340693153955     -1.61360690348560
  N   1.94582213837479     -0.52108657011176     -0.22151013196558
  H   1.76926872718763     -1.11341053581079     -1.02506630201432
  H   2.39733838841881      0.33330640147547     -0.52239182692747
  N   0.27549486613839     -1.37541052766406      1.30619731653274
  H   0.04529704475633     -2.15210866996608      0.69593781454607
  H   1.06120814019866     -1.66596971565445      1.87616036029023
