17
Coordinates from ORCA-job run
  C   -0.47063021853111      0.19565355252945     -0.46082276519576
  C   0.58651946273977     -0.72188325877826      0.18633762269748
  Cl  -0.84936593540453     -0.59864901396085     -2.12476439415374
  H   0.16637446906573     -1.73716887302155      0.21308246509749
  C   -1.79201820498734      0.20369491204575      0.27798358368993
  H   -2.16953996239908     -0.81202144482002      0.40728001152838
  H   -1.65935133166726      0.67707776972088      1.25224691179399
  H   -2.53705083749379      0.77132183495665     -0.28303882280621
  N   0.06556959505282      1.49043788550379     -0.58931872534840
  H   -0.55499660785418      2.12715339996597     -1.07028088827205
  H   0.97463658666935      1.44946705376062     -1.03545554284333
  N   0.91627763228505     -0.34199201027102      1.54579170145299
  H   1.05089662128220      0.66258766499477      1.57982398178051
  H   0.16916871441087     -0.59147348652898      2.17983912369439
  N   1.81696221508269     -0.61700371759276     -0.58468451459602
  H   1.73004247553206     -1.11983518987943     -1.45901000997682
  H   2.55650532621675     -1.03436707862501     -0.03400973854284
