17
Coordinates from ORCA-job run
  C   -0.43743126634483      0.26972829816369     -0.40609122958066
  C   0.73829469019819     -0.30235969927279      0.41818122242965
  Cl  -0.87470390206670     -0.96310044948548     -1.70863801057950
  H   1.00305245313350      0.52289620201787      1.09803953719744
  C   -1.68066657708545      0.46682760989506      0.43741005152600
  H   -2.47177554859786      0.93695079199805     -0.15133079370896
  H   -2.05424615369861     -0.49133066560896      0.79479669648228
  H   -1.44389642326788      1.11892890931405      1.28316920267726
  N   -0.03276625400530      1.51004188561599     -0.98078127287032
  H   0.72611297543162      1.36847216141063     -1.63576044214004
  H   -0.80014058307080      1.93886430153872     -1.48347235292095
  N   1.93177566733175     -0.61890691809770     -0.33533851507416
  H   2.42235837310287      0.21400835592243     -0.62860147051755
  H   1.69569366275354     -1.18476586053139     -1.14186162225809
  N   0.33312298833873     -1.51583579006449      1.10358067141127
  H   1.17909685788021     -1.97010036659127      1.42434737543838
  H   -0.23488096003297     -1.30131876622441      1.91335095248794
