17
Coordinates from ORCA-job run
  C   -0.47894484642272      0.28543343373695     -0.35175346076889
  C   0.74561420662150     -0.35909417551984      0.34017205137549
  Cl  -1.33304419939984     -1.02771738741029     -1.34745704760893
  H   1.04217292908398      0.38024522497647      1.09924858409548
  C   -1.50028073365281      0.79144859322597      0.64634581332086
  H   -1.85626181894511     -0.01632997842277      1.28565342632573
  H   -1.04584501948593      1.57354550389830      1.25969437481061
  H   -2.36541505492629      1.21010141025990      0.12809629892436
  N   -0.01544299444550      1.34088336650325     -1.18006607163158
  H   0.56389440278450      0.95264408615683     -1.91608559928462
  H   -0.78737292060428      1.84309235078257     -1.60149028926696
  N   1.78939955642384     -0.57236360113533     -0.65555118583974
  H   2.37654852303730      0.24985228989068     -0.71970711016043
  H   2.36360634836561     -1.33779134322383     -0.32528549539824
  N   0.51766497387135     -1.60877279806683      1.03046968774362
  H   0.00358145968395     -2.24226723605725      0.42957834284543
  H   -0.01687481198955     -1.46490973959477      1.87613768051780
