17
Coordinates from ORCA-job run
  C   -0.41521119771992      0.33518186836789     -0.58985995823731
  C   0.87854674550864     -0.35776456740824     -0.09247647802306
  Cl  -0.65868160069042     -0.24451572101410     -2.29854366779794
  H   1.67023452777172     -0.04512141781154     -0.79567656644621
  C   -1.64327914924222     -0.03659063420375      0.21383220363778
  H   -1.77469994272264     -1.11596521671080      0.23419483239747
  H   -1.53560674707631      0.31766077495565      1.24361758599823
  H   -2.51940445319545      0.44047009183745     -0.22569772977913
  N   -0.30448276442489      1.76914021591737     -0.66610548714163
  H   -0.40417192002150      2.18548501311658      0.25042580629976
  H   0.57344163806040      2.05450921418460     -1.08441305444494
  N   0.69487261493716     -1.79388262027477     -0.01661980800489
  H   1.55608195365078     -2.19993519284762      0.32901710906350
  H   0.50576176037849     -2.17269969641718     -0.93557779386724
  N   1.30668918795888      0.05190821070208      1.23035215755134
  H   0.62236272331189     -0.23924547262128      1.91800539908220
  H   1.44754662351538      1.05136515022763      1.28552544971206
