17
Coordinates from ORCA-job run
  C   -0.28697018818397      0.35905474372096     -0.63451740038970
  C   0.95147141584998     -0.41374954533379     -0.12994838930905
  Cl  -0.42527975701993      0.07898298398163     -2.40235524948556
  H   1.74564287880663     -0.19065384122594     -0.84701435252455
  C   -1.58663834288435     -0.10316298836083      0.00698337940382
  H   -1.79818864226139     -1.14403065237244     -0.23720701915008
  H   -1.52777559476400      0.00903865447288      1.09574400950299
  H   -2.41551767302191      0.51105547759522     -0.34977557185451
  N   -0.01725927621658      1.78626411723878     -0.45839000285251
  H   -0.32597351570691      2.06387956757806      0.46759392639554
  H   -0.56529534995104      2.31550387765791     -1.12629600360785
  N   0.69922986338706     -1.83836969852424     -0.16144746652446
  H   1.58334118970800     -2.31521703187719     -0.02909447615227
  H   0.11343163576760     -2.09910134124404      0.62513822456184
  N   1.43525800735283      0.03986278749505      1.17101844091613
  H   1.69151398798470      1.01870021665832      1.12132060040287
  H   0.72800936115327     -0.08005732746036      1.88824735066735
