17
Coordinates from ORCA-job run
  C   -0.46065641955289      0.15951364398406     -0.43238681301686
  C   0.55526444956185     -0.84226975985456      0.16990696981776
  Cl  -0.98077935954578     -0.55560707441991     -2.07270443410530
  H   0.03409149084885     -1.80246454664710      0.25462662769938
  C   -1.73281121412751      0.26623653897612      0.38346093253228
  H   -1.51185812149207      0.70984342676401      1.35511765590363
  H   -2.17724730963838     -0.72009026694753      0.52498971709278
  H   -2.46473321406347      0.89448013132322     -0.12870310964771
  N   0.15564313014983      1.42821740542139     -0.57802294055212
  H   0.96518868781479      1.37045817040434     -1.18276866682326
  H   -0.48442531722514      2.12004557543188     -0.94654173387508
  N   0.97281261464205     -0.41403527531851      1.49311218965410
  H   0.37722904400441     -0.80011969953683      2.21087896631558
  H   0.94613712519762      0.59750515898182      1.54647279576885
  N   1.74995334095890     -1.03309197061107     -0.63223492267321
  H   2.47990869288115     -0.40097840694755     -0.33793979123553
  H   1.57828237958579     -0.97764305100380     -1.62626344285529
