17
Coordinates from ORCA-job run
  C   -0.49877137595114      0.20877673230675     -0.42366637948198
  C   0.58638452819963     -0.73357899657618      0.13531240469563
  Cl  -1.00659117337578     -0.55679396759944     -2.06644467563145
  H   0.15298640299974     -1.74270622788487      0.17882655881840
  C   -1.76436356102219      0.22664566632354      0.40685704743693
  H   -2.53841947953439      0.81232500879823     -0.09298483424871
  H   -1.55609501036709      0.68504180270637      1.37506244653657
  H   -2.14748775483475     -0.78510041397059      0.55014709018813
  N   0.04766300721916      1.49686963797589     -0.57338719522797
  H   -0.59577192427134      2.14994955296322     -0.99926777789717
  H   0.92129726840382      1.44882005088568     -1.08481312108081
  N   1.01774973565390     -0.37721225085974      1.47254286307861
  H   1.17212023872236      0.62449147085966      1.50831839568777
  H   0.31231453123488     -0.62152021857766      2.15460080743802
  N   1.76094307220457     -0.63694077732340     -0.71940714114746
  H   2.53044999836241     -1.07333506383147     -0.22770059077600
  H   1.60459149635621     -1.12573200619601     -1.59199589838851
