17
Coordinates from ORCA-job run
  C   -0.49849825241726     -0.04907723632630     -0.51555926093663
  C   0.68840419456073     -0.85988983785212      0.07398742384871
  Cl  -1.76983832366307     -1.23961244805644     -0.98735424035188
  H   0.93038957446754     -1.59843998745629     -0.69649705907295
  C   -1.12994762471164      0.92193816912871      0.46942882641164
  H   -1.95640157613516      1.45212859993201     -0.00734024160188
  H   -1.51363914255923      0.41158802548560      1.35306720423916
  H   -0.39052528254605      1.66495883370713      0.78588323403103
  N   -0.03662016236407      0.57419923875290     -1.75213499903816
  H   -0.82637888167142      0.75703211630203     -2.36030396102937
  H   0.38155219351891      1.47049985402561     -1.52623727357072
  N   0.40633907086072     -1.55915626430540      1.31143707276977
  H   -0.50156621633269     -2.00441407797777      1.27497127510253
  H   0.42839678921818     -0.92216879098975      2.09779823444473
  N   1.87268069284251     -0.04546318899425      0.26324519239811
  H   1.68992914623653      0.76195738133451      0.84729851633681
  H   2.22672380069546      0.26291961328981     -0.63168994398091
