15

C	0.0	0.0	0.0
C	-0.57566	-0.175837	-1.395596
Cl	1.760786	0.0	0.0
H	-1.621443	-0.480021	-1.22642
H	-0.376811	0.90428	0.470756
N	-0.400631	-1.129819	0.922689
O	-0.568095	-2.233188	0.420151
O	-0.456466	-0.850523	2.113944
C	0.125178	-1.18424	-2.184257
N	0.669043	-1.943045	-2.897313
C	-0.600086	1.171002	-2.120685
H	-1.273757	1.836258	-1.577255
H	-0.99438	1.04104	-3.129827
H	0.397689	1.612802	-2.188825
Cl	-3.420446	0.0	0.0
