15

C	0.0	0.0	0.0
C	-0.573498	-0.149039	-1.403199
Cl	1.757769	0.0	0.0
H	-1.623666	-0.449516	-1.245755
H	-0.37574	0.899416	0.482923
N	-0.409142	-1.138705	0.902381
O	-0.443537	-0.882078	2.099419
O	-0.611312	-2.2255	0.377161
C	0.13115	-1.144392	-2.204499
N	0.709639	-1.897721	-2.896173
C	-0.590564	1.212646	-2.10045
H	-0.968971	1.103453	-3.118492
H	0.406154	1.659557	-2.145435
H	-1.27519	1.86229	-1.553474
Cl	-3.416787	0.0	0.0
