15

C	0.0	0.0	0.0
C	-0.504928	0.10549	-1.438843
Cl	1.75739	0.0	0.0
H	0.036514	-0.659523	-2.005685
H	-0.375036	0.783545	0.655248
N	-0.446847	-1.308243	0.604205
O	-0.281576	-2.313589	-0.077918
O	-0.904714	-1.255621	1.739527
C	-0.096245	1.411993	-1.961916
N	0.218092	2.456693	-2.396342
C	-2.01244	-0.109328	-1.581575
H	-2.302388	0.071311	-2.618479
H	-2.278853	-1.134971	-1.331541
H	-2.620181	0.531034	-0.942383
Cl	-4.959377	0.0	0.0
