16
Coordinates from ORCA-job run
  C   0.89779929176857      0.43552249635589      0.26292445479070
  C   -0.58171389774093      0.43338994034185     -0.15025341397805
  H   1.04082829120472      1.24001776881533      0.99826062588062
  H   -0.83318670447994      1.40102016359392     -0.59568400933224
  C   1.67855618161248      0.78946733701392     -0.92873222801965
  N   2.30007957746392      1.07437002255743     -1.88284832036646
  N   1.31493554438281     -0.87753363850557      0.74429274337266
  H   0.99029635518269     -0.98068620033452      1.69767045876189
  H   2.32477393405455     -0.94767711989308      0.74084314837178
  N   -1.45095129325550      0.36494202447997      1.08234360787206
  O   -2.65849194606458      0.45766262642631      0.89465118877941
  O   -0.91153731919143      0.22876703222597      2.18121684750415
  C   -0.96348727437192     -0.69981499025758     -1.08506787150625
  H   -2.01531878316011     -0.61927670241161     -1.35655248875699
  H   -0.36001320375111     -0.63835326397451     -1.99244649524409
  H   -0.77156875365424     -1.66081749643372     -0.61061824812953
