16
Coordinates from ORCA-job run
  C   0.87006120823139     -0.15244859619310      0.26068207259807
  C   -0.52908628744598      0.28117967362417     -0.19271763320221
  H   0.74733683306769     -0.97839060139120      0.96585545455922
  H   -0.45639199205955      1.11761780912508     -0.89154770822062
  C   1.54164905902940      0.95427123914564      0.97260583210260
  N   2.11941820986318      1.84347352639129      1.47886457571891
  N   1.61169009728831     -0.63302808629369     -0.89751305893433
  H   2.43390460325283     -1.14075577062578     -0.59503509053350
  H   1.92738296880191      0.15105079890429     -1.45723073356374
  N   -1.26244710940921      0.83058161835650      0.99345788290018
  O   -1.84439224060632      1.90263780678187      0.85310007449488
  O   -1.24948148766145      0.14238756161250      2.01282748452201
  C   -1.33248337443255     -0.86811819944627     -0.77085084821158
  H   -0.80417278949915     -1.27908834652399     -1.62954194806739
  H   -2.31891845585211     -0.51997596693823     -1.08395390059196
  H   -1.45506924256837     -1.65139446652908     -0.02000245557054
