16
Coordinates from ORCA-job run
  C   0.85618423391057      0.44082194835751      0.33524042954613
  C   -0.60202755163360      0.47108664190792     -0.14449110142676
  H   0.96253270719139      1.22964985055150      1.08382620848105
  H   -0.82628739189133      1.47042968415174     -0.52994782514472
  C   1.74161517354292      0.76205906407794     -0.80009625464087
  N   2.45387621154434      0.96769038407243     -1.71176620143558
  N   1.13804780264455     -0.83224798796745      0.97851879148835
  H   1.35401420824317     -1.54775031379495      0.29566555257283
  H   1.93217955813467     -0.74564911667938      1.59940945504539
  N   -1.44363299911584      0.35236881732013      1.10455838562220
  O   -2.26105851569755     -0.55743302184593      1.17613629457206
  O   -1.24325835558985      1.20490309505482      1.96593211832274
  C   -0.94805394939699     -0.60453480792401     -1.14831328517658
  H   -1.99054133539715     -0.52319941697122     -1.45428898742842
  H   -0.31796407810353     -0.49145977949810     -2.03366033949043
  H   -0.80662571838578     -1.59573504081295     -0.71872324090738
