16
Coordinates from ORCA-job run
  C   0.85402907916910     -0.19641600031453      0.28362277934101
  C   -0.51023145532144      0.30724894527174     -0.20287562257993
  H   0.67423204534168     -1.02933701121826      0.96817415742235
  H   -0.37808838451306      1.15254193839549     -0.88204644840092
  C   1.55006821167323      0.86591772425272      1.03857311358915
  N   2.14850215116433      1.71875380931994      1.58209150705908
  N   1.60960243908770     -0.68582279491126     -0.86160244832365
  H   2.40059380334735     -1.23349134610188     -0.54581800205460
  H   1.97399418077365      0.09496886410893     -1.39593094531682
  N   -1.25436040650513      0.86628497278327      0.97173785179843
  O   -1.77092832269191      1.97261387440423      0.84224223949802
  O   -1.31542503159232      0.15226181854690      1.97145939047189
  C   -1.34493755855341     -0.79373071598083     -0.82837703860939
  H   -2.30456961189465     -0.39573116651908     -1.16437231619953
  H   -1.52543794486027     -1.58471363001150     -0.09780863467219
  H   -0.80904319462485     -1.21134928202588     -1.67906958302289
