16
Coordinates from ORCA-job run
  C   0.84166200021012     -0.05458505437708      0.37271328973265
  C   -0.50435325923393      0.20088340062469     -0.31616997657523
  H   0.64411740681667     -0.62340913120586      1.28494088246208
  H   -0.35403300036209      0.77944873206993     -1.23054674551047
  C   1.46392527152854      1.22662852722752      0.76544699957225
  N   2.00428841092323      2.23739835482628      1.02451807989156
  N   1.67489323269086     -0.86042663469374     -0.50933961973919
  H   2.04919850531713     -0.28486822737344     -1.25535215389452
  H   2.46024101705397     -1.23841287751857      0.00609599428936
  N   -1.33069491756621      1.08245061484448      0.56997410487517
  O   -1.87554848446091      2.05458997219816      0.05442213187498
  O   -1.42665085563707      0.73992839056119      1.74752823925437
  C   -1.27281800904471     -1.07980512581101     -0.58048834576816
  H   -0.67866962908106     -1.72926990764378     -1.22115844009992
  H   -2.22192419623445     -0.85578684206076     -1.07164812043157
  H   -1.47363349292011     -1.59476419166801      0.36106368006665
