16

C	-0.484252	-0.010357	-1.424019
C	0.0	0.0	0.0
F	-1.899732	-0.085038	-1.440007
H	1.091259	0.0	0.0
H	-0.224159	0.935704	-1.899859
C	0.085345	-1.185981	-2.173705
H	-0.223301	-1.159452	-3.222058
H	1.176475	-1.144181	-2.101993
H	-0.258684	-2.110172	-1.709442
N	-0.435054	-1.135972	0.745244
H	0.209966	-1.272954	1.513643
H	-1.35897	-0.98271	1.125327
N	-0.372624	1.305722	0.643466
O	-0.792877	1.291922	1.806961
O	-0.148995	2.337216	0.007293
H	2.69658	0.0	0.0
