16

C	-0.474137	-0.01879	-1.427339
C	0.0	0.0	0.0
F	-1.890692	-0.030783	-1.451758
H	1.092688	0.0	0.0
H	-0.167055	0.904853	-1.918731
C	0.042701	-1.234951	-2.151353
H	-0.341269	-2.13273	-1.668832
H	1.134154	-1.239658	-2.08432
H	-0.268215	-1.216251	-3.199305
N	-0.453771	-1.124243	0.751146
H	-1.403264	-0.980799	1.069749
H	0.14271	-1.225578	1.56353
N	-0.386753	1.314442	0.618057
O	-0.131652	2.339798	-0.019818
O	-0.86724	1.311205	1.758358
H	2.704006	0.0	0.0
