16

C	-0.429044	-0.042302	-1.448154
C	0.0	0.0	0.0
F	-1.839947	-0.175476	-1.515972
H	1.091508	0.0	0.0
H	-0.185936	0.905666	-1.928493
C	0.202737	-1.20382	-2.172964
H	-0.052384	-1.175865	-3.23446
H	-0.152438	-2.147333	-1.753688
H	1.286946	-1.145925	-2.04122
N	-0.430204	-1.091579	0.801412
H	0.333451	-1.742817	0.921215
H	-1.261095	-1.543576	0.449805
N	-0.462664	1.313998	0.572115
O	-1.135975	1.339396	1.599683
O	-0.09944	2.32134	-0.041591
H	2.744081	0.0	0.0
