16

C	-0.533939	0.07372	-1.434467
C	0.0	0.0	0.0
F	-0.250341	-1.159877	-2.023285
H	1.090732	0.0	0.0
H	-1.633074	0.152155	-1.420152
C	0.101551	1.134802	-2.308541
H	-0.249447	2.133151	-2.053067
H	1.18471	1.096911	-2.17548
H	-0.151261	0.91867	-3.350317
N	-0.452657	-1.175167	0.6777
H	0.30031	-1.476261	1.285677
H	-1.257509	-0.95883	1.251383
N	-0.387955	1.25053	0.731433
O	0.021459	2.326679	0.287797
O	-1.055005	1.154302	1.771791
H	2.719525	0.0	0.0
