16
Coordinates from ORCA-job run
  C   0.71111328619212      0.29972210519572      0.12226281111930
  C   -0.69064780575577     -0.32436581140841     -0.09002761086457
  Br  0.88684706341757      1.93680841748180     -0.94895415819308
  H   -0.69883876154275     -1.22710113903676      0.53688841461678
  C   1.83192906635636     -0.65860825712287     -0.27078652696043
  H   1.75760526241804     -0.90367095408704     -1.33124911780400
  H   2.80421843879660     -0.20383460118219     -0.07931144069117
  H   1.74846392259039     -1.57614553437464      0.31932914731510
  C   0.83867057503985      0.68171656643485      1.52675416433254
  N   0.93477027862168      0.94225989947097      2.66927668077136
  C   -0.83427431757033     -0.76346583596279     -1.47930569333991
  N   -0.97093181648523     -1.12251999517816     -2.58906594691299
  C   -1.86082533732161      0.56937464330646      0.32584540082172
  H   -2.79618690228517      0.01655770754696      0.22368640522859
  H   -1.75095023123742      0.87416429646758      1.36820809034903
  H   -1.91296272123433      1.45810849244850     -0.30255061978828
