16
Coordinates from ORCA-job run
  C   0.77779119852239      0.42504027157664     -0.12442640228024
  C   -0.64162225315191      0.08646285287740     -0.64009100800788
  Br  1.66938976304773      1.53934902678550     -1.47711345530307
  H   -0.50861150234725     -0.41338465539859     -1.60694401853988
  C   1.62697126173037     -0.82390424134956      0.09759005291913
  H   1.64902958423135     -1.42230995350569     -0.81588796026772
  H   2.64733907209985     -0.53969980263673      0.35523515363776
  H   1.21844840347057     -1.41953762677286      0.91619902825766
  C   0.69005075716073      1.20698042723486      1.10579417914208
  N   0.60490110957863      1.78447196366827      2.12650635733466
  C   -1.41126727522706      1.31113286767250     -0.87269499257032
  N   -2.07089685875206      2.26977336713356     -1.03078338106158
  C   -1.41195638395009     -0.83155243586595      0.31812325624055
  H   -2.42696691891967     -0.97642769185579     -0.05530881049654
  H   -1.47675367986395     -0.38674417191925      1.31349768625944
  H   -0.93584627762964     -1.80965019764431      0.39030431473595
