16
Coordinates from ORCA-job run
  C   0.79868496812974      0.38394635922922     -0.18937193182564
  C   -0.73379048933500      0.35052490108314     -0.44147309715127
  Br  1.71499958728858      0.02209621669475     -1.89425658750691
  H   -0.94581848878112      1.08171401422735     -1.22951275135521
  C   1.26515051158709     -0.62832855595785      0.85078823391866
  H   1.06738392930939     -1.64431753049646      0.50920030953075
  H   2.33681038971127     -0.52200651066460      1.02085329046209
  H   0.73963304255360     -0.45019412971325      1.79323057989491
  C   1.18755656494831      1.73660669457931      0.20511953757924
  N   1.48820630534147      2.81915519300907      0.55192135094390
  C   -1.40591049001984      0.80192660552621      0.78180915940798
  N   -1.94737984426390      1.12433360653825      1.77333184985160
  C   -1.28055985215374     -1.01885629517161     -0.85466713893577
  H   -0.75669779062947     -1.39079021565102     -1.73492609274504
  H   -1.18823868639946     -1.74338928268850     -0.04504766812555
  H   -2.34002965728692     -0.92242107054402     -1.09799904394373
