16
Coordinates from ORCA-job run
  C   0.82013064794951      0.34745621608517     -0.16656685985727
  C   -0.69859859849679      0.35170026474092     -0.49358064426523
  Br  1.80518332833051     -0.12963875642617     -1.80343625047620
  H   -0.84638929861560      1.05073634871777     -1.32432764419483
  C   1.19960747327753     -0.62562073035755      0.94388540632504
  H   0.98279214145868     -1.65053713225712      0.64298101719308
  H   0.63575811377363     -0.38283581588996      1.84897522110033
  H   2.26491408388034     -0.54623301131779      1.16191381641609
  C   1.23597446904864      1.70523572949920      0.17970306939466
  N   1.55565687765651      2.79499946164911      0.48422744467280
  C   -1.41258585389701      0.88297914537052      0.67249614447369
  N   -1.98775733072590      1.26831769148736      1.62171744969564
  C   -1.27251076217866     -1.01721410183665     -0.86990594873251
  H   -2.31544681952316     -0.89779989704897     -1.16827070872536
  H   -1.24322333941280     -1.70545567647204     -0.02469211122670
  H   -0.72150513252543     -1.44708973594381     -1.70611940179322
