16
Coordinates from ORCA-job run
  C   0.67079215565206      0.36278357182056      0.16833736260838
  C   -0.65085691353851     -0.38622369944758     -0.13493297802503
  Br  0.76180319522990      2.01781552759416     -0.88641711235557
  H   -0.61528202038602     -1.29186862896494      0.48675554995115
  C   1.89839223247873     -0.48471486334472     -0.15405408031128
  H   2.81017954854261      0.05597410989190      0.10093837944080
  H   1.86244686014777     -1.41104777572416      0.42711461452093
  H   1.91511829007957     -0.72647431588427     -1.21768781161143
  C   0.67342053331746      0.74374881956966      1.57881033468448
  N   0.67271889205127      0.99955277363802      2.72640685541938
  C   -0.66373562589755     -0.82290293231306     -1.53244733061230
  N   -0.69251092366916     -1.17879374268285     -2.65128041396411
  C   -1.92281275850747      0.39196356348788      0.20783734987194
  H   -1.90706526341587      0.69809787877780      1.25549566318595
  H   -2.01806232639206      1.27656775120479     -0.42133331374343
  H   -2.79454587569272     -0.24447803762318      0.04645693094014
