16
Coordinates from ORCA-job run
  C   0.78908485418384      0.40923299844839     -0.10892275383715
  C   -0.62194970360955      0.08898054945748     -0.65807447812836
  Br  1.73686377440083      1.48870757256217     -1.45163664118934
  H   -0.47216477144958     -0.42803303514349     -1.61335540629698
  C   1.60856886911335     -0.85196020350080      0.15202931894370
  H   1.16861106954120     -1.42806777827134      0.96824826988885
  H   2.62756573024098     -0.58380189231432      0.43129813109684
  H   1.64172444591990     -1.46351555511603     -0.75233956904250
  C   0.68227124851393      1.20955910883159      1.10802705284005
  N   0.57792393781946      1.80168869281461      2.11856036669937
  C   -1.36261367073236      1.32347939480938     -0.92960852493118
  N   -2.00138104763876      2.29005059110608     -1.12181575280987
  C   -1.43490512311316     -0.80010050134116      0.29230611543921
  H   -0.97874703923026     -1.78509821691657      0.39297569864559
  H   -2.44165682050959     -0.93284965792593     -0.10709836394681
  H   -1.51919575345025     -0.33827206750006      1.27840653662859
