16
Coordinates from ORCA-job run
  C   0.66784705261183      0.32676835470660      0.23850928705002
  C   -0.64408159825660     -0.35913753812471     -0.21818247545112
  Br  0.60221986476360      2.24573857567623     -0.17774800104340
  H   -0.51850789683580     -1.41935637752167      0.04290577401484
  C   1.89600908136959     -0.27406291643050     -0.43943163135082
  H   1.94950978220205     -1.34278854506055     -0.21189147118815
  H   1.82913762208236     -0.13794004578852     -1.51956970420261
  H   2.80372783905104      0.20883222082407     -0.07708787672489
  C   0.77595980927348      0.19904630349008      1.68989005866839
  N   0.86580216560630      0.04517634497413      2.85213375470125
  C   -0.76128695317264     -0.28413862814389     -1.67581330251242
  N   -0.87331103178287     -0.23021451201592     -2.84357598401182
  C   -1.91158398539614      0.16441705053543      0.46042860646993
  H   -2.09521136969390      1.20405011978564      0.19026842370168
  H   -2.76819481041156     -0.43316376779881      0.14385157632060
  H   -1.81803557141075      0.08777336089239      1.54531296555851
