16

C	-0.585707	-0.00274	-1.396247
C	0.0	0.0	0.0
Cl	0.155848	-1.201354	-2.468316
H	1.094189	0.0	0.0
H	-1.659405	-0.188868	-1.366673
N	-0.465356	1.34062	-2.071628
O	-1.377657	1.638873	-2.839862
O	0.524417	2.020405	-1.833494
C	-0.46584	-1.24961	0.733149
H	-1.55472	-1.241381	0.860859
H	-0.171739	-2.154683	0.201042
H	0.007707	-1.281726	1.717498
N	-0.561886	1.194728	0.656223
H	-0.641041	1.003889	1.649593
H	0.122764	1.936143	0.563919
Br	3.627034	0.0	0.0
