16

C	-0.411823	-0.000857	-1.462661
C	0.0	0.0	0.0
Cl	0.273271	1.361035	-2.35172
H	1.102056	0.0	0.0
H	-0.085876	-0.917256	-1.950792
N	-1.918376	0.011984	-1.591803
O	-2.513291	1.074863	-1.701647
O	-2.443539	-1.101746	-1.52044
C	-0.462505	-1.257327	0.719655
H	-0.150225	-2.155823	0.183743
H	-1.546617	-1.272388	0.848112
H	0.014492	-1.282544	1.703299
N	-0.563264	1.17812	0.667942
H	-0.250671	1.138938	1.632711
H	-0.119493	2.002952	0.275238
Br	3.58603	0.0	0.0
