16

C	-0.396947	0.033828	-1.472573
C	0.0	0.0	0.0
Cl	-0.137851	1.588365	-2.249454
H	1.096562	0.0	0.0
H	0.154894	-0.720572	-2.030758
N	-1.845264	-0.351352	-1.623968
O	-2.692457	0.388239	-1.132827
O	-2.07476	-1.432522	-2.169223
C	-0.431245	-1.33944	0.603536
H	0.027425	-1.433986	1.589878
H	-1.519972	-1.399732	0.717671
H	-0.09672	-2.187149	-0.001829
N	-0.460993	1.16544	0.726079
H	0.217903	1.389476	1.436867
H	-1.362587	1.002883	1.158042
Br	3.530533	0.0	0.0
