16

C	-0.409116	0.002882	-1.463194
C	0.0	0.0	0.0
Cl	0.24789	1.387289	-2.341022
H	1.102131	0.0	0.0
H	-0.059623	-0.901441	-1.957574
N	-1.914889	-0.0181	-1.599232
O	-2.534355	1.032039	-1.691571
O	-2.413861	-1.145243	-1.55205
C	-0.460951	-1.262668	0.711374
H	-0.149458	-2.157559	0.169178
H	-1.544921	-1.278698	0.840984
H	0.016877	-1.294144	1.694343
N	-0.567788	1.172013	0.674368
H	-0.125942	2.000999	0.288576
H	-0.258406	1.127383	1.640112
Br	3.589947	0.0	0.0
