16

C	-0.598978	0.027983	-1.389043
C	0.0	0.0	0.0
Cl	0.12548	-1.153522	-2.492393
H	1.096744	0.0	0.0
H	-1.672435	-0.150802	-1.353741
N	-0.475431	1.381313	-2.041806
O	0.513761	2.060105	-1.794717
O	-1.393928	1.695102	-2.797289
C	-0.461172	-1.26472	0.709991
H	-1.549117	-1.263749	0.839344
H	-0.162515	-2.160035	0.164457
H	0.014611	-1.307921	1.692051
N	-0.558546	1.180232	0.683691
H	0.119245	1.929562	0.589563
H	-0.623209	0.973552	1.673686
Br	3.614486	0.0	0.0
