16

C	-0.383314	0.053915	-1.479062
C	0.0	0.0	0.0
Cl	-2.149059	0.178552	-1.74478
H	1.098225	0.0	0.0
H	0.071861	0.921132	-1.950922
N	0.105437	-1.117917	-2.290027
O	-0.373771	-2.222155	-2.054801
O	0.959201	-0.865746	-3.136738
C	-0.534711	-1.194143	0.766433
H	-1.628916	-1.214403	0.76648
H	-0.168105	-2.135909	0.361008
H	-0.1876	-1.092428	1.795134
N	-0.380285	1.24253	0.668419
H	-1.321962	1.527998	0.417277
H	0.274639	1.975475	0.414497
Br	3.529025	0.0	0.0
