10
Coordinates from ORCA-job run
  C   0.50202138360011     -0.72673432723436      0.23952691948314
  C   -0.70588776983355      0.08822887113989      0.69475912378653
  F   0.11696029957642     -1.57934089474553     -0.77154161271391
  H   -0.41761743633932      0.73688423152034      1.52695847909229
  H   0.86740318827451     -1.33666420513866      1.07075489838753
  H   -1.47136265408049     -0.60505523564415      1.05319303050717
  C   1.59145534202303      0.13848704873109     -0.23591840158015
  N   2.46527492873655      0.84011947978700     -0.58379730882041
  C   -1.25467416377338      0.89653731790131     -0.39183034134791
  N   -1.69357311818388      1.54753771368306     -1.26310478679427
