10
Coordinates from ORCA-job run
  C   0.52464770975443     -0.44366230973866     -0.18442129672317
  C   -0.53025403215937      0.44067863134685      0.47845903002252
  F   0.79782558187311      0.04577505659634     -1.44242636275534
  H   -0.15594642717661      1.46699039516949      0.51399994288084
  H   0.16192514001976     -1.46906235282703     -0.29509318248489
  H   -0.70243886409304      0.10673058906310      1.50546559718586
  C   1.75720242596213     -0.44741682879975      0.61815360170873
  N   2.72145980148980     -0.44927909454196      1.28665308438228
  C   -1.78446882046462      0.40041958239624     -0.27001674091413
  N   -2.79095251520557      0.34782633133537     -0.86977367330267
