10
Coordinates from ORCA-job run
  C   0.62455830764152     -0.50171705760665      0.47072401133675
  C   -0.85907070261061     -0.15819025438962      0.33373569717814
  F   0.72503132006337     -1.85967675119749      0.69496391641345
  H   -1.37517132986924     -0.52051879472244      1.22655159244113
  H   1.06416274937346      0.01602058650874      1.32714173025274
  H   -1.27012817157535     -0.68107735464637     -0.53314921200755
  C   1.37318161241975     -0.15247653258802     -0.74484761061183
  N   1.96119068282434      0.13491987543145     -1.71888250065261
  C   -1.05549940220605      1.28142376309548      0.19313330089976
  N   -1.18925506606117      2.44229252011491      0.08962907475001
