10
Coordinates from ORCA-job run
  C   0.48371495661138     -0.74253938976367      0.18634419204232
  C   -0.72079013995136      0.05169763402678      0.68476392505790
  F   0.10921543852138     -1.49283231708556     -0.90665034968055
  H   -0.44376451662530      0.61367743047934      1.58136729064183
  H   0.81676580911727     -1.43187207227106      0.96767716550030
  H   -1.50822013811565     -0.65604129791389      0.95705369733538
  C   1.60116935553567      0.13784383664656     -0.18435812396836
  N   2.50439714972789      0.83245264236910     -0.46447329475486
  C   -1.22384122829359      0.97017912057078     -0.33430563877193
  N   -1.61864668652768      1.71743441294163     -1.14741886340203
