10
Coordinates from ORCA-job run
  C   0.55444307184339     -0.63438213987652      0.34980390446241
  C   -0.88287623239484     -0.15319976333001      0.14831767158110
  F   0.58961314177251     -1.98630887263443      0.07490085266744
  H   -1.16761380369832     -0.30491821921031     -0.89570341643325
  H   0.86871600879140     -0.49213222345016      1.38697809485907
  H   -1.53769773228562     -0.76637813511471      0.77280858293053
  C   1.48786654335039      0.06737322734393     -0.54247980247476
  N   2.22617728209082      0.62919299994040     -1.26101565922716
  C   -1.02313217248328      1.25458508075134      0.50771550271219
  N   -1.11449610698644      2.38716804558049      0.79967426892243
