10
Coordinates from ORCA-job run
  C   0.61436213409334     -0.52413691874302      0.45699623100803
  C   -0.85975638038950     -0.13351729243596      0.34593916645815
  F   0.67552452036106     -1.88694557193316      0.66529035827173
  H   -1.29983649740028     -0.63914826080806     -0.51693813105585
  H   1.08224118879248     -0.02995693463292      1.31233877049928
  H   -1.37317023147344     -0.48425765890284      1.24491241855088
  C   1.35529027528451     -0.18520623930034     -0.76616601451491
  N   1.93663980837045      0.09242085993843     -1.74691985532118
  C   -1.01421761941259      1.31226251957358      0.21666254259645
  N   -1.11607719822605      2.47748549724428      0.12688451350744
