18

C	-0.421632	0.048422	-1.468807
C	0.0	0.0	0.0
F	-0.211675	-1.211875	-2.021529
H	1.091496	0.0	0.0
C	-1.848497	0.380702	-1.664007
N	-2.948153	0.725647	-1.889605
C	0.455924	1.03131	-2.226292
H	0.262017	2.056867	-1.909924
H	1.500792	0.784584	-2.023921
H	0.241563	0.944962	-3.293335
N	-0.520988	-1.249345	0.627694
O	0.221406	-1.865007	1.3847
O	-1.694071	-1.544843	0.385193
C	-0.503302	1.173556	0.823976
H	-0.135789	1.064603	1.846381
H	-0.095335	2.105743	0.430352
H	-1.595146	1.223452	0.8298
Cl	3.370189	0.0	0.0
