18

C	-0.413138	0.130227	-1.464114
C	0.0	0.0	0.0
F	-0.122461	-1.065457	-2.110589
H	1.091375	0.0	0.0
C	-1.854265	0.401396	-1.64728
N	-2.966353	0.729559	-1.834933
C	0.412744	1.218131	-2.136572
H	0.144992	2.207851	-1.763431
H	1.468174	1.022209	-1.929906
H	0.223606	1.184046	-3.211105
N	-0.508787	-1.278849	0.578207
O	-1.572943	-1.724545	0.143407
O	0.132609	-1.764007	1.503109
C	-0.499662	1.126776	0.889188
H	-0.133828	0.954068	1.902548
H	-1.5915	1.182503	0.897015
H	-0.08838	2.078297	0.551773
Cl	3.347658	0.0	0.0
