18

C	-0.454304	-0.036404	-1.459652
C	0.0	0.0	0.0
F	-1.857769	-0.022112	-1.510327
H	1.091645	0.0	0.0
C	-0.006893	1.208325	-2.116512
N	0.297301	2.186761	-2.691267
C	0.037544	-1.237064	-2.244279
H	-0.438833	-2.138802	-1.859876
H	1.119519	-1.327066	-2.129807
H	-0.227672	-1.112064	-3.295717
N	-0.466208	-1.267491	0.649186
O	-1.503814	-1.230405	1.313482
O	0.205117	-2.280931	0.46125
C	-0.52631	1.200803	0.758572
H	-1.612556	1.26688	0.714206
H	-0.217104	1.130662	1.802134
H	-0.078205	2.103576	0.33951
Cl	3.290385	0.0	0.0
