17

C	-0.480079	-0.003875	-1.449417
C	0.0	0.0	0.0
Br	-2.454373	0.037171	-1.521857
H	1.090847	0.0	0.0
C	0.093364	1.105099	-2.307272
H	1.182893	1.081845	-2.199777
H	-0.222806	0.937032	-3.338344
H	-0.277927	2.070036	-1.967594
N	-0.021955	-1.333256	-2.084834
O	-0.616865	-1.71314	-3.093567
O	0.985433	-1.834228	-1.596114
C	-0.511972	-1.127845	0.758371
N	-0.863359	-2.064975	1.365848
N	-0.447682	1.289967	0.595516
O	0.281683	2.257172	0.404507
O	-1.295584	1.244979	1.520951
Br	3.176373	0.0	0.0
