17

C	-0.442283	0.035973	-1.471366
C	0.0	0.0	0.0
Br	-2.363934	0.369158	-1.586309
H	1.09115	0.0	0.0
C	0.340656	0.998808	-2.340839
H	0.063707	0.833339	-3.382424
H	1.406588	0.801843	-2.178822
H	0.12913	2.025206	-2.056897
N	-0.190307	-1.354461	-2.079761
O	0.544197	-2.108801	-1.452351
O	-0.67178	-1.563753	-3.18533
C	-0.567994	-1.114352	0.741737
N	-1.036445	-2.010206	1.340492
N	-0.385015	1.287645	0.694202
O	-1.066565	1.21312	1.711688
O	0.05306	2.322095	0.203958
Br	3.321961	0.0	0.0
