17

C	-0.599804	0.014267	-1.411021
C	0.0	0.0	0.0
Br	0.230862	-1.469677	-2.368751
H	1.09183	0.0	0.0
C	-2.106184	-0.116654	-1.484972
H	-2.413889	-1.025384	-0.964671
H	-2.420706	-0.172945	-2.525098
H	-2.570895	0.753537	-1.01891
N	-0.142912	1.270009	-2.154685
O	0.866569	1.825621	-1.751124
O	-0.815857	1.591108	-3.129651
C	-0.460076	-1.180263	0.723025
N	-0.864887	-2.129039	1.287306
N	-0.419319	1.204153	0.815523
O	-1.045571	2.103218	0.255521
O	-0.077294	1.193207	1.989333
Br	3.31839	0.0	0.0
