17

C	-0.54613	0.002502	-1.434105
C	0.0	0.0	0.0
Br	0.030551	-1.704111	-2.275661
H	1.113753	0.0	0.0
C	-2.039239	0.106325	-1.582159
H	-2.332166	0.127027	-2.625658
H	-2.379649	1.011516	-1.081762
H	-2.48879	-0.759882	-1.103834
N	0.217583	0.943826	-2.426985
O	-0.385403	1.213645	-3.459527
O	1.386211	1.155712	-2.196762
C	-0.652181	-1.090727	0.723958
N	-1.662325	-1.495945	1.315077
N	-0.164074	1.221402	0.786141
O	-0.126159	1.103226	2.015342
O	-0.024307	2.283384	0.149887
Br	2.94496	0.0	0.0
