14

C	-0.381385	0.155264	-1.466283
C	0.0	0.0	0.0
F	-0.327906	1.522333	-1.764154
H	1.098516	0.0	0.0
H	-0.317081	-0.999782	0.314232
N	0.502596	-0.533225	-2.349131
H	0.165285	-1.446864	-2.613698
H	1.43539	-0.588644	-1.942865
C	-1.775307	-0.272762	-1.726131
N	-2.853029	-0.689817	-1.924279
N	-0.659032	0.999191	0.834051
H	-0.255077	1.897591	0.597494
H	-0.397736	0.81688	1.796225
Br	3.622356	0.0	0.0
