14

C	-0.346979	-0.039694	-1.477222
C	0.0	0.0	0.0
F	-0.136325	1.269565	-1.991712
H	1.102391	0.0	0.0
H	-0.346035	-0.931699	0.453816
N	0.462995	-1.001818	-2.115257
H	0.376778	-0.950433	-3.121926
H	1.434383	-0.876564	-1.831986
C	-1.779164	-0.30989	-1.739605
N	-2.913217	-0.524461	-1.951553
N	-0.641208	1.137909	0.649719
H	-0.175966	1.974554	0.317187
H	-0.441308	1.078206	1.641269
Br	3.626304	0.0	0.0
