14

C	-0.589292	-0.045383	-1.405298
C	0.0	0.0	0.0
F	-0.051741	-1.159972	-2.041348
H	1.09685	0.0	0.0
H	-0.354761	0.921129	0.473735
N	-2.021977	-0.185073	-1.425236
H	-2.263622	-0.686715	-0.574386
H	-2.469407	0.721106	-1.429451
C	-0.218448	1.151199	-2.188684
N	0.028188	2.133702	-2.780648
N	-0.55308	-1.152515	0.733151
H	0.00311	-1.958522	0.467359
H	-0.370158	-1.005409	1.718438
Br	3.638491	0.0	0.0
