14

C	-0.318826	0.127281	-1.479206
C	0.0	0.0	0.0
F	-1.665413	0.431473	-1.697974
H	1.103655	0.0	0.0
H	-0.393366	-0.938562	0.395407
N	0.463797	1.197526	-2.020583
H	1.427506	1.100226	-1.702776
H	0.44408	1.192661	-3.031631
C	-0.117623	-1.174544	-2.172094
N	0.046523	-2.195699	-2.729583
N	-0.562168	1.142009	0.735883
H	0.043873	1.283664	1.539674
H	-0.42997	1.962018	0.150838
Br	3.577928	0.0	0.0
