14

C	-0.34017	-0.073896	-1.478505
C	0.0	0.0	0.0
F	-0.117634	1.210926	-2.029735
H	1.10278	0.0	0.0
H	-0.396638	0.929928	0.409535
N	0.470856	-1.065067	-2.077997
H	0.363993	-1.080069	-3.083877
H	1.445189	-0.903905	-1.822347
C	-1.769151	-0.357589	-1.747394
N	-2.894519	-0.565729	-2.007016
N	-0.580797	-1.150757	0.69634
H	-0.342334	-1.065603	1.678045
H	-0.092159	-1.974723	0.36125
Br	3.622357	0.0	0.0
