14

C	0.0	0.0	0.0
C	-0.621034	-0.092205	-1.394092
F	1.369188	0.0	0.0
H	-1.765953	-0.04238	-1.038361
C	-0.357343	1.329506	0.591224
N	-0.533151	2.351091	1.144299
N	-0.476562	-1.10674	0.762645
H	-1.503319	-0.987307	0.728395
H	-0.159734	-1.001204	1.720366
C	-0.30857	-1.358464	-2.035865
N	-0.078223	-2.362515	-2.601954
C	-0.262342	1.030661	-2.241996
N	0.002808	1.94303	-2.934317
F	-2.753876	0.0	0.0
