14

C	0.0	0.0	0.0
C	-0.343572	0.008015	-1.512916
F	1.373006	0.0	0.0
H	0.197689	0.873062	-1.918506
C	-0.401711	1.288704	0.62554
N	-0.539989	2.318137	1.173884
N	-0.468873	-1.175139	0.638195
H	-0.182698	-1.144774	1.611932
H	-1.504307	-1.02758	0.572254
C	-1.737798	0.122122	-1.986737
N	-2.53152	0.234469	-2.853169
C	0.27166	-1.181377	-2.123331
N	0.779867	-2.088693	-2.668071
F	-2.575324	0.0	0.0
