14

C	0.0	0.0	0.0
C	-0.565926	-0.006799	-1.446244
F	1.376857	0.0	0.0
H	-1.691702	0.038371	-1.147401
C	-0.397024	1.285094	0.633383
N	-0.585426	2.307109	1.179169
N	-0.485597	-1.074198	0.794272
H	-0.24785	-1.948571	0.333156
H	-1.514339	-0.931782	0.744137
C	-0.245441	-1.267713	-2.098684
N	0.014598	-2.30495	-2.588044
C	-0.135562	1.127199	-2.249136
N	0.212137	2.050025	-2.889643
F	-2.718067	0.0	0.0
