14

C	0.0	0.0	0.0
C	-0.590985	0.057826	-1.413936
F	1.371991	0.0	0.0
H	-1.721964	0.06416	-1.112217
C	-0.35845	1.26383	0.719979
N	-0.564518	2.209041	1.3864
N	-0.495592	-1.174616	0.629665
H	-0.200041	-1.17177	1.600073
H	-1.524717	-1.02804	0.585272
C	-0.231069	-1.129256	-2.177385
N	0.028697	-2.072759	-2.827568
C	-0.203535	1.266719	-2.125542
N	0.087337	2.245123	-2.708001
F	-2.744082	0.0	0.0
