14

C	0.0	0.0	0.0
C	-0.479831	-0.064237	-1.483449
F	1.373216	0.0	0.0
H	0.450758	-0.074721	-2.071315
C	-0.364784	1.30069	0.629433
N	-0.460898	2.306062	1.230292
N	-0.441584	-1.144596	0.717101
H	-1.480401	-1.000473	0.661465
H	-0.132199	-1.048872	1.679471
C	-1.244758	1.102966	-1.92844
N	-1.704557	2.067403	-2.41451
C	-1.195828	-1.298776	-1.814835
N	-1.66596	-2.286705	-2.241613
F	-2.521496	0.0	0.0
