14

C	0.0	0.0	0.0
C	-0.350518	0.02583	-1.511588
F	1.37168	0.0	0.0
H	0.336695	-0.727449	-1.917434
C	-0.40642	1.235607	0.716212
N	-0.546815	2.205837	1.364068
N	-0.463915	-1.219796	0.565767
H	-1.499889	-1.056407	0.529004
H	-0.162364	-1.245991	1.53516
C	0.036849	1.313214	-2.102183
N	0.381165	2.32424	-2.59059
C	-1.696592	-0.361005	-1.974721
N	-2.460844	-0.753014	-2.782689
F	-2.564034	0.0	0.0
