13
Coordinates from ORCA-job run
  C   0.82493036931472     -0.08841104185816      0.40553821234519
  C   -0.53077560797059     -0.24907641272768     -0.29482173052387
  Cl  1.58953436387571     -1.73862636047033      0.50730765460709
  H   -0.34243526082178     -0.72213735735034     -1.26509241254767
  H   0.66543024960108      0.21279104201703      1.44255515117438
  N   1.62062159860569      0.87971016795124     -0.25568620779152
  H   2.46015583743872      1.09172662232309      0.26620625982543
  H   1.88437617873408      0.57194772330102     -1.18377928687442
  C   -1.10974734099792      1.08813346854687     -0.53964393718371
  N   -1.67077446680908      2.10811652816094     -0.69742086335789
  N   -1.41216713456119     -1.11880385151048      0.46338463550134
  H   -1.78991008768818     -0.62156085201728      1.26142599734344
  H   -2.19123869872126     -1.41380967636591     -0.11097347251778
