13
Coordinates from ORCA-job run
  C   0.92361406051473     -0.44791078371305     -0.06875148494045
  C   -0.59279442532730     -0.38278563842340     -0.27033071219122
  Cl  1.68145922444027     -1.04122047275534     -1.57803368478033
  H   -0.92506083920249     -1.36064132019530     -0.64425869957413
  H   1.12787209938031     -1.23601830190167      0.66967108926740
  N   1.41275238861754      0.85431436347070      0.25624987094146
  H   2.37706195909718      0.82155347741798      0.55949305396928
  H   0.83071962589992      1.23350522179116      0.99520219694393
  C   -0.93923287139028      0.61209056331944     -1.29057111967957
  N   -1.29441212689662      1.37891403654903     -2.10434343942789
  N   -1.19898692346419      0.00591326448634      1.00728159081959
  H   -2.13287212413526      0.36882714367466      0.86153075382651
  H   -1.27312004753379     -0.80854155372054      1.60586058482542
