13
Coordinates from ORCA-job run
  C   0.86791593958208     -0.19399343710025      0.28018380773628
  C   -0.55228832641912     -0.31323871756933     -0.28682704037532
  Cl  1.63240331549033     -1.79893235168005      0.25055738886294
  H   -0.45466006433374     -0.79485988688917     -1.26337947743129
  H   0.80440929212823      0.08000278071521      1.34230554406430
  N   1.64264119879387      0.69988800972679     -0.55021572908174
  H   1.33969334201187      1.65685698939131     -0.40332436140354
  H   2.62260455940626      0.63788543496303     -0.30404702830559
  C   -1.08186337506945      1.05103313121385     -0.49663674252996
  N   -1.52073530557794      2.13698382757350     -0.59192127311632
  N   -1.39197346863384     -1.13086539159128      0.56822062612382
  H   -1.68429961801143     -0.60886073673233      1.38548308184497
  H   -2.22384748936711     -1.42189965202127      0.07160120361145
