13
Coordinates from ORCA-job run
  C   0.74336950985164     -0.52956252297904      0.08648229285359
  C   -0.71301144360605     -0.34936180993493     -0.37352554543277
  Cl  1.71638926551682     -1.15091498655244     -1.33250727396514
  H   -1.02379784948072     -1.25655201394476     -0.89864593499892
  H   0.77443742891177     -1.33705847391249      0.81949632074379
  N   1.23239548552601      0.66533291191011      0.66948877277050
  H   1.33463469160519      1.40044445221425     -0.02142871751349
  H   2.11975195207140      0.52406915415834      1.13316164427899
  C   -0.76920587733392      0.76749270655305     -1.32973298939562
  N   -0.76917292431757      1.69262338457337     -2.05175190664163
  N   -1.63749074719202     -0.09570326721089      0.71719975520296
  H   -1.76861577852625     -0.94219741588013      1.25729171121923
  H   -1.24068371302630      0.61338788100555      1.32347187087850
