13
Coordinates from ORCA-job run
  C   0.77773773276005     -0.05973398733758      0.43469379262145
  C   -0.58185317744108     -0.11529046162807     -0.26528793578521
  Cl  1.35363296635155     -1.80710209503447      0.58845743860062
  H   -0.41732167557384     -0.53680875404017     -1.27120764513116
  H   0.63265616535829      0.27037875245241      1.46250080073342
  N   1.67946302078561      0.77942387563712     -0.24804495062784
  H   1.90424358076494      0.43179989018075     -1.17135530477616
  H   2.53289654243282      0.92830183659075      0.27205598098443
  C   -1.08038756384610      1.25498242703097     -0.43737055733868
  N   -1.51788253936451      2.33044823287952     -0.60709458078351
  N   -1.53729008479871     -0.85999542249851      0.54560693128703
  H   -1.28194234767358     -1.83980959222547      0.55025980238444
  H   -2.46495261975543     -0.77559470200726      0.14878622783117
