13
Coordinates from ORCA-job run
  C   0.93925211946269      0.10759292340316     -0.27842495499812
  C   -0.48681981072527     -0.44516711958418     -0.24191269243047
  Cl  0.81589555798462      1.93471258663593     -0.52705451542568
  H   -0.37427825341712     -1.52752152723680     -0.12110200207384
  H   1.46210013243715     -0.23724116842277     -1.17019538580297
  N   1.61317918156778     -0.28670569353456      0.89225960555975
  H   2.55432441226224      0.07811016533102      0.93816609504258
  H   1.08131438712377     -0.01557947662081      1.71014652949225
  C   -1.18560722837182     -0.20650958213345     -1.51770429019246
  N   -1.78531022155625     -0.02837345923837     -2.51155576681838
  N   -1.17543639021505      0.06572309646879      0.93317123485459
  H   -2.01401955094941     -0.47218657493797      1.11068831801879
  H   -1.44359433560332      1.03114582987000      0.78251782477397
