13
Coordinates from ORCA-job run
  C   0.79253090281772     -0.44736120344585      0.11842540724082
  C   -0.67919969318184     -0.44737239155012     -0.32771276651450
  Cl  1.80529571187563     -1.09664910807382     -1.26001375035046
  H   -0.90700194331727     -1.42242647003704     -0.76668648140470
  H   0.90942302474902     -1.18058655777853      0.91777910225297
  N   1.17061406733409      0.83525036760295      0.58567532567460
  H   1.19416658056036      1.51272830404427     -0.16838702142153
  H   2.07273103849829      0.82073292995189      1.04214074352506
  C   -0.85321576400312      0.57009089423342     -1.37622232247910
  N   -0.95602276000939      1.42275294468581     -2.17593785476891
  N   -1.61255818397897     -0.18761278366448      0.75373277663821
  H   -1.28257909355527      0.60953211177570      1.28610675923297
  H   -1.65318388778926     -0.99007903774421      1.37010008237460
