13
Coordinates from ORCA-job run
  C   0.87682117444505     -0.46861488701204      0.12777026299632
  C   -0.60349568024615     -0.52794766157497     -0.24894987966840
  Cl  1.84981926296488     -1.06712716845932     -1.29674533334810
  H   -0.81453306904796     -1.51513768760345     -0.66682344046290
  H   1.04234891999520     -1.19506408564548      0.92196007361055
  N   1.21891382894059      0.83173446596651      0.57710028630675
  H   1.21420441772950      1.50132049302880     -0.18411208029863
  H   2.12488992877525      0.84892975156286      1.02541734673247
  C   -0.88405228180167      0.48148245375018     -1.29278059034291
  N   -1.12737800357979      1.31902519290977     -2.07976305721631
  N   -1.37353836595135     -0.35713833203555      0.97118985744225
  H   -1.15802280233359      0.54914595106104      1.36971016998361
  H   -2.36597732988995     -0.40160848594835      0.77502638426533
