13
Coordinates from ORCA-job run
  C   0.92030091979492     -0.15435147554308     -0.31523841211356
  C   -0.58204420497513     -0.37137400778403     -0.12621895152007
  Cl  1.15136350194915      1.56232881253743     -0.96101275750360
  H   -0.68379678882098     -1.40237316981610      0.22812345176963
  H   1.30097865118764     -0.78312072262208     -1.11974330347065
  N   1.57843703095751     -0.42388056595257      0.89865790842260
  H   2.57457551222385     -0.26408831473093      0.84282456850232
  H   1.16771092919088      0.11974949412175      1.64769575841417
  C   -1.30307727050428     -0.26730178629336     -1.40780441281168
  N   -1.91699071722227     -0.19948929535233     -2.40660855322170
  N   -1.07166275235900      0.51087729946697      0.92167744742231
  H   -1.98816388988984      0.21394815589469      1.23138628343319
  H   -1.14763092153243      1.45707557607365      0.56726097267705
