13
Coordinates from ORCA-job run
  C   0.83792841029093     -0.07640893830683      0.38213831293101
  C   -0.53825189570650     -0.25853339375207     -0.27132649068751
  Cl  1.61236913032128     -1.72197625206858      0.49556329887706
  H   -0.37881548418453     -0.75799309889041     -1.23351601983664
  H   0.70996235508053      0.24571727668893      1.41717080685293
  N   1.60845645776696      0.87976300204016     -0.32410227125047
  H   2.46506466398900      1.10328157475635      0.16403564824555
  H   1.83966055242327      0.55586964899392     -1.25532930057660
  C   -1.12902492406926      1.06979082088027     -0.53620184249987
  N   -1.69817491350768      2.08395248561472     -0.70233805055541
  N   -1.39273327666355     -1.10879706449033      0.53806599659011
  H   -1.75085793368930     -0.58870897203177      1.33053638532403
  H   -2.18558314205115     -1.42595708943436     -0.00469647341424
