13
Coordinates from ORCA-job run
  C   0.72933408451611     -0.11402439236287      0.38755394689742
  C   -0.60677089005978     -0.27183326440785     -0.36508553489776
  Cl  1.30629285080737     -1.74457962317434      0.83979402264869
  H   -0.38960843407333     -0.88355191853464     -1.24662772639870
  H   0.54158066433211      0.39743400749767      1.34196945603712
  N   1.71099154947277      0.49453755124243     -0.47341944292121
  H   1.44946241799380      1.45550953228692     -0.66675795162717
  H   2.61957951477217      0.49624732744445     -0.02654971336844
  C   -1.01017596959144      1.06411909358828     -0.82768297385245
  N   -1.27839998200611      2.15993288034862     -1.15232435837149
  N   -1.70466398830755     -0.87495723447291      0.36316561678858
  H   -1.46367094672982     -1.82430459554935      0.61774795521621
  H   -1.90395087112629     -0.35452936390645      1.20921670384922
