13
Coordinates from ORCA-job run
  C   0.91534856505421     -0.16988708534329     -0.32195450562753
  C   -0.59365117558533     -0.34692494667361     -0.14292867389063
  Cl  1.20280065999508      1.56539783285193     -0.88945444257078
  H   -0.72883176514910     -1.38876638012309      0.16528604453432
  H   1.27698136953353     -0.77448020715522     -1.15334492336840
  N   1.56249935514079     -0.51454118932590      0.87892566902827
  H   2.56351286067073     -0.38646202938084      0.82963409688189
  H   1.16921072426532      0.00892178963340      1.65125533803744
  C   -1.30821857663027     -0.16095805669286     -1.41882631757932
  N   -1.91586911714056     -0.01933581885175     -2.41372827397161
  N   -1.05633038582770      0.50300076426934      0.94345193101451
  H   -1.98042176810394      0.21863928633572      1.24223357431713
  H   -1.10603074622273      1.46539604045617      0.63045048319470
