13
Coordinates from ORCA-job run
  C   0.82959644034052      0.12613388756533     -0.19403431033213
  C   -0.62994085246206     -0.36477147340468     -0.28848652160084
  Cl  0.88205255102724      1.90061175777318     -0.33024118624391
  H   -0.58334523160517     -1.45541449343936     -0.15991501730545
  H   1.40328977544440     -0.25194852013827     -1.04888275918870
  N   1.34030801358514     -0.25721970359884      1.10716133564413
  H   2.20271120131066      0.23511418555702      1.30543903090602
  H   1.54404173846050     -1.25145080946942      1.10347834969451
  C   -1.15143667616545     -0.12143206451224     -1.63767442219306
  N   -1.53747927990039      0.06713885204722     -2.72944867818740
  N   -1.53571106710466      0.16034229480546      0.71212559892030
  H   -1.08064668246555      0.06334888003875      1.61385486394428
  H   -1.68243993046517      1.14954720677584      0.54862371594224
