13
Coordinates from ORCA-job run
  C   0.94050968681834     -0.52838441157559      0.03518015755344
  C   -0.57113543117477     -0.40407165192981     -0.25747368484061
  Cl  1.73855876209297     -1.17800313623386     -1.41971043693165
  H   -0.92841016248041     -1.34941534491330     -0.68834997354570
  H   1.05558136270738     -1.28141833290979      0.82008425993420
  N   1.59181734818297      0.67777217813112      0.45135679818449
  H   1.07989017138115      1.05129012126891      1.24371808819890
  H   1.57458307695554      1.36149933015960     -0.29777137131008
  C   -0.79378282276876      0.65217288154388     -1.24697858549346
  N   -0.96704952011788      1.51140148395906     -2.02743934737948
  N   -1.22226634554285     -0.03398395591689      1.00141670835414
  H   -1.37331632811497     -0.86779101579774      1.55732625662649
  H   -2.12597979793869      0.38893185421442      0.82964113064930
