13
Coordinates from ORCA-job run
  C   0.78944297651197     -0.16439353555317      0.41029113326874
  C   -0.57002637956575     -0.20839697003368     -0.33415727895466
  Cl  1.37342455189381     -1.85898678143955      0.52261308671001
  H   -0.37524238894932     -0.62913143157294     -1.32830367849648
  H   0.61850346070547      0.17238369258174      1.43625166310899
  N   1.80609170840227      0.64772323357241     -0.18194227995940
  H   1.91487222700708      0.45164897746147     -1.16937797308027
  H   1.60674561353631      1.63088720758369     -0.04828064257340
  C   -1.00516539414554      1.18497419951523     -0.51268217843916
  N   -1.30311038200692      2.31645275477290     -0.60842564284978
  N   -1.64403263790961     -0.97072064135730      0.27140447101526
  H   -1.84167989534895     -0.62701283802895      1.20403145231962
  H   -1.37282346013080     -1.94342786750186      0.33957786793052
