13
Coordinates from ORCA-job run
  C   0.97160048767165     -0.10230291994881     -0.30144419292909
  C   -0.55026201015538     -0.27661105583209     -0.15080530204144
  Cl  1.25487055712005      1.54355884545008     -1.01574378012855
  H   -0.69315251076434     -1.29903452750928      0.21743790589282
  H   1.34967357549432     -0.80220776051321     -1.04753100817846
  N   1.66668028254739     -0.25321752194206      0.92473125297579
  H   2.04022677645115     -1.18160012267810      1.04841535443717
  H   1.08940296412807      0.03415007893948      1.70404240829864
  C   -1.24512962676116     -0.17595561953886     -1.44710081179800
  N   -1.83525905675811     -0.10403918986601     -2.46015836634261
  N   -1.03796730331095      0.63000518597583      0.87545546423144
  H   -1.99276689210135      0.40356006051472      1.12326865342411
  H   -1.01791724356134      1.58269454694833      0.53043242215819
