13
Coordinates from ORCA-job run
  C   0.97974687772285      0.16365276028454     -0.24446654606291
  C   -0.48269836814758     -0.31497473277369     -0.26363518792790
  Cl  0.95755526430435      1.96850247372826     -0.44588867638353
  H   -0.43338906581069     -1.40848659215849     -0.20836568942256
  H   1.50069502073058     -0.21183994651746     -1.12597559462619
  N   1.66456690106507     -0.20946181029728      0.93960334909246
  H   2.20743245748655     -1.05147012069748      0.82569259580175
  H   1.02591706212768     -0.26896539644116      1.72171267120947
  C   -1.15850379203320      0.03222128092702     -1.52731515824512
  N   -1.73404299719356      0.29419893626141     -2.51725240382452
  N   -1.15759907985890      0.15381222783835      0.93551369131338
  H   -1.31335382376873      1.15331230082107      0.87384296923360
  H   -2.05632645662439     -0.30050138097512      1.03653397984205
