13
Coordinates from ORCA-job run
  C   0.85220586347008     -0.22988354090089      0.39401758942463
  C   -0.55132136960172     -0.14811736839385     -0.23757499371020
  Cl  1.35628253671935     -1.95432340850380      0.30356246479086
  H   -0.45841431831120     -0.49664148506838     -1.27979555831036
  H   0.75618733623551      0.01052394588702      1.45404083124920
  N   1.86083884094752      0.58717065616560     -0.19999181781238
  H   1.87935520974762      0.49840801308744     -1.20796097274426
  H   1.74092562586750      1.55733253847240      0.06031109170395
  C   -0.93613937032238      1.26836198668559     -0.27704785375076
  N   -1.22552012815617      2.40580684323669     -0.29698659137950
  N   -1.51971081303960     -0.88145588495068      0.56508105355343
  H   -1.30201859523229     -1.86971932405817      0.52446028821442
  H   -2.45367081832421     -0.74846297165897      0.19688446877095
