13
Coordinates from ORCA-job run
  C   0.98974800345229      0.07133395359403     -0.24232031405975
  C   -0.50791969224507     -0.28165337211168     -0.25563293262893
  Cl  1.12022669488659      1.86462511567040     -0.51229875204485
  H   -0.55291280698589     -1.37281342656037     -0.16258724853277
  H   1.48086359842275     -0.37839781869552     -1.10595790959282
  N   1.63250245814346     -0.31419819342232      0.95961159037927
  H   2.12518883250177     -1.18976102143510      0.87799452820957
  H   0.98623208783204     -0.30472736142013      1.73732145271381
  C   -1.14523032592096      0.07655443367399     -1.53599081121755
  N   -1.69007007638379      0.34407751012290     -2.54162316794646
  N   -1.14476118115680      0.28373391245058      0.92242515647831
  H   -2.07964076142919     -0.08810809744702      1.03214345165736
  H   -1.21322683111722      1.29033436558025      0.82691495658482
