13
Coordinates from ORCA-job run
  C   0.73261957559267     -0.11266104977576      0.38174396623493
  C   -0.61509450556178     -0.27381837927047     -0.34896690914152
  Cl  1.28889190299209     -1.73604947220426      0.88290241657301
  H   -0.41894729041115     -0.91914480525246     -1.21121142625637
  H   0.56530859448551      0.43429024225730      1.32014872747924
  N   1.71310989028408      0.44994219642374     -0.51136470125368
  H   1.46445034518644      1.40795107934103     -0.73423817156099
  H   2.62698782729488      0.45224717610841     -0.07537965786672
  C   -1.00267545947119      1.05249256068098     -0.85168065534723
  N   -1.26304365058774      2.14233109466988     -1.20180636811303
  N   -1.71359325605280     -0.83303110154785      0.41255909244794
  H   -1.88956386549115     -0.28435168907685      1.24585626835377
  H   -1.48745010825987     -1.77919785235368      0.69143741845067
