13
Coordinates from ORCA-job run
  C   0.86840837038203     -0.22411054234945      0.35904006609246
  C   -0.56482014028696     -0.15090719037430     -0.20328110091250
  Cl  1.34916804622306     -1.95700694624907      0.31609359153033
  H   -0.52921252389078     -0.54383589293750     -1.23313188637494
  H   0.82971514773863      0.06157322474080      1.41143626908197
  N   1.85383804986771      0.55474653132468     -0.31955167409470
  H   1.75716803241581      1.53623673809756     -0.09425385991467
  H   1.81854353266541      0.42461433121066     -1.32260544187863
  C   -0.93537335849309      1.26783920255853     -0.28197362147971
  N   -1.20949796536709      2.40822126496937     -0.33007711540182
  N   -1.49845773996134     -0.83776994313711      0.67773018739553
  H   -2.44827726552244     -0.71151288277395      0.34993330511342
  H   -1.29120218577099     -1.82908789508023      0.67064128084326
