13
Coordinates from ORCA-job run
  C   0.86884908720107      0.06666102431133     -0.26424318606902
  C   -0.60784844676312     -0.34415056440488     -0.19673971689068
  Cl  1.05217036967030      1.64230172351143     -1.06012854395658
  H   -0.60299999308232     -1.34153961076892      0.28046046647415
  H   1.40276272730065     -0.65165389840147     -0.89661712789416
  N   1.36725302843519      0.16107395806194      1.09736199764716
  H   1.56968710914109     -0.77076347052594      1.44401424633528
  H   2.22742324146841      0.69439478283160      1.11705873750375
  C   -1.14855521717244     -0.53688133506856     -1.54827063237712
  N   -1.58423976312751     -0.73339109956678     -2.61986699107509
  N   -1.37280968668846      0.65381414907506      0.52213354861557
  H   -2.29559723175790      0.30189883698838      0.74153214146173
  H   -0.87709522462495      0.85923550395680      1.38230506022504
