13
Coordinates from ORCA-job run
  C   0.89088712460372     -0.43799078903095      0.14522350067736
  C   -0.57447559534347     -0.54736992713627     -0.27600969544561
  Cl  1.92655074057218     -0.97395894919226     -1.26009152578110
  H   -0.73518173667292     -1.53459517735388     -0.71554355828479
  H   1.06182808205144     -1.17106385265225      0.93212334634613
  N   1.16932442134785      0.86651354114789      0.62548469980500
  H   2.06098167017253      0.91015144860288      1.09999687800366
  H   1.16057426952102      1.54862523723900     -0.12450606392520
  C   -0.86339601202131      0.46950349056976     -1.31052015148363
  N   -1.12128840041221      1.32329899916014     -2.07514945308018
  N   -1.38598470376834     -0.42647339016036      0.92290052683820
  H   -1.22132800050386      0.48236911694695      1.33944903570944
  H   -2.36949185954660     -0.51000974814063      0.69664246062072
