13
Coordinates from ORCA-job run
  C   0.87092400512910     -0.32784187690348     -0.23459378574154
  C   -0.67469590176418     -0.21144732058473     -0.16774463024624
  Cl  1.49164211480733      1.04246553089697     -1.20591172017699
  H   -1.00846962880717     -1.07178460420412      0.42681350730610
  H   1.13452568038670     -1.23779601488036     -0.77884767592653
  N   1.53962159664998     -0.34266041152324      1.03311375344696
  H   1.36520431261613     -1.20828756352343      1.52754261266606
  H   1.27332678885560      0.44810111519881      1.60513698990208
  C   -1.24537571084785     -0.37420119194274     -1.51196980349785
  N   -1.67379463035713     -0.51140775927488     -2.59583800594745
  N   -1.21729862066636      0.97975139082382      0.45240950074505
  H   -0.85101597311671      1.81300145425791      0.00906418245310
  H   -1.00559403288545      1.00210725165948      1.44082507501726
