13
Coordinates from ORCA-job run
  C   0.94772656534865     -0.51469822762197      0.06547504733276
  C   -0.55572086282624     -0.41452092870394     -0.27506158851753
  Cl  1.80098955155613     -1.15516349085633     -1.36190182600051
  H   -0.88462896822234     -1.36659073731881     -0.71354109087207
  H   1.04936494135264     -1.26398306351826      0.85578115775507
  N   1.56702088625602      0.70218243435594      0.49862783737359
  H   1.56270967148477      1.38416457823893     -0.25223651319917
  H   1.02541682708506      1.06914236088558      1.27411557243915
  C   -0.76343747719708      0.63583789152171     -1.27403190473904
  N   -0.93007298445974      1.49757694723253     -2.05316650837767
  N   -1.25194698542738     -0.05112288742014      0.96151408494867
  H   -1.41266712747120     -0.88633498888916      1.51249069901973
  H   -2.15375403747928      0.36251011209392      0.75993503283699
