13
Coordinates from ORCA-job run
  C   0.93011086214212      0.08611341942738     -0.22083662779410
  C   -0.57229962829570     -0.27783907904422     -0.34984739833029
  Cl  1.08424520175252      1.86643123398844     -0.32897920392895
  H   -0.61586045647238     -1.37290728175567     -0.28715228919029
  H   1.46893914756297     -0.32417824426846     -1.07819287216919
  N   1.56893383460592     -0.36553923679697      0.98047955430459
  H   1.06890282419070     -0.06173839990552      1.80581816829180
  H   1.67102321475595     -1.37249328960575      0.98281417273901
  C   -1.06249125547373      0.09184140427143     -1.68489933518242
  N   -1.42132494851652      0.37773634396843     -2.76504693154849
  N   -1.46514944585040      0.24969845573659      0.66143942141509
  H   -1.26746626846278     -0.15561958226580      1.56642082229936
  H   -1.38656308193866      1.25749425625011      0.71798251909388
