13
Coordinates from ORCA-job run
  C   0.86794918096014     -0.22910289766320      0.35716224138548
  C   -0.56485975784451     -0.14788643311685     -0.20533921049316
  Cl  1.35725872490911     -1.95774918253129      0.26794242503285
  H   -0.52649950846836     -0.51295454799650     -1.24530429014451
  H   0.82599799659025      0.02787065367777      1.41682740100709
  N   1.85109192120480      0.57228030687557     -0.29814922371843
  H   1.74703272714463      1.54740265504760     -0.04962858660144
  H   1.82035077516237      0.46637396105511     -1.30420407329750
  C   -0.94241426121151      1.27018910604206     -0.24960038685398
  N   -1.21209366670142      2.41171593250212     -0.29586806504695
  N   -1.49585500061360     -0.86338786908161      0.65595717888875
  H   -1.28411659611433     -1.85317222054402      0.62091711250764
  H   -2.44584253501755     -0.73257946426675      0.33028747733413
