13
Coordinates from ORCA-job run
  C   0.80347369725467     -0.16466945355765      0.38250904241665
  C   -0.58344721661967     -0.20893709734968     -0.30958126982111
  Cl  1.38394796360457     -1.86124121435613      0.48759912830903
  H   -0.42806984916044     -0.63728561057634     -1.30745255165118
  H   0.67297379410904      0.18154522084348      1.41124905724885
  N   1.80028382510349      0.63759626624228     -0.25479518691617
  H   1.61244841901125      1.62273890993650     -0.11915626658722
  H   1.86827251872565      0.43556399887123     -1.24468161899125
  C   -1.01889971791340      1.18498959532848     -0.48377907057053
  N   -1.30857802391364      2.31771306686899     -0.58949294331437
  N   -1.63649453444382     -0.96237738879645      0.34186558626889
  H   -1.36568163423090     -1.93531846577582      0.40841651149387
  H   -1.79822924152681     -0.61031782767887      1.27829958211453
