13
Coordinates from ORCA-job run
  C   0.78795777062801     -0.44791156520762      0.13935315196508
  C   -0.66547051914584     -0.44145034495891     -0.36297702750734
  Cl  1.85481912585014     -1.06600722174598     -1.21275710681090
  H   -0.87329990692833     -1.40712056431469     -0.83158259615769
  H   0.87638073168580     -1.19782561070302      0.92678345132366
  N   1.14450819796330      0.82493061095218      0.64786791882892
  H   2.02809890224259      0.80235366828205      1.13881015258401
  H   1.19439255647239      1.51901905125455     -0.08953719084860
  C   -0.80186008857424      0.59838922266880     -1.39500076521956
  N   -0.87161292394032      1.46763962784079     -2.18030180375650
  N   -1.64053010561565     -0.20748633384016      0.68722062437654
  H   -1.33378535590688      0.57872317573481      1.24895466529190
  H   -1.70159838473100     -1.02325371596282      1.28416652593052
