13
Coordinates from ORCA-job run
  C   0.97988234265428     -0.49330886316128      0.05037212845129
  C   -0.52434027325807     -0.52392941872149     -0.27434827510073
  Cl  1.86541792395020     -1.01214804886870     -1.41931576532640
  H   -0.77533583488536     -1.52413181883382     -0.63733051328497
  H   1.14818189288705     -1.25356272980275      0.81373370752532
  N   1.49538057964901      0.75156679273179      0.51913969210324
  H   1.25469900107075      1.52865274860484     -0.08292355765144
  H   1.22918121899488      0.92693578525100      1.47761745306554
  C   -0.83457734839733      0.45171508640538     -1.33587127438635
  N   -1.09710642782896      1.29487870358305     -2.11073199792338
  N   -1.25565278512260     -0.27982471347354      0.96394467049542
  H   -2.21801921525438     -0.57906892239049      0.86632746504224
  H   -1.26771107445950      0.71222539867603      1.16838626699022
