13
Coordinates from ORCA-job run
  C   0.88955402588913     -0.44529405891514      0.12665973553388
  C   -0.58034208911524     -0.53704063865471     -0.28267092783264
  Cl  1.90913078397147     -0.95387017788619     -1.30018697480233
  H   -0.75059356205745     -1.51280857025982     -0.74369423671828
  H   1.06356782692222     -1.19721084818840      0.89490883663190
  N   1.17991884536822      0.84624367985400      0.63437222801301
  H   2.07547008986905      0.87354639183775      1.10267530950078
  H   1.16918989573766      1.54547639502736     -0.09961610978275
  C   -0.87363122861390      0.50499677750253     -1.29054968099901
  N   -1.13190684248541      1.37330283104068     -2.03849961954896
  N   -1.37931982714283     -0.44007052522797      0.92682890562166
  H   -2.36554264196851     -0.51172677635885      0.70845184393320
  H   -1.20449527637442      0.45745552022874      1.36332069044954
