13
Coordinates from ORCA-job run
  C   0.87731276322484     -0.49247342982335      0.06739618895164
  C   -0.60972469400263     -0.46930548066475     -0.36409615157588
  Cl  1.83415166933919     -1.11230707040522     -1.31881843739973
  H   -0.85898237479545     -1.44408504297509     -0.79444460118057
  H   0.97514735469238     -1.23350450800601      0.86514988189850
  N   1.42965178930079      0.74241039581973      0.52180880057792
  H   1.13180579454780      0.97797407102129      1.45718190325624
  H   1.26017992847841      1.50434668138248     -0.12264631365782
  C   -0.78506723724613      0.55004382411856     -1.40603936175373
  N   -0.87622572731369      1.41295220967016     -2.19615918304331
  N   -1.54189844282830     -0.19857343071629      0.71808966347267
  H   -1.49671297066859     -0.92979117570861      1.41701700217664
  H   -1.34063785272864      0.69231295628711      1.15456060827744
