13
Coordinates from ORCA-job run
  C   0.92570646156434      0.00581430572205     -0.25288454819790
  C   -0.59866626054375     -0.27743030492714     -0.30386456851047
  Cl  1.17861876504831      1.75289261623735     -0.55081903142687
  H   -0.70389331233725     -1.35574685927222     -0.12691737533867
  H   1.41205210962425     -0.52279235158558     -1.07615173598359
  N   1.57597020486675     -0.35749421994611      0.97204972127466
  H   1.61926329528284     -1.36320958048883      1.07744132158790
  H   1.12138936285194      0.05983163445254      1.77376330269317
  C   -1.10888849282881     -0.01794502350787     -1.65713007738343
  N   -1.48484102345357      0.18306700053709     -2.75051539357195
  N   -1.42635057235923      0.40428552417175      0.66982815604024
  H   -1.22253169717321      0.08282136623267      1.60656683574362
  H   -1.28782884054259      1.40590589237431      0.61863339307329
