17

C	0.0	0.0	0.0
C	-0.539739	-0.454887	-1.370845
Cl	1.78815	0.0	0.0
H	-1.638794	-0.423727	-1.274418
N	-0.46946	1.345154	0.204761
H	-0.214544	1.632334	1.143361
H	-1.492278	1.307217	0.156326
C	-0.439354	-1.011169	1.055449
H	-1.531073	-1.043364	1.063467
H	-0.078977	-0.668851	2.029405
H	-0.025138	-2.00359	0.866033
C	-0.082181	-1.784338	-1.746983
N	0.244477	-2.869561	-2.053818
N	-0.167534	0.519268	-2.456169
O	-0.97544	1.409429	-2.690729
O	0.916652	0.359243	-3.015359
Cl	-3.604026	0.0	0.0
