17

C	0.0	0.0	0.0
C	-0.244798	-0.066704	-1.552055
Cl	1.804726	0.0	0.0
H	0.513565	-0.739754	-1.952444
N	-0.518944	1.228193	0.511745
H	-0.331971	1.272372	1.507936
H	-1.540807	1.16637	0.39728
C	-0.439997	-1.261684	0.726111
H	-0.026188	-2.162608	0.27232
H	-1.530343	-1.299277	0.708911
H	-0.09258	-1.191244	1.761133
C	-0.066043	1.243612	-2.169698
N	0.120091	2.26056	-2.725283
N	-1.510669	-0.725806	-2.095261
O	-2.223242	-0.079599	-2.844687
O	-1.603566	-1.919206	-1.838867
Cl	-3.603956	0.0	0.0
