17

C	0.0	0.0	0.0
C	-0.245554	-0.080036	-1.557815
Cl	1.792627	0.0	0.0
H	0.206485	0.82838	-1.965278
N	-0.533417	1.200663	0.54974
H	-0.332133	1.999397	-0.042561
H	-1.552131	1.072729	0.599407
C	-0.491894	-1.191796	0.790868
H	-0.22424	-1.024414	1.835797
H	-1.579053	-1.239983	0.698765
H	-0.040595	-2.115418	0.437366
C	-1.574586	-0.208907	-2.165275
N	-2.371782	-0.310429	-3.02633
N	0.551324	-1.188951	-2.230475
O	0.29533	-2.344218	-1.910972
O	1.375627	-0.842	-3.071696
Cl	-3.618512	0.0	0.0
