17

C	0.0	0.0	0.0
C	-0.25414	0.120466	-1.541169
Cl	1.792478	0.0	0.0
H	0.23836	1.054154	-1.816272
N	-0.515488	1.223421	0.557981
H	-1.53965	1.141341	0.481924
H	-0.298981	1.230208	1.550306
C	-0.468745	-1.27672	0.673751
H	-0.018144	-2.163786	0.233659
H	-1.557478	-1.317045	0.590706
H	-0.191265	-1.219225	1.730939
C	-1.578829	0.139564	-2.172242
N	-2.339624	0.211282	-3.067784
N	0.491523	-0.94292	-2.326743
O	1.32803	-0.543337	-3.130938
O	0.182774	-2.113186	-2.134128
Cl	-3.571564	0.0	0.0
