12
Coordinates from ORCA-job run
  C   0.72548578482475     -0.80057301840678      0.20301700678339
  C   -0.47014908080131     -0.30607635259873     -0.17573793543156
  H   0.97557664128610     -1.85400894617433      0.18923245157778
  N   1.84613268924822      0.03299552156104      0.60734541365389
  O   2.95336904209731     -0.49845826823046      0.52150736942387
  O   1.62459644363918      1.17636044787823      1.00473775097512
  C   -1.44491978620769     -1.29347221609700     -0.54390749951002
  N   -2.26510628132290     -2.08126894759046     -0.84794432234255
  C   -0.90257062066425      1.13432705573383     -0.23684336658631
  H   -1.76836622986179      1.23225670106330     -0.89129376592291
  H   -0.09759618464813      1.77517513788327     -0.59226306204237
  H   -1.17545241758947      1.48274288497809      0.76214995942167
