12
Coordinates from ORCA-job run
  C   0.96246490672267      0.15683213215225      0.11831680485947
  C   -0.36397071730791      0.02994835778754     -0.05537764025260
  H   1.51665874732869      1.04212269497524     -0.16613497403447
  N   1.82813677300660     -0.89184299898212      0.64362679900099
  O   1.32441037558047     -1.82839521686461      1.25622173787790
  O   3.02866328908589     -0.73139042602035      0.41880881700386
  C   -1.09606780798603     -1.15710108289932      0.27606733908265
  N   -1.81990622856841     -2.06184921823815      0.48261703343994
  C   -1.18249228448400      1.15203163300746     -0.63494189466156
  H   -1.68024852468227      0.81956703420091     -1.54901179368174
  H   -0.55877450165980      2.01650709902576     -0.86514365255962
  H   -1.95887402703591      1.45156999185540      0.07295142392518
