12
Coordinates from ORCA-job run
  C   0.73162913124442     -0.78650158720719      0.23505593740597
  C   -0.46312139775914     -0.31621114922057     -0.17606348459493
  H   0.99410673226570     -1.83698151789899      0.25114989841132
  N   1.83555363536402      0.07051696208194      0.63702426994498
  O   2.95002248578091     -0.45006332937688      0.58487757723714
  O   1.59389830982293      1.22114568517940      1.00027696230492
  C   -1.42121014051150     -1.32386258825892     -0.53290220131262
  N   -2.22959847671676     -2.12642944529054     -0.82979109124490
  C   -0.91102427309074      1.11683975584336     -0.28133621600347
  H   -0.10758700837686      1.75848606117043     -0.63821567067258
  H   -1.76649995651565      1.18755453594342     -0.95265159360159
  H   -1.20616904150735      1.48650661703453      0.70357561212576
