12
Coordinates from ORCA-job run
  C   0.97023688525217      0.12608900281524      0.07779548762084
  C   -0.36455996648886      0.03383488988389     -0.04803470410212
  H   1.53751400878332      0.98982222174250     -0.24465682573611
  N   1.82703331901253     -0.92789431713432      0.60709982121040
  O   1.31169386680340     -1.89284500625730      1.16279672836063
  O   3.03417536682208     -0.74309857793081      0.44334296827710
  C   -1.12523544037623     -1.11617424405350      0.34383078160127
  N   -1.88162635924589     -1.97953095230786      0.60379724474131
  C   -1.16770765382709      1.16713299501689     -0.62778215414945
  H   -0.52585369303412      2.00365016231600     -0.90628192685399
  H   -1.90611176413623      1.51170443286881      0.10006234799518
  H   -1.71155856956506      0.82630939304048     -1.51196976896506
