12
Coordinates from ORCA-job run
  C   0.76222739915267     -0.82066098846594      0.02294901068244
  C   -0.48596684704286     -0.35010837847829     -0.16776572945408
  H   1.12248482399124     -1.82615696202680     -0.22332978942124
  N   1.80606829149692      0.05429501533456      0.53638982103777
  O   2.85943872677766      0.07940436167238     -0.10765690010533
  O   1.56159959642107      0.68850924531401      1.56769309849937
  C   -1.42605212852326     -1.22967572365400     -0.80546327527213
  N   -2.15042245444109     -1.95189577816480     -1.38938234732907
  C   -0.92537859084206      1.07145238088478      0.09169052347164
  H   -1.34164662359585      1.15604229918486      1.09348301511115
  H   -0.10252750815277      1.78314827232409      0.02233997362785
  H   -1.67982468524166      1.34464625607512     -0.64094740084837
