12
Coordinates from ORCA-job run
  C   0.71888264784294     -0.79587993786403      0.21722422839898
  C   -0.48704826633587     -0.30277745662813     -0.13235113532715
  H   0.94094277696006     -1.85351688608399      0.28629060100454
  N   1.88077484074152      0.02919432949411      0.51024766518862
  O   2.93402816701392     -0.58770326718827      0.67336824349356
  O   1.74527575290205      1.25002273879433      0.57812127199951
  C   -1.49313364639656     -1.29912238853437     -0.37378393129024
  N   -2.33865957637008     -2.09139509913525     -0.58236151916088
  C   -0.90189911594114      1.13690031701731     -0.27130223241604
  H   -0.90382639775966      1.63009481946936      0.70294359514529
  H   -0.19791672379561      1.68377359280386     -0.89951965429592
  H   -1.89642045886157      1.20040923785506     -0.70987713274027
