12
Coordinates from ORCA-job run
  C   0.91076192148685      0.20020392518834      0.30380397517961
  C   -0.34644923239176      0.00570995005154     -0.12924486547724
  H   1.33904089013363      1.18249015081638      0.45791871429532
  N   1.84133805575165     -0.86487889124820      0.65723158425777
  O   1.54167858079395     -2.02756594188266      0.40422393057449
  O   2.88262198674938     -0.48403633665941      1.19484605849976
  C   -0.93644065058506     -1.28770547967047     -0.31251797942337
  N   -1.55904362392450     -2.26807839625271     -0.50306606477572
  C   -1.24207326261395      1.17106762287449     -0.45417366335033
  H   -0.73026046055993      2.12012073983247     -0.29102926342059
  H   -2.13890585087599      1.13808679726220      0.16897908050980
  H   -1.56326835396426      1.11458585968802     -1.49697150686950
