12
Coordinates from ORCA-job run
  C   0.66774377136780     -0.72483240391446      0.49729524365339
  C   -0.52230487755601     -0.26036803265983      0.06885819312808
  H   0.80460160180305     -1.68089874624570      0.98695687736652
  N   1.92138011283367     -0.02323229636690      0.27274578593963
  O   2.92075338972599     -0.73920925122732      0.21369118659412
  O   1.90354146948605      1.20279387792969      0.16799450233571
  C   -1.65076708095836     -1.09390943414865      0.37226737864934
  N   -2.59818848752764     -1.75319707802612      0.60416251121996
  C   -0.80576623688080      1.02176960773997     -0.66563504351192
  H   -1.72384630027416      0.91901685075736     -1.24418477003158
  H   0.01619368231615      1.29537683070222     -1.32407920286419
  H   -0.93534104433575      1.83669007545975      0.05092733752095
