12
Coordinates from ORCA-job run
  C   0.83832719503834      0.05323258979298      0.50973840194320
  C   -0.32244525367826      0.06424874017411     -0.16702104254139
  H   1.08510795446449      0.77952522627305      1.27341682282377
  N   1.86644298093748     -0.97119509379885      0.36320404704958
  O   1.83693155199364     -1.70524771163279     -0.61877498104963
  O   2.69585341078318     -1.00670895691913      1.27089098350198
  C   -0.68872214059185     -0.91497642853263     -1.14702108714392
  N   -1.12401441361547     -1.64762301629124     -1.95840078850834
  C   -1.34875409168638      1.13853604657547      0.07846386327337
  H   -1.55446986127197      1.67234164032658     -0.84949597942770
  H   -1.00085195635532      1.85084004205750      0.82817247390296
  H   -2.28240537601787      0.68702692197494      0.41782728617611
