12
Coordinates from ORCA-job run
  C   0.86067445334056      0.15574597902453      0.44367281637030
  C   -0.34509824794596      0.01323072758392     -0.13245459643772
  H   1.18140259756046      1.06995589245638      0.92670074835089
  N   1.89886537044506     -0.86736286975104      0.46058921357058
  O   2.99382027478659     -0.48529473722194      0.87705443449967
  O   1.62682586265526     -2.00023363954661      0.07564668899517
  C   -0.77463911169759     -1.18050561687523     -0.79975266068564
  N   -1.26475173869818     -2.07706453406682     -1.38380651985654
  C   -1.34827466694662      1.13524194305358     -0.11569065347452
  H   -0.95452456638805      2.00922359214013      0.40430577607128
  H   -2.26501981995327      0.80856069121944      0.38087886020096
  H   -1.61028040715826      1.41750257198365     -1.13814410760443
