12
Coordinates from ORCA-job run
  C   0.89486191482712      0.21533464664777      0.34505604099334
  C   -0.34404577026585      0.00900190717657     -0.13265171745660
  H   1.21640877253169      1.15665282611500      0.77240414865725
  N   1.92921705804040     -0.80860094235964      0.41897658900095
  O   1.81562829267529     -1.81964169621966     -0.26760814002888
  O   2.85533418553584     -0.55286519340945      1.18976187157656
  C   -0.79362081432484     -1.24914020455146     -0.65197686742930
  N   -1.30466736611574     -2.21566582375350     -1.08765778952942
  C   -1.36732712980107      1.11251576481745     -0.14084736437865
  H   -2.23561047249148      0.82278707237973      0.45556430365787
  H   -1.71336383594925      1.29223407185368     -1.16149240578157
  H   -0.95281483466210      2.03738757130352      0.26147133071845
