12
Coordinates from ORCA-job run
  C   0.97570118358659     -0.01954884104001     -0.09086253049130
  C   -0.36247182695753      0.07502392256491     -0.01078186708057
  H   1.57498026985087      0.60393243570362     -0.74214631318098
  N   1.78642988616324     -0.98384144454167      0.64215430412755
  O   1.25916777817335     -1.66441908540520      1.51656932025844
  O   2.97047359777066     -1.02686618653226      0.30371439946688
  C   -1.17272686196859     -0.75769430333402      0.82856058575067
  N   -1.96691893877101     -1.35999665498801      1.45447993706841
  C   -1.11539892774569      1.09299423530912     -0.82454093223710
  H   -1.83651585221021      0.59300293186030     -1.47556522722707
  H   -1.67524531044172      1.75894080975838     -0.16352728345602
  H   -0.43747499744995      1.68847218064485     -1.43705439299890
