12
Coordinates from ORCA-job run
  C   0.67587631305368     -0.71400419689418      0.49715561781662
  C   -0.49106447192203     -0.31822164516276     -0.04860475004478
  H   0.85699681461827     -1.70980794431925      0.88237166161554
  N   1.85487092374182      0.13480027247255      0.56137572896425
  O   2.92963585967300     -0.46302025627702      0.61420430623728
  O   1.70766335895482      1.35650711051347      0.56773427641670
  C   -1.53877548246631     -1.29932472597270     -0.02570640078215
  N   -2.41830854483781     -2.08173452534067     -0.02184499723050
  C   -0.82713938230886      1.01858251802710     -0.65169519822310
  H   -1.12928156295610      1.71375696435565      0.13558744763620
  H   -1.65313564941274      0.90881931649156     -1.35421592176043
  H   0.03166182386226      1.45564711210625     -1.15736177064563
