12
Coordinates from ORCA-job run
  C   0.86442788028977     -0.66913326754109     -0.14207409598489
  C   -0.39235484666980     -0.23781198003838     -0.36650953412816
  H   1.32169376771444     -1.50123313950570     -0.66273159131862
  N   1.78311468446946     -0.00867694395041      0.77129410839989
  O   2.97767379929210     -0.17290440110859      0.52390754477024
  O   1.32255070030649      0.64276392852053      1.70821692256183
  C   -1.14439218395015     -1.01360322996890     -1.31156269074078
  N   -1.79234821870029     -1.62961372275661     -2.07732446690162
  C   -1.09760918841758      0.93270481576252      0.26315151419134
  H   -0.41128954915295      1.75354967359070      0.46128447833153
  H   -1.90183331967118      1.27191646321519     -0.38963892247942
  H   -1.52963352551033      0.63204180378075      1.22098673329865
