12
Coordinates from ORCA-job run
  C   0.93525796144497      0.24352972121436      0.16495784710440
  C   -0.35518638259442     -0.02026623251116     -0.10186347151949
  H   1.39744902348665      1.20141052128977     -0.03722242852250
  N   1.86377138740243     -0.69308418147736      0.78616591209938
  O   1.51483983426498     -1.85775266387994      0.95188178243268
  O   2.95412479842310     -0.21052857292168      1.09687960273516
  C   -0.98941408799117     -1.27402833518189      0.18197199143004
  N   -1.64902995679610     -2.23263782120837      0.35858636162894
  C   -1.24265231921516      1.01982017678864     -0.73145038847711
  H   -0.69625014007264      1.94515885474830     -0.91686905798380
  H   -1.64195595462951      0.64633964029705     -1.67735326848671
  H   -2.09095416372312      1.23303889284228     -0.07668488244099
