12
Coordinates from ORCA-job run
  C   0.65690233111669     -0.56959983178401      0.67829590664873
  C   -0.50698368123807     -0.28212046210751      0.06327007183929
  H   0.77243614995652     -1.35205688340232      1.41803250359480
  N   1.87592248659449      0.19865529681601      0.47994931600304
  O   2.04997495078883      0.76919985125658     -0.59619375616247
  O   2.65532553380945      0.19997612293354      1.43265582898002
  C   -1.60267687615799     -1.14949917626904      0.39298233647195
  N   -2.51993351311218     -1.84490855764331      0.63912985426571
  C   -0.79014602662277      0.81014286060915     -0.93072205753541
  H   -1.83203391189967      1.12071883717643     -0.84651442191338
  H   -0.62416724990705      0.43467028604051     -1.94418277478414
  H   -0.13462019332826      1.66582165637396     -0.78670280740814
