12
Coordinates from ORCA-job run
  C   0.67359266316798     -0.68751426918129      0.53698863877844
  C   -0.49565417575277     -0.31409091724646     -0.01957841045827
  H   0.84729668028422     -1.65679291985799      0.98736904451891
  N   1.86493618424341      0.14619873772827      0.52429845522019
  O   2.93233581290999     -0.46200348868058      0.60122216519044
  O   1.73387002562289      1.36756326873575      0.45106630971148
  C   -1.55668002045559     -1.27500708740991      0.08758037706706
  N   -2.44748266092587     -2.04108214228832      0.16093058207211
  C   -0.82172176647120      0.98209580485222     -0.71063912201023
  H   0.03668538302815      1.37212314915226     -1.25371044511707
  H   -1.10760984607271      1.73306021297419      0.03004384251457
  H   -1.65656827957853      0.83444965122186     -1.39557143748763
