12
Coordinates from ORCA-job run
  C   0.71474839464289     -0.72641116253823      0.42259071731132
  C   -0.48970038712599     -0.31498095713162     -0.02009639850711
  H   0.89499083290976     -1.70791435267856      0.84272273389614
  N   1.88864026343250      0.12738811414968      0.45796453867628
  O   1.98156953431599      1.04137374355484     -0.36083788099608
  O   2.71131853316036     -0.14763791839246      1.33141204526808
  C   -1.52678847053339     -1.30522252859965      0.01936852426614
  N   -2.39679554948419     -2.09790221432424      0.03150967840296
  C   -0.86844396203097      1.03508788170307     -0.56479608930240
  H   -1.92417682979316      1.21937374306047     -0.36903216976414
  H   -0.26199478082820      1.83010455556531     -0.13935906390755
  H   -0.72336757866558      1.04674109563133     -1.64944663534364
