12
Coordinates from ORCA-job run
  C   0.87650377397817      0.14602303765997      0.41395072541006
  C   -0.34744295907849      0.01753830595951     -0.12605145728923
  H   1.21378526529797      1.04867489841544      0.90731770479291
  N   1.90805530752608     -0.88399875493844      0.39327848482380
  O   1.64234887185459     -1.98630153466230     -0.07547317076176
  O   2.99197038074143     -0.53882384866781      0.86717858778853
  C   -0.80650134054701     -1.16476750074732     -0.79415144258145
  N   -1.32580364149810     -2.05093876216360     -1.36882870609248
  C   -1.34298765387304      1.14468442803548     -0.06193154291519
  H   -0.92830689666202      2.00865429706739      0.45853573005650
  H   -1.63461835577124      1.44357264457932     -1.07155563314899
  H   -2.24600275196832      0.81568278946236      0.45773071991729
