15

C	0.0	0.0	0.0
C	-0.307162	0.04316	-1.516015
Br	2.027403	0.0	0.0
H	0.570738	-0.352062	-2.047128
H	-0.27148	0.934553	0.484698
N	-0.518332	-1.071574	0.66938
H	-0.403239	-2.018787	0.344946
H	-0.962527	-0.941044	1.581112
C	-0.498313	1.498898	-1.985393
H	0.403135	2.077108	-1.718716
H	-0.627064	1.523745	-3.072177
H	-1.394619	1.921991	-1.510327
C	-1.403878	-0.836025	-1.961153
N	-2.05054	-1.579632	-2.619122
Cl	-3.596946	0.0	0.0
