15

C	0.0	0.0	0.0
C	-0.412706	0.169336	-1.500286
Br	1.956082	0.0	0.0
H	0.5024	0.174183	-2.096989
H	-0.243638	0.92414	0.533016
N	-0.522927	-1.195298	0.580888
H	-0.356512	-1.174649	1.581912
H	-1.541478	-1.14219	0.445333
C	-1.118936	1.505803	-1.745469
H	-1.36182	1.611575	-2.806084
H	-2.038591	1.54801	-1.164475
H	-0.442277	2.318739	-1.461495
C	-1.161638	-0.970077	-2.040695
N	-1.663476	-1.845567	-2.640813
Cl	-3.597313	0.0	0.0
