15

C	0.0	0.0	0.0
C	-0.519727	0.193391	-1.429134
Br	2.014042	0.0	0.0
H	-1.607333	0.320035	-1.263543
H	-0.276837	0.866444	0.599127
N	-0.512334	-1.170764	0.569435
H	-0.735724	-1.108332	1.547037
H	-0.033958	-2.020555	0.320729
C	-0.298993	-1.019252	-2.328537
H	0.763206	-1.261828	-2.417918
H	-0.696795	-0.821666	-3.325681
H	-0.845194	-1.866716	-1.912516
C	0.014741	1.409497	-2.038523
N	0.423729	2.386035	-2.548
Cl	-3.69331	0.0	0.0
