15

C	0.0	0.0	0.0
C	-0.409019	0.384653	-1.457726
Br	1.955986	0.0	0.0
H	0.504347	0.393367	-2.05888
H	-0.263985	0.820759	0.672449
N	-0.494539	-1.286419	0.383994
H	-0.304238	-1.43087	1.370466
H	-1.514901	-1.21956	0.28175
C	-1.02108	1.786158	-1.529793
H	-1.221942	2.051898	-2.571172
H	-0.311178	2.510592	-1.11879
H	-1.954539	1.797683	-0.969999
C	-1.228909	-0.621504	-2.143712
N	-1.71174	-1.368629	-2.910645
Cl	-3.478105	0.0	0.0
