15

C	0.0	0.0	0.0
C	-0.319782	0.381062	-1.478869
Br	1.966579	0.0	0.0
H	0.329442	1.221861	-1.744696
H	-0.287618	0.837097	0.637971
N	-0.575321	-1.192099	0.509635
H	-1.559869	-1.022502	0.713298
H	-0.504146	-1.949147	-0.160847
C	-1.771982	0.777483	-1.721448
H	-1.902071	1.058305	-2.770242
H	-2.043239	1.628904	-1.095348
H	-2.481518	-0.00829	-1.474288
C	0.058506	-0.735199	-2.350911
N	0.326358	-1.64232	-3.047471
Cl	-4.443069	0.0	0.0
