15

C	0.0	0.0	0.0
C	-0.507828	-0.033289	-1.460612
Br	1.95597	0.0	0.0
H	-1.598167	0.073351	-1.340994
H	-0.287893	0.960434	0.429537
N	-0.495468	-1.033486	0.856805
H	-1.512793	-0.906362	0.882101
H	-0.291577	-1.944967	0.46426
C	-0.211861	-1.33186	-2.207691
H	0.862623	-1.505474	-2.29803
H	-0.673446	-2.172177	-1.68647
H	-0.646083	-1.290624	-3.208714
C	-0.02294	1.117745	-2.218709
N	0.357915	2.03333	-2.849328
Cl	-3.548595	0.0	0.0
