14

C	0.0	0.0	0.0
C	-0.341938	0.333346	-1.490468
Cl	1.797299	0.0	0.0
H	-0.133811	1.404297	-1.622233
H	-0.321455	0.807766	0.657106
H	0.404365	-0.19381	-2.097087
C	-0.594586	-1.304388	0.462306
H	-0.27565	-1.552873	1.478299
H	-1.683895	-1.13512	0.430496
H	-0.306423	-2.122726	-0.205439
N	-1.656553	0.018639	-1.997795
H	-2.381495	0.182833	-1.247484
H	-1.695491	-0.985	-2.141199
F	-3.252237	0.0	0.0
