14

C	0.0	0.0	0.0
C	-0.596797	0.159265	-1.412723
Cl	1.794421	0.0	0.0
H	-1.263748	1.025408	-1.351433
H	-0.249524	0.897907	0.565804
H	0.207283	0.369583	-2.126479
C	-0.517114	-1.190441	0.778055
H	-1.605162	-1.047146	0.804014
H	-0.094855	-1.190419	1.787593
H	-0.266075	-2.122099	0.271578
N	-1.345638	-1.032431	-1.813123
H	-1.617582	-0.900453	-2.782976
H	-2.204183	-0.909451	-1.23866
F	-3.02347	0.0	0.0
