17

C	-0.205544	0.064401	-1.505823
C	0.0	0.0	0.0
Br	-2.093535	0.692948	-2.042918
H	1.106392	0.0	0.0
N	0.755121	0.96942	-2.036143
H	1.654884	0.799133	-1.545418
H	0.870867	0.850714	-3.034135
C	-0.162172	-1.280235	-2.100093
N	-0.055544	-2.353891	-2.569885
N	-0.582533	-1.205166	0.577307
H	0.127217	-1.93239	0.561289
H	-0.79122	-1.024749	1.551809
C	-0.462809	1.253376	0.707812
H	0.035583	1.312803	1.680806
H	-1.547478	1.242604	0.851851
H	-0.189629	2.136318	0.130237
H	2.811155	0.0	0.0
