17

C	-0.582591	0.011483	-1.413838
C	0.0	0.0	0.0
Br	0.348961	-1.472794	-2.490849
H	1.097253	0.0	0.0
N	-1.982327	-0.201482	-1.376609
H	-2.120858	-0.985104	-0.742478
H	-2.356209	-0.402364	-2.295267
C	-0.264761	1.224859	-2.164594
N	-0.042299	2.210027	-2.76544
N	-0.484665	-1.236907	0.64292
H	0.284072	-1.901285	0.592629
H	-0.624662	-1.045413	1.627872
C	-0.463563	1.222775	0.774294
H	-1.545812	1.218363	0.94306
H	-0.18907	2.142178	0.252523
H	0.062897	1.230978	1.735614
H	2.85207	0.0	0.0
