17

C	-0.231485	0.064981	-1.503054
C	0.0	0.0	0.0
Br	-2.144661	0.578845	-1.953814
H	1.099343	0.0	0.0
N	0.647615	0.990771	-2.184409
H	1.590943	0.75877	-1.827458
H	0.442136	1.922733	-1.839894
C	-0.063862	-1.264094	-2.105399
N	0.097415	-2.286974	-2.661892
N	-0.496911	-1.236639	0.574026
H	-1.264014	-1.063553	1.211151
H	0.259497	-1.682394	1.082076
C	-0.430483	1.243977	0.75418
H	-0.11732	2.162447	0.250669
H	0.05271	1.231335	1.73621
H	-1.517929	1.279011	0.884831
H	2.798812	0.0	0.0
