16

C	-0.518623	0.005279	-1.433293
C	0.0	0.0	0.0
Br	0.208994	-1.485867	-2.452935
H	1.094853	0.0	0.0
C	-1.974252	-0.060769	-1.519096
N	-3.149089	-0.13784	-1.528146
N	-0.077541	1.327802	-2.093428
O	1.031906	1.38952	-2.587951
O	-0.890973	2.243797	-1.994328
C	-0.478499	-1.199677	0.660993
N	-0.859475	-2.155274	1.234314
C	-0.387171	1.253733	0.787768
H	0.148351	2.11647	0.384646
H	-0.039861	1.112878	1.813115
H	-1.462754	1.452694	0.795806
H	2.585348	0.0	0.0
