16

C	-0.517857	-0.008092	-1.433375
C	0.0	0.0	0.0
Br	0.237593	-1.489277	-2.44593
H	1.094845	0.0	0.0
C	-1.970581	-0.101961	-1.5226
N	-3.143256	-0.200821	-1.546912
N	-0.101851	1.322416	-2.097462
O	1.005335	1.398469	-2.597521
O	-0.928739	2.226265	-1.992126
C	-0.475478	-1.194543	0.670785
N	-0.840462	-2.150674	1.252329
C	-0.383425	1.260196	0.777288
H	-0.040196	1.123301	1.805166
H	0.159668	2.115887	0.371382
H	-1.456521	1.467914	0.777197
H	2.5816	0.0	0.0
