16

C	-0.421877	0.120434	-1.442442
C	0.0	0.0	0.0
Br	0.47932	1.634095	-2.323898
H	1.097142	0.0	0.0
C	-0.11248	-1.075749	-2.216693
N	0.17421	-2.011319	-2.869407
N	-1.932508	0.365169	-1.532719
O	-2.627749	-0.635594	-1.714668
O	-2.342139	1.49887	-1.309782
C	-0.453661	-1.264443	0.541645
N	-0.784193	-2.279231	1.03962
C	-0.391975	1.165371	0.902085
H	-1.464036	1.216423	1.105222
H	-0.065841	2.104199	0.453421
H	0.151712	1.038944	1.84195
H	2.482673	0.0	0.0
