16

C	-0.521401	-0.003342	-1.424821
C	0.0	0.0	0.0
Br	0.126519	1.62414	-2.305122
H	1.090542	0.0	0.0
H	0.010764	-0.811847	-1.923631
C	-2.020978	-0.113617	-1.642375
H	-2.401141	-0.999502	-1.129549
H	-2.540622	0.762351	-1.258592
H	-2.230848	-0.2104	-2.710121
N	-0.403893	-1.232918	0.707153
O	-0.519396	-2.256733	0.027649
O	-0.496382	-1.192197	1.932072
N	-0.538313	1.14225	0.790866
O	0.257235	1.988676	1.186645
O	-1.758841	1.176414	0.984014
F	2.473413	0.0	0.0
