16

C	-0.281393	-0.024371	-1.475193
C	0.0	0.0	0.0
Br	-2.182475	0.130984	-1.979417
H	1.091511	0.0	0.0
H	0.155693	0.901409	-1.844258
C	0.397411	-1.208436	-2.133339
H	1.425458	-1.196268	-1.757009
H	-0.092246	-2.142954	-1.865313
H	0.388845	-1.099902	-3.22004
N	-0.457234	-1.170656	0.779244
O	-1.286463	-1.938882	0.280543
O	0.057744	-1.314377	1.887143
N	-0.504039	1.235747	0.637384
O	-1.150884	1.161578	1.67981
O	-0.223557	2.281894	0.055926
F	2.494111	0.0	0.0
