16

C	-0.49143	0.073723	-1.430247
C	0.0	0.0	0.0
Br	0.179462	-1.488689	-2.40677
H	1.087542	0.0	0.0
H	-1.579518	0.003148	-1.493246
C	0.089374	1.319812	-2.08168
H	-0.076222	1.303274	-3.160324
H	1.159031	1.343558	-1.858401
H	-0.379135	2.218638	-1.672574
N	-0.572105	-1.127549	0.776605
O	-0.143207	-1.250859	1.923104
O	-1.433049	-1.84408	0.262985
N	-0.503151	1.2227	0.706888
O	0.256819	2.181589	0.796378
O	-1.670571	1.205347	1.110928
F	2.505838	0.0	0.0
