12

C	-0.19665	-0.114524	-1.505641
C	0.0	0.0	0.0
F	-1.446834	-0.680369	-1.838068
H	1.094034	0.0	0.0
H	-0.236063	0.884686	-1.963036
H	-0.343644	-0.923959	0.470731
N	0.855615	-0.949332	-1.993027
H	1.027027	-0.777428	-2.974406
H	1.707503	-0.739749	-1.445141
C	-0.629513	1.155134	0.596933
N	-1.141126	2.098865	1.075949
F	2.653688	0.0	0.0
