12

C	-0.188228	0.118259	-1.514709
C	0.0	0.0	0.0
F	-0.127458	-1.197716	-2.059166
H	1.094454	0.0	0.0
H	-1.168975	0.48174	-1.842142
H	-0.336967	0.919505	0.48578
N	0.860077	0.945286	-1.977658
H	1.732379	0.673627	-1.489897
H	0.954634	0.890878	-2.982687
C	-0.641148	-1.150673	0.594372
N	-1.178589	-2.062781	1.104193
F	2.663238	0.0	0.0
