12

C	-0.186215	0.151121	-1.514209
C	0.0	0.0	0.0
F	-0.188509	-1.183992	-2.042083
H	1.094496	0.0	0.0
H	-1.152544	0.552378	-1.839618
H	-0.416347	-0.94518	0.346857
N	0.890419	0.923439	-1.990057
H	0.98059	0.873513	-2.99522
H	1.756014	0.643908	-1.495047
C	-0.555334	1.116104	0.73596
N	-1.022168	2.011043	1.338417
F	2.667129	0.0	0.0
