12

C	-0.207226	-0.072739	-1.507511
C	0.0	0.0	0.0
F	-1.449003	-0.657596	-1.842798
H	1.092892	0.0	0.0
H	-0.276394	0.937235	-1.936178
H	-0.341386	-0.93719	0.446095
N	0.858144	-0.867765	-2.030522
H	1.707499	-0.675203	-1.472616
H	1.027023	-0.650571	-3.00325
C	-0.628975	1.135263	0.634722
N	-1.134295	2.060491	1.154711
F	2.65332	0.0	0.0
