12

C	-0.449839	-0.022234	-1.442715
C	0.0	0.0	0.0
F	-0.129588	1.217444	-2.035584
H	1.091856	0.0	0.0
H	0.137779	-0.764523	-1.986763
H	-0.315894	-0.939466	0.466599
N	-1.846276	-0.297061	-1.604236
H	-2.100757	-0.176329	-2.577857
H	-2.372632	0.377457	-1.059858
C	-0.608292	1.104713	0.715764
N	-1.127585	1.999156	1.275491
F	2.583979	0.0	0.0
