14
Coordinates from ORCA-job run
  C   -0.53655446776553     -0.11338147026668      0.01251552056147
  C   0.96588706825034     -0.29355773494579     -0.01728401913234
  F   -1.03384587266015     -0.51168465116110     -1.23584411215365
  H   1.35055876496475     -0.12104323579770      0.98735817335730
  H   1.18222312096492     -1.32917891082159     -0.29585727876709
  N   -1.21182148943967     -1.08274068477556      0.96849969940960
  O   -0.50908286756780     -1.89810312788573      1.55860201668138
  O   -2.42836602824854     -0.96863711141261      1.06425241250300
  N   -0.91207598650000      1.17278247230641      0.38342329481030
  H   -0.34583020609774      1.84126080420146     -0.12407077949934
  H   -1.90388731785208      1.32794930348877      0.26492711893627
  N   1.50125215656764      0.71586462985742     -0.92822512082582
  H   1.39596163173111      0.40383892063123     -1.88503432402801
  H   2.48658149365273      0.85563079658146     -0.75226260185306
