14
Coordinates from ORCA-job run
  C   -0.59104066559707     -0.14146862738798     -0.26342961652943
  C   0.79449696302952      0.47720388803326     -0.26053146391332
  F   -0.61660060283657     -1.11191630877208     -1.21719285991188
  H   0.80718212750396      1.25459119585899      0.50511071484236
  H   0.92097217244611      0.95904559954809     -1.24350486793931
  N   -0.79131057382276     -0.81586418912322      1.08738373403682
  O   -0.86844191983620     -0.03353120409103      2.03147947342102
  O   -0.85208761285331     -2.03137539078628      1.13138871131063
  N   -1.71406848741123      0.71000603888965     -0.45051917459783
  H   -1.80979818140173      1.33768031702835      0.33673001348322
  H   -1.61605683580256      1.23944528808747     -1.30737991457167
  N   1.77590296097083     -0.53802486053386      0.07330041085737
  H   1.88745203363061     -1.18631600418193     -0.69480395076336
  H   2.67339862198039     -0.11847574256942      0.27196879027538
