14
Coordinates from ORCA-job run
  C   -0.49981837554982     -0.21853891329120     -0.05678467915879
  C   0.98576680784372     -0.08619842864014      0.20006905354615
  F   -0.65849587825138     -0.89594143951674     -1.27358697364815
  H   1.43152621900879     -1.08457546351004      0.16087333723354
  H   1.12466391334497      0.31241771074630      1.20448806238211
  N   -1.17323500405280     -1.15063381044425      0.93713669200859
  O   -0.47211655714368     -1.70224678269207      1.78024975897514
  O   -2.38464416784111     -1.27894946863785      0.80277469381452
  N   -1.16127613117627      1.00269332598390     -0.00191548295383
  H   -2.12092994858680      0.93067283892480     -0.31094138765106
  H   -0.63011953488051      1.69130529350849     -0.52009751465720
  N   1.50806700983002      0.86290456680419     -0.78095991294660
  H   1.64597902518399      0.39542125586853     -1.66788405016505
  H   2.40263262227089      1.22066931489609     -0.47542159677938
