14
Coordinates from ORCA-job run
  C   -0.52678955191314     -0.06056292887405     -0.34137497612688
  C   0.88147995192515      0.48492970551504     -0.27433535454099
  F   -0.59336311335212     -1.06083845407843     -1.25877818438822
  H   1.08753543494618      0.91189933991962     -1.26456352010250
  H   0.90039924312761      1.29070627724591      0.46111028405003
  N   -0.81666005901456     -0.72497923081595      1.02387367178411
  O   -0.84285942646123      0.06949228761750      1.96066467098701
  O   -1.01748470575454     -1.92720320332370      1.07769656245271
  N   -1.49455373550376      0.91645500400062     -0.66531898128680
  H   -2.40183403530297      0.48664911203468     -0.80173453102165
  H   -1.55303355155184      1.61200646613148      0.06645661259889
  N   1.77286630376118     -0.57694955791694      0.15804467945572
  H   2.65952620694364     -0.19784469938092      0.45845953929630
  H   1.94377103815040     -1.22376011807487     -0.60020047315773
