14
Coordinates from ORCA-job run
  C   -0.50961819452277     -0.12615797288297     -0.24759177193395
  C   0.96912046663658     -0.30363965291077      0.04143879751464
  F   -0.83828972854742     -0.57495215264709     -1.47500552045651
  H   1.19663059675975     -1.36824026999243     -0.06215114263795
  H   1.13237746645853     -0.02152233572934      1.09251866398999
  N   -1.25318028785684     -1.05663405668736      0.75187567809869
  O   -1.65086645751102     -2.14346144780398      0.35693467334268
  O   -1.33694983722130     -0.61770277750049      1.89818089195169
  N   -0.92755866560010      1.21948708668872     -0.12101701518161
  H   -1.85936729061166      1.33614062089142     -0.50056225960494
  H   -0.91936955307339      1.49830538893436      0.85151928503828
  N   1.72901711643014      0.44582674081288     -0.94065140462930
  H   1.54896410395776      1.43452176436318     -0.82885237599990
  H   2.71809026470175      0.27702906446388     -0.81663649949181
