14
Coordinates from ORCA-job run
  C   -0.54244305069421     -0.19252293104033     -0.20048741204766
  C   0.94565295513234     -0.25004803981057      0.10279149456485
  F   -0.79107852698261     -0.94165800182733     -1.35034942303391
  H   1.28476974377340     -1.26687603323965     -0.11596315929238
  H   1.08122944194750     -0.06893126292519      1.17216646841761
  N   -1.29291700547682     -1.01888434979801      0.86473526436196
  O   -2.33354791725291     -0.55555521840178      1.32218511289525
  O   -0.80139913777411     -2.10492780456405      1.15039540720888
  N   -1.03947019643010      1.08835465436828     -0.30259291322276
  H   -0.35595515529915      1.80279912756072     -0.10990659955373
  H   -1.96178381054321      1.22531590095231      0.07662072851841
  N   1.62119311588183      0.81344604681900     -0.63191710217403
  H   2.59290151070581      0.85624837634980     -0.35405672872800
  H   1.59284803301225      0.61323953555679     -1.62462113791449
