14
Coordinates from ORCA-job run
  C   -0.49343128506243     -0.15419607941484     -0.26330678621437
  C   0.97412764788603     -0.27290235778301      0.10296163587541
  F   -0.75199988628515     -0.67912163512059     -1.47728693125812
  H   1.23444027821619     -1.33446516125930      0.07125025536716
  H   1.07858535030984      0.07302479549784      1.14250434346605
  N   -1.25833472065693     -1.04955674384749      0.75192920834474
  O   -1.42128029082646     -0.54621530797222      1.86263051429381
  O   -1.59380454027123     -2.17309267396153      0.40498278906894
  N   -0.95137531971001      1.18427124355711     -0.23209562190911
  H   -1.86514853597705      1.25256527163791     -0.66391609124934
  H   -1.00334705515103      1.51241227096055      0.72367897396234
  N   1.75973772119525      0.44317170427628     -0.88415091364274
  H   1.54699920014789      1.43060926829395     -0.83538501198550
  H   2.74583143618508      0.31249540513531     -0.70279636411927
