14
Coordinates from ORCA-job run
  C   -0.52808679307576     -0.14461437738689     -0.01267458064315
  C   0.98110312142259     -0.23354190456098      0.05620505075995
  F   -0.92179993535622     -0.63096998237903     -1.26757570070882
  H   1.29148113322875      0.00981607532706      1.07191936858058
  H   1.27483707526983     -1.26578930545936     -0.15596057597902
  N   -1.20477937858813     -1.10918709192667      0.94735748416763
  O   -2.42900719256446     -1.05711021539351      0.97248147455297
  O   -0.49489099475614     -1.86277320730724      1.60681573149564
  N   -1.00029150615101      1.13165466635710      0.26982236669478
  H   -1.99038825892812      1.22074949245319      0.08713369122231
  H   -0.44317292352606      1.81015533848420     -0.23427389120641
  N   1.51206822980908      0.76324420769678     -0.87119309363467
  H   2.47827106475183      0.96257523594863     -0.65160946991495
  H   1.47465635846384      0.40379106814670     -1.81644785538685
