14
Coordinates from ORCA-job run
  C   -0.56930400287437     -0.06323528233724     -0.28487388618773
  C   0.84680542963461      0.50943096886050     -0.32114502250504
  F   -0.68492121004242     -0.97552701185546     -1.28592740422725
  H   0.93809177158301      1.02320564062845     -1.28474530414807
  H   0.92767274036070      1.26168675584184      0.46643437469465
  N   -0.71444923710533     -0.81164298167741      1.03236315493472
  O   -0.70416919180888     -2.03304941325911      1.01582705383244
  O   -0.77196784980949     -0.08967518169665      2.02573170313209
  N   -1.66869752509545      0.83545641211216     -0.35773361591460
  H   -1.60201081006069      1.39803527169925     -1.19667192104704
  H   -1.68627591112067      1.43343512535912      0.45781985276029
  N   1.92361541641451     -0.44782969371297     -0.18700873739133
  H   1.97007456700921     -0.82180828069432      0.75168768384586
  H   1.79453581291524     -1.21748232926816     -0.83075793177900
