14
Coordinates from ORCA-job run
  C   -0.56756390022684     -0.25403162536376     -0.16736607986368
  C   0.91902550155366     -0.10815645088939      0.13900149814862
  F   -0.67073125505644     -0.99765736206556     -1.30713895259130
  H   1.35694842631190     -1.11230761471417      0.21755207388766
  H   1.01298047897770      0.39282700109989      1.10458918882831
  N   -1.18732607337263     -1.07320337937335      0.95885268329913
  O   -1.34946545027415     -2.26965506688389      0.77132099397575
  O   -1.41551415539039     -0.45730961098460      1.99809813944125
  N   -1.31786161964706      0.93368516792455     -0.30595215728064
  H   -1.57974344232167      1.28661283014483      0.60470811084881
  H   -0.73412966023595      1.61014098161087     -0.78592170904504
  N   1.49216076426561      0.73249261372252     -0.90334073886975
  H   2.36477833475597      1.13771213961742     -0.59443235010218
  H   1.67644205066029      0.18085037615464     -1.73097070067695
