14
Coordinates from ORCA-job run
  C   -0.54991058272402     -0.04001718561051     -0.16236031771224
  C   0.86433570438398      0.48634952864076     -0.22874640247976
  F   -0.67565035787481     -1.04557416577410     -1.10270471935575
  H   0.96122579040811      1.02761866070603     -1.18269783262880
  H   0.99173690044700      1.19876746090270      0.58370009846913
  N   -0.78352037284767     -0.71322737234900      1.18875213556097
  O   -1.47192866344810     -1.72608655637331      1.19210438371388
  O   -0.31306748909241     -0.14438999396993      2.16354966721662
  N   -1.53589799485560      0.95520004947573     -0.28254942207864
  H   -1.38333802872603      1.51744295479242     -1.10906416920944
  H   -2.46158415862467      0.54467285587150     -0.31748425021375
  N   1.77993646277571     -0.62664261221815     -0.06143318228735
  H   2.68457442394581     -0.30287753908447      0.24796995932654
  H   1.89308836623271     -1.13323608500965     -0.92803594832141
