14
Coordinates from ORCA-job run
  C   -0.61455996411659     -0.11200936453672     -0.26613529913122
  C   0.82723708154726     -0.25696133409200     -0.68679315489006
  F   -1.42358576373652     -0.72947709496239     -1.21595902149869
  H   1.01336406755682     -1.31158844884830     -0.88648829034821
  H   0.94336882004597      0.29559670607373     -1.63271319918983
  N   -0.85742640932156     -0.93488877080129      0.99735864659005
  O   -1.51937612861834     -0.42629323322853      1.89603403916722
  O   -0.42209935024055     -2.07720340122023      0.97512885440621
  N   -0.96697842137773      1.22100378167613     -0.01097589703304
  H   -1.02047642866155      1.73808665645342     -0.87867157308848
  H   -1.83470088779105      1.28804537139573      0.50422108719934
  N   1.65809173666794      0.18686142869217      0.41604869920216
  H   1.59511440428891      1.19009818038066      0.52117171414227
  H   2.62302724375700     -0.07227047698239      0.26677339447227
