14
Coordinates from ORCA-job run
  C   -0.43098209646595     -0.22468202928864     -0.01394588836073
  C   1.08320987177628     -0.18563185368757      0.11033443850092
  F   -0.74184557903393     -0.87901309910187     -1.21207536594291
  H   1.44778311459851     -1.20840436138767      0.01170191854083
  H   1.34239095246009      0.16435863480859      1.10936863417434
  N   -1.06824994705057     -1.12001691087483      1.04020994429759
  O   -0.32642399643054     -1.77996784814917      1.76016762962048
  O   -2.29451934637585     -1.12590053177223      1.06134512512166
  N   -1.04685049369665      1.02527716482271      0.10277929659532
  H   -2.05087198320980      0.94500726045482      0.00175668757658
  H   -0.67278083271019      1.67218738603510     -0.57648130768703
  N   1.73368504190473      0.65164661426441     -0.88026658659851
  H   1.60179528088392      1.63665466413712     -0.69952761562228
  H   1.42266001334994      0.42648490973924     -1.81536691021627
