14
Coordinates from ORCA-job run
  C   -0.59320339058077     -0.12766630941015     -0.26663561037825
  C   0.80402822456859      0.46402012019014     -0.25326680199703
  F   -0.63525540961772     -1.08569757510935     -1.23212826103750
  H   0.94233497552338      0.95343645436818     -1.23085026249092
  H   0.82962470034681      1.23307883105169      0.52037899170134
  N   -0.80998369752387     -0.81366776237791      1.07548331879280
  O   -0.87218980907435     -0.04116078215704      2.02862674062498
  O   -0.89752939650106     -2.02794716826040      1.10491713053127
  N   -1.69937929366047      0.74743076603745     -0.44647827709075
  H   -1.78133353949040      1.37183770646636      0.34493310521068
  H   -1.59076025871041      1.28049762290630     -1.29983204783880
  N   1.76488613607400     -0.57317638716518      0.07217797556795
  H   2.66695675715861     -0.17254337646365      0.28803544620207
  H   1.87380400148766     -1.21044214007643     -0.70536144779783
