14
Coordinates from ORCA-job run
  C   -0.55272283903222     -0.03321558713733     -0.39431125329640
  C   0.88251415926614      0.45141250817653     -0.35561935087403
  F   -0.74607230935291     -0.89800127102920     -1.41471825133628
  H   1.08826999450558      0.79897195347893     -1.37019354265093
  H   0.94778224638581      1.31414426226140      0.31519011139994
  N   -0.80297359505254     -0.85332649610938      0.89120006410559
  O   -1.40587783134087     -1.91244723429622      0.81424646837952
  O   -0.42801288548570     -0.29856765192325      1.92442190166682
  N   -1.48824951528376      1.02008350317345     -0.51197744762486
  H   -2.42977802161454      0.65915597979178     -0.60887008809397
  H   -1.43418235425227      1.65052212457658      0.27645588276919
  N   1.76051098660724     -0.65066003603571     -0.00236624801095
  H   2.61148730560183     -0.62758669136283     -0.54335189599888
  H   1.99830465904821     -0.61948536356477      0.97889364956524
