14
Coordinates from ORCA-job run
  C   -0.57909298497554     -0.22562565953436     -0.46045582224523
  C   0.91813395421373     -0.08957992479738     -0.61671604729902
  F   -1.08114802281502     -1.04616354032705     -1.43649750652099
  H   1.06506261964772      0.40299392009294     -1.57986184568951
  H   1.35389788395772     -1.09055299023790     -0.66755527275058
  N   -0.89085660930907     -1.03917693451220      0.83447699297688
  O   0.01863506736694     -1.68270985981631      1.35406267723130
  O   -2.05198515121338     -0.99396744839891      1.22726171178023
  N   -1.23152563107039      1.00423282895453     -0.46685530743520
  H   -2.18844913319825      0.92307193754748     -0.14889820133065
  H   -0.70266495870736      1.65668241751499      0.09939009254633
  N   1.43226419040238      0.75512990592541      0.45487661500981
  H   2.26415263739962      1.24338163502282      0.15458234989307
  H   1.67357613830089      0.18228371256595      1.25318956383356
