14
Coordinates from ORCA-job run
  C   -0.58114393410003     -0.10491165473611     -0.30062386212854
  C   0.80945407046390      0.48955425728882     -0.17731918739012
  F   -0.57713766540648     -0.97042678730539     -1.35084263429529
  H   0.79825055936790      1.18314637294916      0.66496922830147
  H   0.98157483408958      1.06888505237329     -1.09886352524245
  N   -0.84484234157654     -0.91293542846829      0.96291081800171
  O   -0.95345755986517     -0.23223596595478      1.97984894262865
  O   -0.91993834889217     -2.12545070942867      0.87715626371472
  N   -1.68612100415161      0.77834618505719     -0.44300261889919
  H   -1.54458784882158      1.39457684300366     -1.23320579611045
  H   -1.80917749170135      1.32029843556729      0.40205162672451
  N   1.76557726630073     -0.56892226185714      0.08736737927908
  H   2.65765451067660     -0.18639102259653      0.36793869022168
  H   1.90389495361621     -1.13453331589249     -0.73938532480579
