14
Coordinates from ORCA-job run
  C   -0.64781301835724     -0.10461365789439     -0.40904982885474
  C   0.83088404290119     -0.16868547705394     -0.71598258480521
  F   -1.35803429186121     -0.76510158419813     -1.37728661252424
  H   0.95512381384604      0.37221507534097     -1.65610644012873
  H   1.10637556098765     -1.21395017123430     -0.87695929987512
  N   -0.94993218580188     -0.96735789983281      0.85567433243910
  O   -2.04873003889513     -0.79125348704449      1.37165821069234
  O   -0.09981865373541     -1.77113265704187      1.23304365113634
  N   -1.10830668341084      1.20131852702981     -0.26484578389061
  H   -0.43663910797295      1.72485587615653      0.28359747613889
  H   -2.03170733884314      1.22987653976916      0.14735978853355
  N   1.56577187366282      0.50749457825871      0.34622050850626
  H   1.80030589486195     -0.15504870039783      1.07388880546831
  H   2.42452013261815      0.90238303814256     -0.01021222283615
