14
Coordinates from ORCA-job run
  C   -0.49333605107415     -0.02941465111422     -0.15022875747891
  C   0.91482962954451      0.49687688943451     -0.37886582543005
  F   -0.64282020262551     -1.21280536424907     -0.87362220639550
  H   0.92067838342248      0.89985605074893     -1.39788340935046
  H   1.07920470522055      1.33045747766963      0.30360996939749
  N   -0.72235293065339     -0.47628881424957      1.29072585444700
  O   0.18816618474560     -0.32999951179834      2.10075847375336
  O   -1.82882810907590     -0.94933697996535      1.52494085054901
  N   -1.48930016613251      0.91660275478615     -0.41320789515285
  H   -1.38655958309681      1.32014359106468     -1.33374460402591
  H   -2.41385700824635      0.52197081615799     -0.29274932886472
  N   1.99249242861367     -0.45857918750980     -0.25464899264849
  H   1.80780987384620     -1.26952748541362     -0.82987556155332
  H   2.07387284551161     -0.75895558556191      0.70679143275333
