14
Coordinates from ORCA-job run
  C   -0.67418541486185     -0.17613260515596     -0.35701793841466
  C   0.78587313624696     -0.22558662988712     -0.80740922969139
  F   -1.40248456013104     -0.91638286012337     -1.25345423412488
  H   1.04520533226035     -1.27273223161248     -0.97474156781283
  H   0.82345790812471      0.28018932834402     -1.77821539327222
  N   -0.76061933092566     -0.94779686723582      0.96704397850870
  O   -0.84166252666962     -0.30056258340772      2.00955143519595
  O   -0.66375367411361     -2.16387163099730      0.87948626387991
  N   -1.24147357998064      1.09243038603788     -0.16992654603725
  H   -1.33250612217186      1.35176274538416      0.79979346753550
  H   -0.80923862281530      1.81231521765950     -0.72705603970288
  N   1.74476270161026      0.36132482390913      0.10222092328710
  H   1.48080376282427      1.29949544616704      0.37124866449283
  H   1.84582099060305     -0.19645253908199      0.93947621615612
