19

C	0.0	0.0	0.0
C	-0.517642	0.15661	-1.446587
Cl	1.793273	0.0	0.0
H	-1.596307	0.326087	-1.34202
C	-0.423711	1.159298	0.897389
H	-1.513838	1.219283	0.879472
H	0.005046	2.109466	0.581794
H	-0.086543	0.946111	1.91613
N	-0.485424	-1.282909	0.459745
H	-0.239109	-1.373521	1.440922
H	-1.509183	-1.216507	0.417653
C	-0.229501	-1.026949	-2.343577
H	-0.590739	-0.820804	-3.353388
H	0.838678	-1.236851	-2.38807
H	-0.750729	-1.896405	-1.948222
N	0.024819	1.411245	-2.062515
O	-0.51148	2.47426	-1.74797
O	0.968361	1.317839	-2.848978
Cl	-3.671417	0.0	0.0
