19

C	0.0	0.0	0.0
C	-0.512157	0.154386	-1.459631
Cl	1.79579	0.0	0.0
H	-1.569517	0.419209	-1.347953
C	-0.442729	1.163387	0.873406
H	-1.533771	1.204606	0.865618
H	-0.086662	0.973974	1.886758
H	-0.039764	2.107642	0.512573
N	-0.465922	-1.216565	0.613823
H	-1.4863	-1.14805	0.664405
H	-0.221687	-2.018954	0.045603
C	-0.357176	-1.082915	-2.316576
H	-0.595612	-0.849507	-3.355626
H	0.6612	-1.47326	-2.280806
H	-1.067218	-1.836339	-1.976325
N	0.131585	1.323377	-2.137766
O	-0.293964	2.444805	-1.855617
O	1.051614	1.109245	-2.929774
Cl	-3.670071	0.0	0.0
