19

C	0.0	0.0	0.0
C	-0.248148	0.206738	-1.532476
Cl	1.855265	0.0	0.0
H	0.51956	-0.373838	-2.046035
C	-0.503691	1.119941	0.882491
H	-0.262289	0.888936	1.923499
H	-0.054587	2.080338	0.635199
H	-1.594187	1.14463	0.770698
N	-0.516021	-1.211603	0.435483
H	-0.45047	-1.997947	-0.187023
H	-0.397743	-1.417844	1.412305
C	-0.193787	1.657256	-1.963577
H	-0.230361	1.722203	-3.052784
H	0.735083	2.111432	-1.615239
H	-1.050019	2.20166	-1.566862
N	-1.500724	-0.445441	-2.08879
O	-1.497029	-1.677713	-2.091181
O	-2.348132	0.263101	-2.611882
Cl	-4.145876	0.0	0.0
