19

C	0.0	0.0	0.0
C	-0.51768	0.115027	-1.460007
Cl	1.795532	0.0	0.0
H	-1.57715	0.376455	-1.35482
C	-0.434	1.188451	0.845669
H	-1.524247	1.234613	0.835733
H	-0.025236	2.120928	0.461631
H	-0.078752	1.021344	1.863487
N	-0.473038	-1.196647	0.645668
H	-1.492222	-1.11623	0.691437
H	-0.237271	-2.016141	0.099059
C	-0.36273	-1.144859	-2.285644
H	-1.076199	-1.886301	-1.925819
H	-0.600975	-0.937589	-3.329899
H	0.654139	-1.538759	-2.240127
N	0.121191	1.267684	-2.171284
O	1.030321	1.034041	-2.971078
O	-0.297716	2.397	-1.909824
Cl	-3.667526	0.0	0.0
