19

C	0.0	0.0	0.0
C	-0.484579	0.03006	-1.468805
Cl	1.793508	0.0	0.0
H	-1.574563	-0.062672	-1.412661
C	-0.435976	1.23823	0.772994
H	-0.120433	1.129377	1.814244
H	-1.52475	1.305689	0.722505
H	0.016257	2.147395	0.372785
N	-0.484084	-1.246654	0.546087
H	-0.154125	-1.324363	1.503201
H	-1.506106	-1.15585	0.570732
C	0.153404	-1.022607	-2.351097
H	-0.380288	-1.090459	-3.30209
H	1.195125	-0.775996	-2.54893
H	0.099543	-1.980701	-1.835327
N	-0.255251	1.391406	-2.058806
O	0.847704	1.636601	-2.554357
O	-1.183857	2.196148	-2.001161
Cl	-3.665338	0.0	0.0
