19

C	0.0	0.0	0.0
C	-0.514902	0.104169	-1.452226
Cl	1.841737	0.0	0.0
H	-1.577137	0.358778	-1.335023
C	-0.46811	1.150584	0.868803
H	-0.122082	2.10527	0.481099
H	-0.075841	1.015751	1.88077
H	-1.56297	1.126457	0.878853
N	-0.488177	-1.224934	0.521479
H	-0.647191	-1.193737	1.516315
H	0.072407	-2.022361	0.261766
C	-0.363138	-1.163718	-2.262436
H	-1.030609	-1.910448	-1.835248
H	-0.665756	-0.982919	-3.294551
H	0.667779	-1.520663	-2.26898
N	0.12995	1.255312	-2.163554
O	-0.24276	2.388509	-1.858162
O	0.995131	1.014211	-3.006315
Cl	-3.829697	0.0	0.0
