18

C	-0.517715	0.026509	-1.433462
C	0.0	0.0	0.0
Cl	-2.263824	0.131555	-1.540052
H	1.096798	0.0	0.0
N	0.047507	1.19196	-2.247522
O	-0.230621	1.18588	-3.44068
O	0.712649	2.02696	-1.65368
N	-0.017446	-1.21266	-2.177059
O	-0.771726	-2.17191	-2.276874
O	1.146914	-1.142155	-2.547303
C	-0.446199	-1.273291	0.705162
H	-0.085357	-2.16942	0.200481
H	6e-06	-1.266739	1.702529
H	-1.534545	-1.326494	0.795017
N	-0.512352	1.185286	0.688937
H	-0.715235	0.938968	1.649075
H	0.228603	1.87611	0.698514
Br	3.527108	0.0	0.0
