18

C	0.0	0.0	0.0
C	-0.568297	0.018111	-1.429615
Br	1.963297	0.0	0.0
H	-1.659122	0.133856	-1.248442
N	-0.485807	1.176944	0.664797
H	-1.517114	1.110749	0.564098
H	-0.278747	1.093769	1.655994
C	-0.440533	-1.295529	0.671133
H	-1.540005	-1.286189	0.627558
H	-0.117493	-1.285572	1.715884
H	-0.029876	-2.186156	0.191096
N	-0.329092	-1.12241	-2.259814
H	0.615417	-1.469456	-2.147177
H	-0.997462	-1.840053	-2.013442
N	-0.105701	1.24104	-2.167426
O	-0.776743	2.265004	-2.062603
O	0.920455	1.136134	-2.840845
H	-3.113679	0.0	0.0
