17

C	-0.341097	-0.0646	-1.473196
C	0.005239	0.021842	0.026507
Br	0.144022	1.800523	-2.190345
H	1.094217	0.042581	0.077233
C	0.562246	-1.01244	-2.236135
H	1.580053	-0.837466	-1.865864
H	0.261784	-2.037505	-2.014901
H	0.472984	-0.827476	-3.30984
N	-1.718408	-0.334836	-1.652116
H	-1.953354	-0.386981	-2.635357
H	-2.302242	0.361092	-1.202057
N	-0.446109	-1.253161	0.688969
O	-1.33163	-1.195917	1.544316
O	0.118931	-2.284549	0.341569
C	-0.663068	1.130624	0.687991
N	-1.192061	2.038739	1.215824
F	2.515955	-0.162579	-0.300559
