17

C	-0.091135	0.00412	-1.504149
C	0.021859	0.001502	0.054328
Br	-1.993842	-0.355787	-1.980131
H	1.111773	0.028104	0.15814
C	0.296561	1.385709	-1.998756
H	1.323536	1.528624	-1.649429
H	0.27185	1.371831	-3.088883
H	-0.36005	2.169298	-1.621188
N	0.750632	-0.958793	-2.142151
H	1.682049	-0.707193	-1.740188
H	0.526248	-1.879532	-1.781439
N	-0.498104	-1.25548	0.670348
O	0.016635	-2.309079	0.298564
O	-1.39462	-1.17832	1.509694
C	-0.622021	1.139227	0.688046
N	-1.090239	2.101725	1.173854
F	2.594318	0.095462	-0.539716
