17

C	-0.15792	-0.001821	-1.482355
C	-0.007114	0.040748	0.051524
Br	-2.061707	-0.367731	-1.988135
H	1.078092	0.159491	0.15006
C	0.205277	1.370301	-2.037902
H	0.143279	1.337605	-3.128815
H	1.243263	1.519013	-1.72365
H	-0.446117	2.166694	-1.672808
N	0.668145	-1.071329	-1.948057
H	0.714399	-1.014416	-2.960696
H	1.603167	-0.811546	-1.551581
N	-0.3955	-1.25564	0.698917
O	-1.548375	-1.366928	1.119063
O	0.471974	-2.119213	0.768744
C	-0.752329	1.121898	0.674489
N	-1.294244	2.034061	1.179183
F	2.569446	0.227735	-0.633972
