13
Coordinates from ORCA-job run
  C   0.59175289894584     -0.20820589420264      0.61807111198145
  C   -0.37097361121215      0.01084643688934     -0.54896942152067
  Cl  0.93981613050297     -1.99680517425066      0.67615189457337
  H   0.06883922253357     -0.34003456972396     -1.48520204787568
  H   0.07405317810278      0.01856619031443      1.54896151754981
  N   1.72443422612951      0.61975684559309      0.46060227439074
  H   2.30355831828789      0.33394346638026     -0.31883064849020
  H   2.28702240031149      0.65342379278625      1.29972154508497
  C   -0.76449058227990      1.41224709371599     -0.64377191258898
  N   -1.09743138823675      2.53492586032329     -0.72928834139024
  N   -1.61902959855737     -0.81749850663012     -0.34333327414631
  O   -1.94098027945639     -1.56456199350447     -1.25819064894085
  O   -2.19657091507149     -0.65860354769079      0.72507795137259
