13
Coordinates from ORCA-job run
  C   0.92967782104257      0.32659922374141      0.07824207590940
  C   -0.49997284531623      0.50222832319146     -0.44043043942829
  Cl  1.39744509703343      1.86289541765184      0.84876439318122
  H   -0.54824219357247      1.28615453703588     -1.20466926792515
  H   1.58829663087332      0.20029470319279     -0.78090827498617
  N   0.96482897524447     -0.78300054641927      0.99805384641129
  H   1.46921197638517     -1.55954647353795      0.59411518820210
  H   1.39345560707855     -0.52957013031824      1.87605250768399
  C   -1.44803016855519      0.79086025450806      0.62699390379646
  N   -2.19216524175515      1.08231911656098      1.48621697171728
  N   -0.91908754382303     -0.76752728082513     -1.16273538529125
  O   -2.11923016522559     -0.95657451744586     -1.29554220203074
  O   -0.01418794940985     -1.45513262733595     -1.62515331724015
