13
Coordinates from ORCA-job run
  C   0.60699431065482     -0.28329157481999      0.57800577357752
  C   -0.39023215855078     -0.09015602588974     -0.56917649373823
  Cl  0.89063209540827     -2.02667308914153      0.76686120925318
  H   -0.01829475651664     -0.59068595680691     -1.46355119530114
  H   0.14123384975711      0.05466560179821      1.50922177004599
  N   1.83926427365437      0.36779984898036      0.20178059182385
  H   1.75260394673932      1.36958964153059      0.33835128947727
  H   2.59903940578010      0.03457739575211      0.78192070988741
  C   -0.60932318181748      1.33222368795375     -0.80375483575141
  N   -0.73746392608147      2.48876937837194     -0.96241753738714
  N   -1.70851997182952     -0.72999043214042     -0.21552281391462
  O   -2.23849641129070     -0.33460510701755      0.81731680178632
  O   -2.12543747590739     -1.59222336857083     -0.97903526975900
