13
Coordinates from ORCA-job run
  C   0.66708959370422      0.24705922880514      0.54072633528861
  C   -0.45242216396952      0.26607845645395     -0.53833318859467
  Cl  0.01257063658417     -0.35154850452085      2.08111656434853
  H   0.04593787188074      0.23642612978456     -1.50937255213759
  H   0.93754863268649      1.29263963902536      0.72342698437701
  N   1.77454154436329     -0.55717742013641      0.08835498003020
  H   2.09910638686023     -1.18735198018724      0.80722996558730
  H   2.54372392661610      0.03138014503040     -0.20292818315046
  C   -1.28989134326975      1.45083566369006     -0.40740512948020
  N   -1.88638235392203      2.45105863430307     -0.26070309911033
  N   -1.29390461194256     -0.98498678493362     -0.47352285038690
  O   -2.37808564110333     -0.90129833321143      0.08909361751926
  O   -0.77883247848811     -1.99411487410294     -0.93868344429079
