13
Coordinates from ORCA-job run
  C   0.92505379240806      0.31740397307162      0.07900305714410
  C   -0.50327915075564      0.49861373191597     -0.43782730162855
  Cl  1.38475700027091      1.90167497261287      0.86719501122623
  H   -0.55658787347683      1.37045614008633     -1.09264651601311
  H   1.58873138604050      0.22405465706076     -0.77858298929093
  N   1.00832661540222     -0.82826132945546      0.89235304895919
  H   1.96357543347379     -1.08544339250169      1.09848328716606
  H   0.48408440988185     -0.73888705701077      1.75445955015472
  C   -1.46692733056523      0.60238884707266      0.64889588624845
  N   -2.20581516853014      0.69935307364635      1.55608170323288
  N   -0.81345176226451     -0.70261659470311     -1.31250369185084
  O   -1.69145425373025     -1.47505786095200     -0.95870939475217
  O   -0.11501309815474     -0.78467916084352     -2.31620165059603
