16

C	-0.470088	0.012109	-1.439191
C	0.0	0.0	0.0
F	0.110071	-0.943367	-2.162479
H	1.095751	0.0	0.0
N	-1.979719	-0.169907	-1.591479
O	-2.676284	0.050709	-0.607731
O	-2.364562	-0.512306	-2.702131
N	-0.188246	1.359253	-2.092765
O	-1.102828	2.173689	-2.088138
O	0.934141	1.490875	-2.551728
C	-0.434483	-1.262583	0.616916
N	-0.788006	-2.250537	1.146059
N	-0.394482	1.206621	0.692357
H	0.318684	1.433284	1.373254
H	-1.29896	1.117397	1.132366
Cl	3.189176	0.0	0.0
