16

C	-0.409781	-0.054077	-1.460179
C	0.0	0.0	0.0
F	0.206464	0.896397	-2.150382
H	1.098308	0.0	0.0
N	-0.131221	-1.372896	-2.162705
O	-0.352145	-1.361421	-3.369496
O	0.282292	-2.308122	-1.491261
N	-1.909702	0.145601	-1.631433
O	-2.294948	1.148928	-2.208417
O	-2.597642	-0.744994	-1.140455
C	-0.505545	-1.095043	0.820332
N	-0.937765	-1.86665	1.594227
N	-0.435386	1.30687	0.497729
H	0.37758	1.78246	0.869826
H	-1.121692	1.207251	1.23363
Cl	3.184418	0.0	0.0
