16

C	-0.476804	0.010584	-1.437065
C	0.0	0.0	0.0
F	0.111139	-0.933845	-2.168099
H	1.09575	0.0	0.0
N	-1.98473	-0.188272	-1.580629
O	-2.677683	0.037023	-0.595226
O	-2.372796	-0.545723	-2.685348
N	-0.213514	1.364904	-2.084752
O	-1.143289	2.161728	-2.092923
O	0.912475	1.518481	-2.527631
C	-0.430291	-1.2612	0.622546
N	-0.778185	-2.248327	1.156924
N	-0.394815	1.207835	0.691402
H	0.322041	1.43883	1.366358
H	-1.29526	1.116206	1.138389
Cl	3.190517	0.0	0.0
