16

C	-0.552702	-0.173938	-1.399987
C	0.0	0.0	0.0
F	-1.867659	-0.471761	-1.404657
H	1.09958	0.0	0.0
N	-0.35594	1.104771	-2.186853
O	-1.361667	1.688524	-2.559632
O	0.809909	1.420751	-2.357912
N	0.117785	-1.276225	-2.195025
O	0.046675	-1.179344	-3.416552
O	0.585478	-2.202887	-1.546217
C	-0.468142	-1.093815	0.855958
N	-0.893162	-1.89133	1.607232
N	-0.422831	1.312541	0.482135
H	-1.231192	1.250982	1.085204
H	0.350988	1.720401	0.991385
Cl	3.197023	0.0	0.0
