16

C	-0.457776	-0.019573	-1.444469
C	0.0	0.0	0.0
F	-0.224804	-1.204416	-2.020675
H	1.106117	0.0	0.0
N	-1.951924	0.232929	-1.622734
O	-2.659068	0.193291	-0.622016
O	-2.327678	0.37761	-2.780503
N	0.213255	1.057178	-2.287114
O	1.066694	0.676364	-3.071045
O	-0.186419	2.1984	-2.100643
C	-0.457424	-1.230161	0.657206
N	-0.847518	-2.180559	1.226843
N	-0.38623	1.224823	0.666755
H	-1.233913	1.119516	1.201737
H	0.378752	1.527797	1.253472
Cl	3.161589	0.0	0.0
