16

C	-0.420865	-0.098423	-1.451519
C	0.0	0.0	0.0
F	0.138752	0.857858	-2.177711
H	1.097546	0.0	0.0
N	-0.086255	-1.440719	-2.0896
O	0.795962	-1.459048	-2.931102
O	-0.764088	-2.380669	-1.684943
N	-1.931789	0.022564	-1.652561
O	-2.650605	-0.04362	-0.663485
O	-2.291702	0.171775	-2.8151
C	-0.454989	-1.115985	0.829434
N	-0.799738	-1.938735	1.594488
N	-0.416599	1.309019	0.487052
H	0.353227	1.703395	1.012464
H	-1.233311	1.234349	1.078097
Cl	3.181067	0.0	0.0
