16

C	-0.60855	-0.041312	-1.38362
C	0.0	0.0	0.0
F	-1.951279	-0.132095	-1.331752
H	1.090813	0.0	0.0
N	-0.256036	1.215748	-2.154653
O	0.911543	1.285658	-2.506435
O	-1.154371	2.02026	-2.343941
N	-0.14016	-1.192174	-2.248855
O	0.570639	-2.041769	-1.729224
O	-0.570302	-1.176242	-3.398234
C	-0.480335	-1.160861	0.761477
N	-0.921453	-2.026644	1.422408
N	-0.388153	1.276303	0.591973
H	-1.250925	1.208421	1.114655
H	0.360714	1.578801	1.202383
Cl	3.200581	0.0	0.0
