18

C	-0.360126	-0.099131	-1.475172
C	0.0	0.0	0.0
Cl	-2.054131	-0.615588	-1.7504
H	1.095195	0.0	0.0
N	-0.129872	1.224584	-2.208358
O	-0.912224	1.568517	-3.084993
O	0.914212	1.788514	-1.908603
C	0.614113	-1.077349	-2.114798
H	0.530522	-1.042149	-3.20307
H	0.388067	-2.088117	-1.773897
H	1.61163	-0.793174	-1.754797
N	-0.336962	-1.162685	0.762831
H	0.494186	-1.722129	0.892703
H	-1.102505	-1.702271	0.381653
N	-0.580068	1.212542	0.654164
O	-0.351031	1.359156	1.849
O	-1.235392	2.002795	-0.033614
F	2.57237	0.0	0.0
