18

C	-0.524502	0.013423	-1.456446
C	0.0	0.0	0.0
Cl	0.425116	1.096224	-2.490583
H	1.087877	0.0	0.0
N	-0.283163	-1.411219	-1.957756
O	-1.259651	-2.165235	-1.939625
O	0.850821	-1.732626	-2.275754
C	-1.993333	0.350583	-1.613704
H	-2.313107	0.180477	-2.64264
H	-2.608044	-0.250132	-0.944128
H	-2.132226	1.403882	-1.370945
N	-0.381937	-1.140471	0.762972
H	-1.240902	-1.599092	0.497102
H	0.399383	-1.780578	0.77464
N	-0.565778	1.239523	0.629496
O	-0.022576	2.310189	0.357181
O	-1.571934	1.133062	1.336515
F	2.53198	0.0	0.0
