18

C	-0.339913	-0.016789	-1.484872
C	0.0	0.0	0.0
Cl	0.144448	-1.594074	-2.150406
H	1.091509	0.0	0.0
N	-1.835638	0.08533	-1.787454
O	-2.579521	-0.695679	-1.202341
O	-2.200159	0.929038	-2.602533
C	0.451454	1.076266	-2.165271
H	0.392497	0.988829	-3.250563
H	0.070412	2.056314	-1.873334
H	1.478495	0.949124	-1.800115
N	-0.525314	-1.050507	0.792322
H	0.042332	-1.158845	1.62143
H	-1.507681	-0.946957	1.010123
N	-0.438662	1.357959	0.533705
O	0.367653	2.01213	1.188559
O	-1.612991	1.704159	0.329569
F	2.587301	0.0	0.0
