18

C	-0.455878	-0.212353	-1.437901
C	0.0	0.0	0.0
Cl	-2.221849	-0.507973	-1.519095
H	1.09159	0.0	0.0
N	-0.127405	0.992839	-2.331171
O	1.068127	1.150362	-2.539712
O	-1.033605	1.675379	-2.791881
C	0.320669	-1.392678	-1.989481
H	-0.021728	-2.292696	-1.484072
H	0.171878	-1.485022	-3.067917
H	1.369301	-1.210714	-1.740405
N	-0.372246	-1.128367	0.795081
H	0.350228	-1.251261	1.493867
H	-1.25721	-0.974899	1.261203
N	-0.50615	1.295244	0.557282
O	-0.310699	2.313192	-0.105054
O	-1.047612	1.284504	1.666609
F	2.538086	0.0	0.0
