17

C	0.0	0.0	0.0
C	-0.493509	0.125095	-1.439966
F	1.396177	0.0	0.0
H	-1.592929	0.067715	-1.305691
N	-0.515076	1.138065	0.707232
H	-1.542383	0.979841	0.605004
H	-0.294579	1.012928	1.691925
C	-0.423163	-1.334813	0.593304
H	-0.03105	-2.168745	0.009262
H	-1.515807	-1.321338	0.587732
H	-0.036775	-1.393525	1.617777
N	0.005059	-0.974919	-2.26751
H	-0.428672	-0.917943	-3.181408
H	1.004644	-0.852579	-2.394455
C	-0.118689	1.43708	-2.004038
N	0.175726	2.410345	-2.595102
F	-2.889536	0.0	0.0
