17

C	0.0	0.0	0.0
C	-0.268217	-0.021286	-1.554203
F	1.420977	0.0	0.0
H	0.59655	0.508006	-1.975482
N	-0.521938	1.166702	0.624472
H	-1.533744	0.963672	0.670442
H	-0.437088	1.942969	-0.023761
C	-0.480524	-1.228051	0.73085
H	-0.221695	-1.115656	1.786166
H	-0.0072	-2.127017	0.335168
H	-1.567411	-1.255019	0.611159
N	-1.479769	0.681627	-1.93038
H	-1.706716	0.466525	-2.893665
H	-2.253927	0.382278	-1.285626
C	-0.17074	-1.397871	-2.090365
N	-0.0937	-2.44642	-2.618164
F	-3.035958	0.0	0.0
