17

C	0.0	0.0	0.0
C	-0.477198	-0.154239	-1.45934
F	1.39996	0.0	0.0
H	-1.576954	-0.126803	-1.325188
N	-0.506799	1.193003	0.610162
H	-1.531613	1.018447	0.569199
H	-0.303679	1.983362	0.004349
C	-0.446171	-1.189866	0.827081
H	-1.537843	-1.208904	0.77092
H	-0.116073	-1.020805	1.853975
H	0.004166	-2.114819	0.458983
N	-0.061064	-1.372524	-2.157947
H	0.896148	-1.578104	-1.892543
H	-0.641814	-2.130782	-1.823053
C	-0.043446	1.010046	-2.244331
N	0.304734	1.950162	-2.857329
F	-2.879216	0.0	0.0
