17

C	0.0	0.0	0.0
C	-0.555102	-0.009198	-1.422827
F	1.416739	0.0	0.0
H	-1.648121	0.019213	-1.234129
N	-0.373351	1.277477	0.581655
H	-1.032917	1.156241	1.335591
H	0.471598	1.760602	0.869412
C	-0.506337	-1.197636	0.780233
H	-0.210898	-2.11884	0.268884
H	-1.624623	-1.10605	0.757677
H	-0.077692	-1.166106	1.789669
N	-0.172657	-1.207783	-2.16385
H	-0.783191	-1.312825	-2.962785
H	0.777221	-1.119336	-2.493761
C	-0.161567	1.242229	-2.112092
N	0.107061	2.216624	-2.704639
F	-2.931933	0.0	0.0
