17

C	0.0	0.0	0.0
C	-0.279697	0.391193	-1.498834
F	1.394077	0.0	0.0
H	0.503461	1.135797	-1.683302
N	-0.536016	1.060162	0.807128
H	-1.557526	0.910774	0.694251
H	-0.322483	0.842766	1.777472
C	-0.472563	-1.380062	0.402032
H	-0.04252	-2.157518	-0.232535
H	-0.173097	-1.56656	1.4396
H	-1.564042	-1.354028	0.32892
N	-1.554337	0.959119	-1.88916
H	-1.534764	1.919991	-1.565975
H	-2.293289	0.500846	-1.309181
C	0.058448	-0.751389	-2.370841
N	0.35351	-1.648111	-3.069416
F	-3.029086	0.0	0.0
