17

C	0.0	0.0	0.0
C	-0.242303	0.145971	-1.543238
F	1.396173	0.0	0.0
H	0.494917	0.914984	-1.811308
N	-0.524512	1.169562	0.642757
H	-1.544189	1.066185	0.504454
H	-0.368378	1.057106	1.641476
C	-0.487362	-1.301598	0.598196
H	-1.57936	-1.26953	0.523617
H	-0.069598	-2.171171	0.086819
H	-0.187571	-1.335969	1.651633
N	-1.560282	0.556504	-1.978368
H	-1.761532	0.165988	-2.888801
H	-2.288939	0.266275	-1.280327
C	0.219592	-1.099613	-2.198281
N	0.543668	-2.076179	-2.767268
F	-3.072604	0.0	0.0
