17

C	0.0	0.0	0.0
C	-0.441527	-0.115963	-1.444852
F	1.4347	0.0	0.0
H	0.018904	-1.052222	-1.805048
N	-0.37666	1.242905	0.599498
H	0.359288	1.50872	1.242535
H	-0.458352	1.939828	-0.129653
C	-0.41159	-1.177242	0.851295
H	-1.502126	-1.154566	0.87082
H	-0.004494	-1.047263	1.858881
H	-0.028333	-2.113337	0.432108
N	0.072404	1.049817	-2.186522
H	1.083241	0.971425	-2.225347
H	-0.296757	0.992997	-3.128075
C	-1.90466	-0.238376	-1.737242
N	-2.5658	-0.409205	-2.714517
F	-2.741023	0.0	0.0
