14

C	-0.306238	-0.003167	-1.475115
C	0.0	0.0	0.0
F	-1.681538	0.012562	-1.765493
H	1.096774	0.0	0.0
H	0.129588	0.886533	-1.936945
C	0.251776	-1.197061	-2.135245
N	0.626992	-2.15455	-2.700296
C	-0.486058	-1.245585	0.73338
H	0.030657	-2.118654	0.327983
H	-0.216371	-1.169379	1.788371
H	-1.567526	-1.39481	0.653896
C	-0.512716	1.219674	0.593504
N	-0.922743	2.202783	1.092916
F	2.525556	0.0	0.0
