14

C	-0.456532	0.000695	-1.450723
C	0.0	0.0	0.0
F	-0.056394	-1.176579	-2.069817
H	1.095778	0.0	0.0
H	-1.551013	0.038116	-1.543474
C	0.100932	1.134675	-2.210723
N	0.472574	2.040292	-2.857246
C	-0.443657	-1.273816	0.715455
H	-0.107513	-1.230392	1.753
H	0.051455	-2.122344	0.242857
H	-1.530014	-1.429049	0.700208
C	-0.529451	1.185647	0.644128
N	-0.979795	2.13744	1.17034
F	2.532869	0.0	0.0
