14

C	-0.330829	-0.032839	-1.47845
C	0.0	0.0	0.0
F	-0.031967	1.177048	-2.082212
H	1.095946	0.0	0.0
H	0.302491	-0.797357	-1.939357
C	-1.750918	-0.332929	-1.766852
N	-2.875069	-0.601286	-1.977662
C	-0.390853	-1.310393	0.681689
H	-1.467264	-1.513682	0.670058
H	-0.044859	-1.283443	1.716333
H	0.140201	-2.130336	0.189762
C	-0.596191	1.150697	0.645766
N	-1.092011	2.068011	1.19066
F	2.540058	0.0	0.0
