14

C	-0.458515	-0.003522	-1.449672
C	0.0	0.0	0.0
F	-0.055708	-1.181834	-2.066772
H	1.095818	0.0	0.0
H	-1.552958	0.030725	-1.541089
C	0.098538	1.129649	-2.211461
N	0.483157	2.034695	-2.851957
C	-0.440817	-1.271911	0.720971
H	-1.527991	-1.42049	0.721742
H	-0.088841	-1.229322	1.753215
H	0.042127	-2.123373	0.24121
C	-0.529255	1.186332	0.642297
N	-0.979247	2.138918	1.166753
F	2.535313	0.0	0.0
