14

C	-0.304981	-0.032435	-1.484897
C	0.0	0.0	0.0
F	-0.034678	1.19171	-2.07439
H	1.095885	0.0	0.0
H	0.364067	-0.771206	-1.937497
C	-1.707675	-0.37975	-1.803454
N	-2.816678	-0.688015	-2.037263
C	-0.386109	-1.317082	0.671551
H	-0.071093	-1.285293	1.715835
H	-1.457769	-1.540933	0.629053
H	0.174844	-2.125762	0.194179
C	-0.610801	1.1448	0.64097
N	-1.118832	2.056045	1.185132
F	2.540199	0.0	0.0
