14

C	-0.456932	0.005451	-1.450481
C	0.0	0.0	0.0
F	-0.055036	-1.168944	-2.073804
H	1.095828	0.0	0.0
H	-1.551565	0.041296	-1.542612
C	0.098247	1.143007	-2.206811
N	0.468903	2.051401	-2.850228
C	-0.44256	-1.277155	0.710271
H	-0.109352	-1.236475	1.748912
H	0.056153	-2.122828	0.236363
H	-1.528539	-1.435186	0.691455
C	-0.530259	1.182761	0.648635
N	-0.981282	2.132494	1.177966
F	2.532888	0.0	0.0
