14

C	-0.325312	-0.005267	-1.469883
C	0.0	0.0	0.0
F	-1.706806	0.007914	-1.737736
H	1.096853	0.0	0.0
H	0.099152	0.885152	-1.940182
C	0.225613	-1.198125	-2.136148
N	0.617662	-2.149086	-2.701646
C	-0.476884	-1.243256	0.7434
H	0.018376	-2.119605	0.320578
H	-1.560862	-1.381758	0.695164
H	-0.17499	-1.171887	1.790328
C	-0.506054	1.219886	0.597706
N	-0.908291	2.204777	1.099094
F	2.525451	0.0	0.0
