16

C	0.0	0.0	0.0
C	-0.405323	-0.051953	-1.494717
Br	1.968678	0.0	0.0
H	0.165162	0.7546	-1.987274
H	-0.262998	0.986071	0.389893
C	-0.581114	-1.09658	0.859288
H	-1.672471	-1.000996	0.837649
H	-0.301866	-2.075636	0.473048
H	-0.248862	-0.999337	1.895407
N	-1.79462	0.198478	-1.773564
H	-2.431445	-0.410444	-1.26429
H	-2.064915	1.134443	-1.498493
N	-0.097179	-1.372567	-2.032815
H	-0.52541	-1.413018	-2.950241
H	0.904533	-1.485634	-2.131524
Cl	-4.489975	0.0	0.0
