16

C	0.0	0.0	0.0
C	-0.584018	0.354032	-1.360913
Br	1.958503	0.0	0.0
H	-1.635	0.574627	-1.130726
H	-0.254882	0.825575	0.665086
C	-0.526664	-1.307081	0.548787
H	-0.21409	-1.450146	1.584615
H	-0.158406	-2.149587	-0.039602
H	-1.620692	-1.260423	0.50626
N	-0.46309	-0.782233	-2.290489
H	-1.111506	-1.502039	-1.981402
H	-0.832804	-0.464702	-3.181981
N	0.020443	1.558087	-1.889857
H	-0.571841	1.930394	-2.623503
H	0.921682	1.318764	-2.290527
Cl	-3.887335	0.0	0.0
