16

C	0.0	0.0	0.0
C	-0.440374	0.048677	-1.495088
Br	1.963253	0.0	0.0
H	0.361522	-0.402264	-2.088033
H	-0.282438	0.934112	0.490068
C	-0.502819	-1.189749	0.792139
H	-0.212384	-2.124484	0.312128
H	-0.107648	-1.166212	1.810902
H	-1.594393	-1.145004	0.829351
N	-0.587619	1.424262	-1.995602
H	0.239332	1.965895	-1.758401
H	-1.385013	1.841676	-1.523494
N	-1.619162	-0.749363	-1.699945
H	-1.88908	-0.662469	-2.672608
H	-2.418522	-0.432655	-1.142628
Cl	-4.29132	0.0	0.0
