16

C	0.0	0.0	0.0
C	-0.408274	-0.267217	-1.470474
Br	1.97072	0.0	0.0
H	0.182155	0.437909	-2.078936
H	-0.25996	1.03289	0.244529
C	-0.585903	-0.958367	1.007173
H	-0.316948	-1.984722	0.762935
H	-1.675966	-0.855257	0.966557
H	-0.25415	-0.718394	2.019991
N	-1.789457	-0.024408	-1.789221
H	-2.454394	-0.496556	-1.178858
H	-2.014854	0.958675	-1.707683
N	-0.132619	-1.661882	-1.798683
H	-0.558264	-1.830783	-2.701922
H	0.866486	-1.81381	-1.869958
Cl	-4.47244	0.0	0.0
