16

C	0.0	0.0	0.0
C	-0.549452	-0.321771	-1.376915
Br	1.973828	0.0	0.0
H	-1.635885	-0.26884	-1.224857
H	-0.260236	1.034928	0.218425
C	-0.505452	-0.937843	1.071801
H	-0.193072	-1.960192	0.860483
H	-1.598832	-0.882339	1.051592
H	-0.145076	-0.635628	2.057985
N	-0.221745	-1.694356	-1.753209
H	0.740606	-1.737701	-2.071885
H	-0.824394	-1.980503	-2.515106
N	-0.186826	0.736434	-2.317231
H	0.784289	0.626514	-2.590055
H	-0.761209	0.647948	-3.147248
Cl	-3.890979	0.0	0.0
