16

C	0.0	0.0	0.0
C	-0.530801	-0.206071	-1.417807
Br	1.973658	0.0	0.0
H	-1.615678	-0.282064	-1.272804
H	-0.275314	1.002036	0.331935
C	-0.493516	-1.047942	0.972894
H	-1.586777	-1.008396	0.952902
H	-0.158665	-2.036749	0.660041
H	-0.141919	-0.842446	1.986832
N	-0.055169	-1.467341	-1.959424
H	-0.56923	-1.625342	-2.818622
H	0.921387	-1.360822	-2.216249
N	-0.297966	0.924263	-2.32023
H	0.642994	1.28083	-2.179266
H	-0.95124	1.664002	-2.085015
Cl	-3.81566	0.0	0.0
