16

C	0.0	0.0	0.0
C	-0.415876	-0.367455	-1.444512
Br	1.970149	0.0	0.0
H	0.204424	0.259948	-2.10498
H	-0.259815	1.047876	0.167187
C	-0.580364	-0.876487	1.081796
H	-0.309081	-1.918411	0.921986
H	-0.246569	-0.55243	2.069709
H	-1.671155	-0.783355	1.037237
N	-1.78404	-0.090742	-1.786692
H	-1.950095	0.904634	-1.840131
H	-2.473389	-0.447341	-1.12441
N	-0.193198	-1.793928	-1.659981
H	-0.645388	-2.022327	-2.53676
H	0.798308	-1.984574	-1.740335
Cl	-4.459526	0.0	0.0
