18

C	-0.027682	0.001374	-0.027735
C	-0.311487	0.070527	-1.551988
Cl	1.789622	0.046045	0.13694
H	0.324107	-0.69143	-2.01964
C	-0.606305	1.176702	0.735192
H	-1.698454	1.135766	0.677713
H	-0.239399	2.126063	0.340101
H	-0.324732	1.105597	1.788341
C	-0.52345	-1.318402	0.533787
H	-0.18068	-1.433867	1.56426
H	-0.145019	-2.16209	-0.051841
H	-1.617078	-1.312963	0.534169
C	0.133963	1.367293	-2.097832
N	0.479287	2.400413	-2.535619
N	-1.679821	-0.176199	-1.964692
H	-1.886837	-1.160945	-1.853408
H	-2.357569	0.294559	-1.365035
Cl	-4.048868	-0.102638	0.367868
