18

C	-0.03022	-0.001363	-0.026643
C	-0.314335	-0.159052	-1.544276
Cl	1.787962	0.037229	0.132258
H	0.313261	-0.988763	-1.891951
C	-0.588207	1.285183	0.548861
H	-0.307791	1.368699	1.601439
H	-1.680807	1.253674	0.494533
H	-0.205191	2.157846	0.016298
C	-0.547739	-1.212693	0.726863
H	-0.184114	-2.141635	0.276519
H	-0.206873	-1.176691	1.763769
H	-1.641018	-1.188917	0.722685
C	0.144832	1.035951	-2.278654
N	0.504916	1.985169	-2.868211
N	-1.685608	-0.451569	-1.91604
H	-1.895536	-1.411502	-1.67253
H	-2.360613	0.10031	-1.385415
Cl	-4.052652	0.054077	0.363695
