16

C	0.0	0.0	0.0
C	-0.497803	-0.216368	-1.433631
F	1.381595	0.0	0.0
H	-1.592246	-0.108408	-1.39116
N	-0.477864	1.244921	0.494218
H	-1.500839	1.22173	0.414015
H	-0.246051	1.330337	1.478721
C	-0.34902	-1.176668	0.850236
N	-0.527842	-2.089404	1.568462
C	-0.139267	-1.59785	-1.983096
H	0.93357	-1.783979	-1.903624
H	-0.68255	-2.363907	-1.428195
H	-0.429854	-1.66548	-3.032964
C	0.054212	0.8358	-2.286577
N	0.488329	1.623265	-3.041979
Br	-3.663664	0.0	0.0
