16

C	0.0	0.0	0.0
C	-0.485035	0.185505	-1.443804
F	1.387468	0.0	0.0
H	-1.577206	0.30029	-1.383198
N	-0.478304	1.061621	0.812741
H	-1.501486	1.058445	0.733939
H	-0.239861	0.88216	1.78221
C	-0.343459	-1.364422	0.498357
N	-0.535657	-2.427379	0.960409
C	-0.142731	-1.005409	-2.339508
H	-0.709897	-1.879779	-2.017249
H	-0.415845	-0.782876	-3.372677
H	0.924605	-1.230507	-2.300053
C	0.105183	1.414424	-1.975699
N	0.582661	2.360779	-2.480739
Br	-3.649108	0.0	0.0
