16

C	0.0	0.0	0.0
C	-0.350247	0.044244	-1.547134
F	1.374708	0.0	0.0
H	0.630719	-0.041298	-2.028477
N	-0.477932	1.046952	0.832904
H	-0.329968	1.937744	0.373569
H	-1.490793	0.910843	0.928172
C	-0.385607	-1.299044	0.60189
N	-0.524644	-2.355014	1.095566
C	-0.990105	1.356501	-1.998294
H	-1.947351	1.493678	-1.495463
H	-0.317163	2.195382	-1.794427
H	-1.16058	1.323412	-3.077177
C	-1.09773	-1.115415	-2.038007
N	-1.559698	-2.058303	-2.565318
Br	-3.589291	0.0	0.0
