16

C	0.0	0.0	0.0
C	-0.453714	-0.12542	-1.4724
F	1.382583	0.0	0.0
H	-1.553191	-0.076772	-1.433573
N	-0.465928	1.149892	0.700598
H	-0.299561	1.971361	0.126906
H	-1.479783	1.043842	0.806062
C	-0.391308	-1.22186	0.744663
N	-0.549937	-2.229519	1.324895
C	0.003966	-1.418936	-2.146735
H	-0.312837	-1.431098	-3.191389
H	1.090477	-1.517002	-2.105967
H	-0.452267	-2.272766	-1.642527
C	0.045525	1.044713	-2.19324
N	0.460421	1.979585	-2.771518
Br	-3.638013	0.0	0.0
