16

C	0.0	0.0	0.0
C	-0.387106	0.410809	-1.461004
F	1.388912	0.0	0.0
H	0.590559	0.423687	-1.956974
N	-0.472766	0.920088	0.971839
H	-0.249911	0.559575	1.894423
H	-1.497784	0.927628	0.888104
C	-0.328943	-1.424253	0.291252
N	-0.458289	-2.549446	0.605206
C	-0.990491	1.809264	-1.604351
H	-1.987809	1.836323	-1.16783
H	-1.063076	2.052132	-2.668151
H	-0.346518	2.538761	-1.111632
C	-1.144742	-0.607645	-2.19465
N	-1.5869	-1.427767	-2.909277
Br	-3.585927	0.0	0.0
