17

C	0.0	0.0	0.0
C	-0.295421	-0.095703	-1.553599
Cl	1.774441	0.0	0.0
H	0.388995	-0.878227	-1.883459
C	-0.460984	1.22803	0.72645
H	-0.072093	2.098519	0.193178
H	-0.063588	1.227227	1.741366
H	-1.559287	1.241716	0.731277
N	-0.474181	-1.273993	0.664027
O	-0.705844	-1.199221	1.874067
O	-0.555159	-2.268489	-0.043746
C	0.247639	1.166345	-2.141625
N	0.539895	2.157557	-2.689046
N	-1.612745	-0.400705	-1.965281
H	-2.306201	-0.279207	-1.189998
H	-1.869609	-0.04492	-2.885751
H	-3.078861	0.0	0.0
