17

C	0.0	0.0	0.0
C	-0.332764	-0.09321	-1.539677
Cl	1.774316	0.0	0.0
H	0.333758	-0.885169	-1.913589
C	-0.553749	1.174245	0.754874
H	-1.602439	0.939589	0.966219
H	-0.489647	2.083492	0.150185
H	0.027615	1.306644	1.672713
N	-0.437664	-1.274818	0.716223
O	-0.471943	-1.201955	1.938243
O	-0.656264	-2.27865	0.044309
C	0.203168	1.158223	-2.104475
N	0.666052	2.039026	-2.729885
N	-1.707794	-0.365749	-1.908284
H	-2.357318	-0.231357	-1.047819
H	-1.993454	0.343016	-2.572037
H	-3.204459	0.0	0.0
