17

C	0.0	0.0	0.0
C	-0.35983	-0.216187	-1.500812
Cl	1.797394	0.0	0.0
H	0.251377	-1.075409	-1.809687
C	-0.595273	1.216462	0.639902
H	-0.230798	1.33	1.660052
H	-1.686335	1.076833	0.637945
H	-0.326089	2.096639	0.052983
N	-0.382932	-1.257929	0.777089
O	-0.394086	-2.316487	0.160505
O	-0.578324	-1.123967	1.979561
C	0.166802	0.953715	-2.228492
N	0.530202	1.880341	-2.854452
N	-1.757313	-0.442789	-1.791107
H	-2.435352	-0.310498	-0.956642
H	-2.079639	0.22548	-2.481551
H	-3.454884	0.0	0.0
