17

C	0.0	0.0	0.0
C	-0.571946	0.035771	-1.40985
Cl	1.774038	0.0	0.0
H	-1.679072	-0.032672	-1.195377
C	-0.425096	1.244116	0.764263
H	-1.501997	1.372547	0.647975
H	-0.190782	1.103845	1.820267
H	0.100787	2.111868	0.370405
N	-0.610206	-1.197485	0.619866
O	-0.326395	-2.306178	0.102455
O	-1.768076	-0.889677	1.142508
C	-0.168971	-1.092748	-2.256543
N	0.126833	-1.826502	-3.129049
N	-0.322499	1.317385	-2.059628
H	-0.926416	1.385483	-2.871173
H	0.635222	1.331801	-2.393199
H	-2.879404	0.0	0.0
