16

C	-0.63891	0.028581	-1.388658
C	0.0	0.0	0.0
Cl	0.154631	-1.313077	-2.410172
H	1.096577	0.0	0.0
N	-2.043117	-0.156226	-1.283863
H	-2.180831	-0.954006	-0.669085
H	-2.472102	-0.307729	-2.187516
C	-0.34626	1.272221	-2.106478
N	-0.176753	2.243419	-2.74429
N	-0.485345	-1.252352	0.651682
H	-0.302296	-1.113574	1.640245
H	0.172126	-1.974714	0.364832
N	-0.445562	1.18518	0.691275
H	0.24672	1.432779	1.385267
H	-1.36181	1.068863	1.107403
F	2.639082	0.0	0.0
