16

C	-0.184031	-0.065316	-1.533746
C	0.0	0.0	0.0
Cl	-0.003759	1.598099	-2.251911
H	1.102079	0.0	0.0
N	0.860408	-0.892625	-2.099195
H	0.642368	-1.838374	-1.795447
H	1.713153	-0.624309	-1.568517
C	-1.517731	-0.538441	-1.925369
N	-2.588106	-0.939448	-2.197038
N	-0.422838	-1.294736	0.506651
H	-1.365023	-1.217631	0.875098
H	0.210939	-1.578451	1.242742
N	-0.719267	1.087349	0.660029
H	-0.445783	1.959409	0.220588
H	-0.347269	1.12969	1.604817
F	2.708608	0.0	0.0
