16

C	-0.114178	0.1495	-1.526504
C	0.0	0.0	0.0
Cl	-1.759059	0.842922	-2.058447
H	1.104677	0.0	0.0
N	0.933684	1.029912	-1.936543
H	1.780547	0.763447	-1.385506
H	1.109439	0.954335	-2.931008
C	-0.075243	-1.163287	-2.195334
N	0.039316	-2.153299	-2.81944
N	-0.630264	-1.212382	0.470728
H	-1.452194	-0.946206	0.999722
H	0.008124	-1.659111	1.116267
N	-0.39432	1.203337	0.722875
H	0.438286	1.768792	0.840827
H	-1.057835	1.74676	0.181932
F	2.695452	0.0	0.0
