16

C	-0.332232	-0.041838	-1.498345
C	0.0	0.0	0.0
Cl	0.057079	1.53642	-2.263629
H	1.094848	0.0	0.0
N	0.470765	-1.059272	-2.153677
H	0.212098	-1.920198	-1.674946
H	1.418314	-0.850679	-1.815552
C	-1.773014	-0.269219	-1.693222
N	-2.933617	-0.453778	-1.731639
N	-0.377221	-1.320779	0.528409
H	-1.254292	-1.279134	1.033589
H	0.354256	-1.607383	1.166256
N	-0.537869	1.155038	0.68041
H	0.102828	1.420388	1.416159
H	-1.446645	0.96353	1.086723
F	2.642845	0.0	0.0
