16

C	-0.541548	0.008631	-1.399448
C	0.0	0.0	0.0
Cl	-2.568396	-0.091515	-1.183749
H	1.095545	0.0	0.0
N	-0.210834	1.145988	-2.094105
H	-0.667473	1.258208	-2.986165
H	-0.267235	1.944993	-1.471206
C	-0.312878	-1.215742	-2.156992
N	-0.095663	-2.175243	-2.798438
N	-0.39699	-1.21107	0.678239
H	0.295563	-1.416085	1.387017
H	-1.319312	-1.138927	1.092995
N	-0.337896	1.292803	0.605466
H	-1.210478	1.238056	1.119789
H	0.419169	1.521937	1.238747
F	2.585264	0.0	0.0
