16

C	-0.56769	-0.001579	-1.391669
C	0.0	0.0	0.0
Cl	-2.568061	-0.082229	-1.149734
H	1.094566	0.0	0.0
N	-0.230443	1.130061	-2.103433
H	-0.270631	1.929774	-1.481286
H	-0.720156	1.245293	-2.977745
C	-0.343964	-1.23446	-2.140004
N	-0.153086	-2.205811	-2.772327
N	-0.391148	-1.204435	0.69684
H	0.326054	-1.413196	1.379648
H	-1.294587	-1.117962	1.148291
N	-0.326469	1.298301	0.601808
H	0.449473	1.536325	1.208608
H	-1.181624	1.245936	1.14442
F	2.587097	0.0	0.0
