15

C	0.0	0.0	0.0
C	-0.482108	-0.326912	-1.440023
F	1.358703	0.0	0.0
H	0.450842	-0.310539	-2.018536
H	-0.383055	-0.673872	0.758979
N	-0.31653	1.39217	0.489899
O	-0.081739	2.321451	-0.283954
O	-0.638646	1.521856	1.666757
N	-1.442698	0.532237	-2.100327
H	-2.262582	0.52217	-1.466684
H	-1.081019	1.479005	-2.135458
N	-0.977541	-1.697661	-1.356747
H	-1.257634	-1.940865	-2.302002
H	-1.852948	-1.5911	-0.831237
H	-2.996121	0.0	0.0
