15

C	0.0	0.0	0.0
C	-0.342156	0.059489	-1.504289
F	1.36503	0.0	0.0
H	0.446948	0.712614	-1.906
H	-0.403505	-0.854328	0.541747
N	-0.346367	1.220474	0.79662
O	-0.196217	2.30845	0.255325
O	-0.628608	1.05078	1.978778
N	-1.632559	0.56609	-1.823228
H	-1.892441	0.199158	-2.73023
H	-2.363886	0.301551	-1.105785
N	-0.079363	-1.275957	-2.081479
H	0.849434	-1.592351	-1.818154
H	-0.765421	-1.920446	-1.697917
H	-3.328068	0.0	0.0
