15

C	0.0	0.0	0.0
C	-0.416705	-0.261768	-1.444689
F	1.363462	0.0	0.0
H	-1.497281	-0.129706	-1.486155
H	-0.378782	-0.803541	0.651536
N	-0.577428	1.209832	0.57064
O	-1.743376	1.442097	0.038304
O	-0.288406	1.416192	1.779774
N	-0.123763	-1.652525	-1.841463
H	-0.791594	-2.254696	-1.368218
H	0.797926	-1.900316	-1.49213
N	0.244329	0.695308	-2.31128
H	0.048455	0.414224	-3.265329
H	1.245132	0.61728	-2.173923
H	-2.813833	0.0	0.0
