15

C	0.0	0.0	0.0
C	-0.585676	0.100901	-1.402036
F	1.351218	0.0	0.0
H	-1.422043	0.798696	-1.329587
H	-0.381766	-0.847741	0.559705
N	-0.32807	1.21934	0.841174
O	-0.26424	1.052798	2.058977
O	-0.487679	2.298495	0.281224
N	-1.065934	-1.246702	-1.733165
H	-1.403397	-1.199959	-2.692484
H	-1.921282	-1.302411	-1.153562
N	0.403349	0.623944	-2.32747
H	-0.077328	0.943256	-3.159101
H	1.027241	-0.129685	-2.593333
H	-2.999733	0.0	0.0
