15

C	0.0	0.0	0.0
C	-0.415838	-0.055069	-1.479983
F	1.361066	0.0	0.0
H	0.432377	-0.634051	-1.888661
H	-0.385218	-0.861077	0.539818
N	-0.355223	1.200493	0.839092
O	-0.81315	0.980479	1.95539
O	-0.022559	2.305699	0.412491
N	-0.453139	1.27769	-2.108899
H	0.277206	1.87205	-1.734987
H	-0.268101	1.142148	-3.096686
N	-1.599568	-0.847244	-1.641834
H	-1.923418	-0.741218	-2.599297
H	-2.375762	-0.475656	-1.009164
H	-3.394826	0.0	0.0
