17

C	-0.338037	-0.088911	-1.501756
C	0.0	0.0	0.0
Cl	-2.056928	-0.465557	-1.773347
H	1.096595	0.0	0.0
N	-0.068159	1.310051	-2.088195
O	-0.96662	2.143452	-2.045952
O	1.073212	1.493942	-2.48932
N	0.468303	-1.010034	-2.234381
H	1.44238	-0.849585	-1.97017
H	0.21213	-1.951232	-1.957377
C	-0.425001	-1.247989	0.625424
N	-0.781088	-2.243088	1.139128
C	-0.537401	1.2128	0.75172
H	-1.620208	1.30481	0.648192
H	-0.282429	1.115088	1.80808
H	-0.063211	2.12094	0.379441
Cl	3.269165	0.0	0.0
