17

C	-0.398873	0.000949	-1.472549
C	0.0	0.0	0.0
Cl	-2.225106	0.457875	-1.623365
H	1.094586	0.0	0.0
N	0.275207	1.130121	-2.261287
O	0.179059	1.04344	-3.481326
O	0.841606	2.017371	-1.643502
N	-0.073889	-1.170124	-2.132171
H	-0.300761	-1.143845	-3.115191
H	-0.387801	-2.007458	-1.665544
C	-0.448476	-1.265617	0.571974
N	-0.830146	-2.281588	1.023223
C	-0.506061	1.162743	0.855271
H	-1.583922	1.110778	1.012355
H	-0.24861	2.108754	0.386463
H	0.003489	1.114053	1.819202
Cl	3.22728	0.0	0.0
