17

C	-0.290302	-0.106162	-1.505885
C	0.0	0.0	0.0
Cl	-1.983511	-0.568935	-1.880193
H	1.097009	0.0	0.0
N	-0.148093	1.347813	-2.109858
O	0.924026	1.583955	-2.65634
O	-1.071186	2.141091	-1.965767
N	0.606514	-1.01125	-2.070742
H	0.585966	-1.008983	-3.081028
H	1.55214	-0.849891	-1.718359
C	-0.451031	-1.227939	0.645882
N	-0.823359	-2.177889	1.22807
C	-0.539197	1.227525	0.725285
H	-0.037294	2.127223	0.370217
H	-1.616514	1.338102	0.587283
H	-0.321181	1.122031	1.7895
Cl	3.276872	0.0	0.0
