17

C	-0.553079	0.015886	-1.421032
C	0.0	0.0	0.0
Cl	0.183704	1.325697	-2.368616
H	1.092282	0.0	0.0
N	-0.116311	-1.282992	-2.174056
O	-0.747974	-1.522206	-3.20127
O	0.790328	-1.95462	-1.704883
N	-1.962499	0.147644	-1.46015
H	-2.381357	-0.568241	-0.875194
H	-2.284182	0.030108	-2.413704
C	-0.519425	-1.191067	0.668078
N	-1.02959	-2.118287	1.178776
C	-0.423704	1.251701	0.781225
H	0.019706	1.19871	1.776308
H	-0.02468	2.135611	0.284993
H	-1.507173	1.341406	0.862188
Cl	3.30262	0.0	0.0
