17

C	-0.335283	-0.087865	-1.502307
C	0.0	0.0	0.0
Cl	-2.041997	-0.512253	-1.77864
H	1.095105	0.0	0.0
N	-0.109276	1.321603	-2.083288
O	1.013829	1.535959	-2.517249
O	-1.02421	2.133973	-2.012779
N	0.496359	-0.980442	-2.240344
H	1.465644	-0.79398	-1.97594
H	0.268996	-1.928381	-1.964009
C	-0.415513	-1.251935	0.625142
N	-0.763778	-2.250184	1.137965
C	-0.543865	1.205811	0.757198
H	-0.076991	2.119455	0.389563
H	-0.286518	1.10337	1.812527
H	-1.627473	1.291192	0.65606
Cl	3.270061	0.0	0.0
