17

C	-0.56892	0.071273	-1.431355
C	0.0	0.0	0.0
Cl	0.085938	1.492058	-2.247177
H	1.094739	0.0	0.0
N	-0.096771	-1.187424	-2.186121
O	0.937302	-1.146654	-2.830539
O	-0.821551	-2.167975	-2.024504
N	-1.999229	0.083898	-1.571275
H	-2.384522	-0.722239	-1.09276
H	-2.362033	0.933797	-1.160724
C	-0.492576	-1.208174	0.658413
N	-0.945415	-2.132004	1.227833
C	-0.415085	1.211058	0.847045
H	0.038524	1.105185	1.833273
H	-1.499462	1.28396	0.970214
H	-0.027859	2.126735	0.401221
Cl	3.275567	0.0	0.0
