17

C	-0.275286	-0.0156	-1.504004
C	0.0	0.0	0.0
Cl	-0.195636	-1.7313	-2.153603
H	1.097748	0.0	0.0
N	-1.718925	0.378612	-1.835417
O	-2.590614	-0.026853	-1.074849
O	-1.900872	1.045127	-2.848241
N	0.596305	0.875437	-2.125435
H	1.551957	0.723648	-1.796215
H	0.530097	0.853491	-3.132658
C	-0.519823	-1.142816	0.733311
N	-0.932905	-2.014095	1.404134
C	-0.443246	1.316682	0.649065
H	0.019906	1.389024	1.63449
H	-1.527969	1.367722	0.75983
H	-0.090794	2.151518	0.043469
Cl	3.275939	0.0	0.0
