17

C	-0.542621	0.049065	-1.425611
C	0.0	0.0	0.0
Cl	0.247408	1.343238	-2.352461
H	1.097548	0.0	0.0
N	-0.139969	-1.255015	-2.18983
O	-0.779912	-1.473597	-3.217955
O	0.752154	-1.950111	-1.729874
N	-1.946611	0.229602	-1.473876
H	-2.269925	0.127699	-2.428688
H	-2.395121	-0.468159	-0.889941
C	-0.535132	-1.193995	0.648767
N	-1.067664	-2.104882	1.168103
C	-0.414201	1.244722	0.797482
H	0.030076	1.175734	1.792051
H	-1.497354	1.342451	0.882261
H	-0.008447	2.132007	0.311457
Cl	3.297236	0.0	0.0
