17

C	-0.330793	-0.249599	-1.488237
C	0.0	0.0	0.0
Cl	-2.010686	-0.788166	-1.719654
H	1.098834	0.0	0.0
N	-0.177068	1.112376	-2.191071
O	-1.148968	1.856317	-2.249546
O	0.956551	1.372855	-2.570929
N	0.552232	-1.159602	-2.143235
H	0.36553	-2.093381	-1.796064
H	1.508582	-0.909693	-1.880318
C	-0.408648	-1.177662	0.759072
N	-0.743917	-2.111667	1.388358
C	-0.551874	1.279175	0.618431
H	-0.087839	2.14809	0.150773
H	-0.295715	1.297711	1.679017
H	-1.636214	1.346165	0.507469
Cl	3.275951	0.0	0.0
