17

C	-0.247847	0.117952	-1.503879
C	0.0	0.0	0.0
Cl	-0.125491	-1.539639	-2.292884
H	1.105755	0.0	0.0
N	-1.682848	0.522013	-1.850508
O	-1.84722	1.155393	-2.887864
O	-2.567449	0.15589	-1.085492
N	0.624599	1.069763	-2.029795
H	1.579261	0.889566	-1.708873
H	0.566058	1.13698	-3.036159
C	-0.534557	-1.201776	0.617623
N	-0.972393	-2.12416	1.197248
C	-0.435473	1.254209	0.766384
H	0.018805	1.225685	1.758532
H	-0.064265	2.138251	0.247668
H	-1.519933	1.309879	0.871041
Cl	3.282116	0.0	0.0
