17

C	-0.539305	-0.333138	-1.385872
C	0.0	0.0	0.0
Cl	0.3762	0.651312	-2.611819
H	1.105515	0.0	0.0
N	-0.226761	-1.780601	-1.781434
O	0.614074	-2.383523	-1.132922
O	-0.848698	-2.207837	-2.751739
N	-1.94153	-0.206353	-1.484526
H	-2.222195	0.746157	-1.29457
H	-2.250305	-0.483675	-2.408538
C	-0.514775	-0.961901	0.971745
N	-0.965951	-1.673526	1.790132
C	-0.40734	1.415266	0.437171
H	-0.090701	2.143183	-0.31093
H	-1.481252	1.505049	0.624416
H	0.121746	1.644522	1.36281
Cl	3.304329	0.0	0.0
