17

C	-0.543041	0.003333	-1.42645
C	0.0	0.0	0.0
Cl	0.207897	1.301814	-2.378377
H	1.091797	0.0	0.0
N	-0.104195	-1.303952	-2.164108
O	0.775662	-1.989169	-1.666909
O	-0.712198	-1.539548	-3.208094
N	-1.952797	0.140731	-1.478483
H	-2.266132	0.024229	-2.435026
H	-2.380927	-0.572274	-0.896103
C	-0.528286	-1.179805	0.680228
N	-1.049264	-2.093136	1.205324
C	-0.423678	1.262103	0.763781
H	0.010753	1.217232	1.764133
H	-0.014866	2.138628	0.261961
H	-1.508134	1.358257	0.834723
Cl	3.302735	0.0	0.0
