16
Coordinates from ORCA-job run
  C   0.82451011307504     -0.29934698054456     -0.03533860590905
  C   -0.57523274248723      0.28890935180550      0.23331895998830
  F   0.66858966669232     -1.59340282632083     -0.52000056163862
  H   -0.42119920023330      1.29588143370669      0.64212763423672
  N   1.54031145657934      0.44613428523166     -1.01817543151028
  H   2.50956764443632      0.15841272987195     -1.07212570558648
  H   1.49468739922337      1.43912505031117     -0.82988015376253
  C   1.55068756044221     -0.44117660205727      1.25551892748805
  N   2.12598187939479     -0.47021995054692      2.27963002656161
  N   -1.32793650591169     -0.46918059922807      1.21601734652822
  H   -0.87562823177572     -0.45544191410872      2.12251020021055
  H   -1.40665583242305     -1.43377681951248      0.91574155496752
  C   -1.37241252199307      0.37533035815429     -1.06132407726463
  H   -1.51372600180881     -0.62376330431997     -1.47889630444511
  H   -0.87027792775968      0.98365126618687     -1.81268051655111
  H   -2.35126675545084      0.79986452137068     -0.83744329331317
