16
Coordinates from ORCA-job run
  C   0.93067922727987     -0.09890385295844      0.38641749445845
  C   -0.59045552767915      0.09871488273219      0.38792912263189
  F   1.22571853329325     -0.78542016589377      1.59670381957544
  H   -0.82263457630473      0.62325698565442      1.32578216752563
  N   1.34360118545893     -0.80931548085606     -0.75190329719631
  H   0.75473462015804     -1.62815723335052     -0.85485555790489
  H   2.32452565742905     -1.05188702476864     -0.71975817195719
  C   1.64320509432298      1.18898110489304      0.48501555295450
  N   2.18444097686324      2.22691341308259      0.56987024374313
  N   -1.17080988913516     -1.24095005887819      0.32427490004394
  H   -2.15225537564479     -1.18097765564594      0.08460867561485
  H   -1.09292348073863     -1.69318387045272      1.22691553458461
  C   -1.05390466025186      0.93087164520470     -0.79454646615881
  H   -0.56554513315767      1.90678169876547     -0.80664267147709
  H   -2.13262994856921      1.09816473268981     -0.73200943768821
  H   -0.82674670332415      0.41511087978207     -1.72780190874993
