16
Coordinates from ORCA-job run
  C   0.90969048863863     -0.21269644614970      0.48712517766293
  C   -0.59502808366825      0.09264345624466      0.41039293855780
  F   1.09310883120788     -0.82469769189560      1.75699152475754
  H   -0.84899248307335      0.58981092098083      1.35733252301953
  N   1.33743631008447     -1.05209455840442     -0.53920494977085
  H   2.16718896553419     -0.82094203755304     -1.05234479736645
  H   0.59897230048109     -1.53406502343394     -1.02534514076192
  C   1.70223625910394      1.03003879792880      0.53611416364750
  N   2.31433592903602      2.03159089131138      0.55375858929216
  N   -1.25898765929898     -1.19607934960435      0.23598160635985
  H   -2.25272937715260     -1.05413771010545      0.10339278890034
  H   -1.13188190440796     -1.75911803625642      1.06936968667872
  C   -0.93708530173378      1.00619787470982     -0.75369327132593
  H   -0.43442573127605      1.97083278632325     -0.66520591810588
  H   -2.01402597687396      1.19329224579442     -0.77563192380818
  H   -0.65181256660130      0.54142388010976     -1.69903299773720
