16
Coordinates from ORCA-job run
  C   0.93461881186093     -0.10076261986447      0.37692787718164
  C   -0.58561390862280      0.10269232633974      0.39375219569222
  F   1.23990890371744     -0.78275051675197      1.58712905398718
  H   -0.80560734081179      0.63261507554536      1.33151459330569
  N   1.33271177196684     -0.81780557705519     -0.76247309934485
  H   0.73948592547426     -1.63466750587421     -0.85606930783943
  H   2.31301911701356     -1.06396236600269     -0.73994689324996
  C   1.65281891354159      1.18494198628225      0.46209899566352
  N   2.19822593674868      2.22146827199033      0.53691218014523
  N   -1.17192084696183     -1.23495823761773      0.34242209482014
  H   -2.15580104937840     -1.17126648914640      0.11425245591495
  H   -1.08580243979531     -1.68352660200829      1.24624530737464
  C   -1.05867681216086      0.93089005907941     -0.78771389767577
  H   -0.84558748413906      0.40865453715577     -1.72071531794352
  H   -2.13566107682841      1.10445514020928     -0.71308372278219
  H   -0.56511842162484      1.90398251771883     -0.81125251524950
