16
Coordinates from ORCA-job run
  C   0.86632658091492      0.04777107669203      0.31532566678044
  C   -0.67277495487496     -0.01463318931349      0.29929841080690
  F   1.24874171647176      1.21640918241306      1.00131722310648
  H   -0.96076864319612     -0.12644211493321      1.35426043281045
  N   1.40451840071687     -1.11684206543055      0.91914477520486
  H   2.41688556889634     -1.11440059489622      0.90176439598523
  H   1.08477104622321     -1.18613794161836      1.87847364352245
  C   1.38714484230885      0.17435449491198     -1.06005503417957
  N   1.75825895653140      0.28220574083863     -2.16838129692883
  N   -1.18143649046949     -1.15793710930977     -0.43358964136799
  H   -0.67032631994396     -1.99427619018562     -0.17811193732457
  H   -1.06344679241480     -1.01236051276067     -1.43017882871704
  C   -1.28393985294750      1.26569624792296     -0.24358271071803
  H   -0.95401683417283      2.13634710995231      0.32174124416165
  H   -1.00847988823551      1.41031983283769     -1.29284804025606
  H   -2.37045733580818      1.18992603287922     -0.18557830288638
