16
Coordinates from ORCA-job run
  C   0.93483188995377     -0.12470751847740      0.07988467349196
  C   -0.52626867818619      0.25791780347362      0.32339145000299
  F   0.93969151643474     -1.50676947260555     -0.23958343661671
  H   -0.50816339244776      1.28226092975355      0.70865852686016
  N   1.53871871028645      0.65207928838232     -0.93643137343750
  H   1.08314561265823      0.49523607873416     -1.82593013999605
  H   2.52442441189406      0.43887296982475     -1.02346574305048
  C   1.72091926484255      0.00721595308831      1.32156059085508
  N   2.37649995307751      0.09444007228728      2.29048041443028
  N   -1.01684201771151     -0.60687318640666      1.38589248165941
  H   -1.13221763921936     -1.55038252549180      1.03644954774279
  H   -1.91430042730573     -0.27834016302649      1.71807723162965
  C   -1.33918001661389      0.21859628514040     -0.97170576481602
  H   -2.39226671526185      0.39072171004201     -0.73908836004482
  H   -1.25396499901008     -0.76169600390710     -1.44744081168648
  H   -1.03402747339094      0.99242777918860     -1.68074928702424
