16
Coordinates from ORCA-job run
  C   0.86602397892915     -0.35528372638888      0.01644635291811
  C   -0.52654748182078      0.28468027523428      0.12214879232018
  F   0.75243380562963     -1.67026575891184     -0.37607903676372
  H   -0.35658243251176      1.37051624282775      0.22352815562105
  N   1.65329435562254      0.31008720356094     -0.98301065437131
  H   1.75948001441555      1.29213057830312     -0.76067829849142
  H   2.57338363330042     -0.11115467693106     -1.03930506396397
  C   1.50584539329158     -0.36421682283216      1.36017623963603
  N   2.00788192850633     -0.26659221043114      2.41780931150263
  N   -1.21530006205677     -0.29713362717808      1.26426393682993
  H   -0.95001673848602      0.15598508730224      2.12997787317422
  H   -2.21638086988699     -0.20422343299874      1.15370627310654
  C   -1.31451678206076      0.01627494480605     -1.15067464016994
  H   -1.56752406338250     -1.04365271250262     -1.20001218951172
  H   -0.73482620152910      0.28282348794879     -2.03317267812854
  H   -2.23864847796051      0.60002514819135     -1.14512437370808
