16
Coordinates from ORCA-job run
  C   0.86419056874928     -0.33727583200797      0.06791499954580
  C   -0.51076857435451      0.31476695619918      0.22475801848168
  F   0.67289566798720     -1.68820319035141     -0.20111945521868
  H   -0.33269327306020      1.36151907427564      0.50220143399307
  N   1.58876584205137      0.20940102762827     -1.03978960121145
  H   2.52408482982365     -0.17939364195623     -1.07416216192334
  H   1.66119800415676      1.21593414556897     -0.95326210592546
  C   1.61139502764124     -0.27490441369219      1.35080648924827
  N   2.29280144990923     -0.15504177449292      2.29975151033242
  N   -1.14801184030858     -0.32891872566854      1.36498552148519
  H   -1.43772898281029     -1.26465080160324      1.10539755377689
  H   -1.97322986388756      0.18717278571279      1.64178676895915
  C   -1.29928000990711      0.25233887317274     -1.08132369720951
  H   -2.28660622407287      0.69534501129242     -0.92863611253749
  H   -0.79810390238607      0.78005261499703     -1.89341808550066
  H   -1.42990871953155     -0.78814210907453     -1.38589107629589
