16
Coordinates from ORCA-job run
  C   0.93917224165804     -0.15654954088651      0.46169650434543
  C   -0.58086756508720      0.07303574352308      0.43362877737402
  F   1.19811773427534     -0.72524400985640      1.73442399394134
  H   -0.82580827081882      0.58681095994805      1.37413619204949
  N   1.37953253882490     -1.00916374801456     -0.55610003301845
  H   2.12370558679696     -0.69289930797969     -1.15071380188421
  H   0.63524681577466     -1.52703426179885     -0.99718253244739
  C   1.66882316113233      1.12467581631881      0.44562104521999
  N   2.22903324585699      2.15573706667802      0.41169563035479
  N   -1.18493479029232     -1.25158715783544      0.32237862852292
  H   -2.18849024904597     -1.16351592241574      0.22101190171080
  H   -1.00090990047355     -1.78158184068008      1.16666214033890
  C   -1.00960460241001      0.93089098986093     -0.74404540816440
  H   -2.09466498457483      1.06359427815769     -0.73220359470186
  H   -0.55357571102409      1.92152007133546     -0.70403324429698
  H   -0.73577525059243      0.45031086364525     -1.68497619934440
