16
Coordinates from ORCA-job run
  C   0.81335460567775     -0.23398063904535      0.45417179884660
  C   -0.67353056079440      0.16717225776672      0.45267919805181
  F   1.05143325968774     -0.99878146907577      1.58614487258329
  H   -0.81599703548309      0.78303414773795      1.34783376269342
  N   1.12552802266814     -1.07233494478083     -0.67118686754831
  H   2.06535117588130     -1.43914126424106     -0.56850436578989
  H   1.08515497781248     -0.54209059858859     -1.53319332655457
  C   1.68358570751051      0.96394182220890      0.56937914047765
  N   2.35090336078700      1.93076051897228      0.59818805398224
  N   -1.54900309502886     -0.98409726431220      0.56200783158152
  H   -1.37400810800611     -1.45796303563896      1.44040934523189
  H   -1.31570414248853     -1.63937996638623     -0.17666144091470
  C   -1.03057486118122      0.98145421207636     -0.78214850170056
  H   -0.36754826974711      1.83903951169367     -0.91987140550684
  H   -0.99665044062233      0.35708439115338     -1.67960176858948
  H   -2.05329459667326      1.34428232045973     -0.68064632684409
