16
Coordinates from ORCA-job run
  C   0.80372930730269     -0.22132145534328      0.47744443831160
  C   -0.68563440540458      0.16803718784676      0.43384268194300
  F   1.01965582485240     -0.96915956961211      1.62479136852743
  H   -0.85509678446231      0.79512255059663      1.31641525141542
  N   1.14948533638594     -1.07201409659383     -0.62889764614491
  H   2.08967125410143     -1.42919477638250     -0.49899199095716
  H   1.12570721119090     -0.55306756909246     -1.49840782420055
  C   1.66218807292932      0.98461105259976      0.59739727912123
  N   2.32183537655183      1.95658194323333      0.62879800780673
  N   -1.55462745539560     -0.98866504284530      0.53774364826971
  H   -1.29775468736689     -1.65220420852548     -0.18557420860939
  H   -1.39786415117042     -1.44885559309503      1.42678004417374
  C   -1.01847437397600      0.96218340290434     -0.82073727052064
  H   -0.35778379434703      1.82212949234620     -0.95513496094955
  H   -0.95945231313499      0.32515247255008     -1.70796200469642
  H   -2.04558441805670      1.31966420941289     -0.74850681349026
