16
Coordinates from ORCA-job run
  C   0.93316825405923     -0.02681894130589      0.17509442249489
  C   -0.59001083187723     -0.05406100106457      0.31019753654183
  F   1.42338590415736      0.91539891178297      1.10075714225393
  H   -0.77402754942776     -0.39588122630198      1.34569199590786
  N   1.47227153886523     -1.31852518194116      0.41232803253548
  H   2.47127500382019     -1.34031713147163      0.24901405903456
  H   1.28350231843048     -1.59488957559307      1.36924065843525
  C   1.34270321189395      0.44588990508814     -1.16041797947082
  N   1.66453793120966      0.86361943628724     -2.20854138180508
  N   -1.09143544401425     -0.95196836241900     -0.71428272618392
  H   -0.73919301248919     -1.88938706802431     -0.57048678906510
  H   -2.10300803624455     -0.97101762537837     -0.70294481389814
  C   -1.20126243103591      1.32534811771468      0.13375492211383
  H   -2.28042029536740      1.27554596600736      0.30148562442759
  H   -0.77914752577414      2.03698878108702      0.84274185542323
  H   -1.03133903620568      1.68107499553256     -0.88463255874538
