16
Coordinates from ORCA-job run
  C   0.92687163966459     -0.14382484377260      0.48951278989965
  C   -0.59347456784232      0.07291395252499      0.41635701774369
  F   1.15465020268506     -0.69603117574029      1.77538783101012
  H   -0.86891830460812      0.59468021642777      1.34392102759546
  N   1.40289312364252     -1.00463259108184     -0.50545674382157
  H   0.67472035334176     -1.53269928691560     -0.96118883845712
  H   2.15857052476226     -0.68625761085695     -1.08437712715232
  C   1.64656919671530      1.14305142764512      0.47910332156775
  N   2.19927000427830      2.17824754882284      0.44917112099925
  N   -1.18361794622727     -1.25780807822449      0.30259253756411
  H   -2.18467255759388     -1.17900180669270      0.17309044648903
  H   -1.01874302507521     -1.77724724628388      1.15734426215269
  C   -0.99539235971846      0.91475234105618     -0.78217166096608
  H   -2.08165551587803      1.03553825724385     -0.80486006959876
  H   -0.55144637076774      1.91069092747798     -0.73775374836406
  H   -0.68762439737877      0.42862796836963     -1.70967216666184
