16
Coordinates from ORCA-job run
  C   0.94160540628070     -0.30494010030688      0.10251393982001
  C   -0.50707211166995      0.22790709686159      0.09551406414344
  F   0.88646767952386     -1.67328108332423     -0.11476754714379
  H   -0.41127594675277      1.32613512113244      0.07834036631649
  N   1.80282750941272      0.28574505524813     -0.87077234842158
  H   2.41299784439954      0.99573468704011     -0.49726094619854
  H   1.30233992727500      0.63095868019548     -1.67619961766797
  C   1.52898309020989     -0.09199395542380      1.44261153845766
  N   1.97402701644496      0.15038080341568      2.50116588305401
  N   -1.20731374344744     -0.27621249490371      1.26685232483858
  H   -2.20836009720519     -0.21811923553393      1.13159017276303
  H   -0.97222881541742      0.26032079847174      2.09306938857799
  C   -1.23915551122393     -0.23903902150068     -1.15556612000606
  H   -2.21502771411625      0.24948937323091     -1.21516023106192
  H   -0.70278030866561     -0.00535957858718     -2.07732073021461
  H   -1.38503422504810     -1.31772614601567     -1.10361013725672
