16
Coordinates from ORCA-job run
  C   0.84459277219028      0.14035553693507      0.41000306838874
  C   -0.68940885616270      0.05257000615771      0.33963231707134
  F   1.19526057831852      1.28192950314870      1.10793738432550
  H   -0.99625814426172      0.04152996549819      1.39099899190171
  N   1.39363725837738     -0.96808880450235      1.14060851033591
  H   2.39668864289511     -0.85047778102155      1.23383530542164
  H   1.22494041118988     -1.83215408464371      0.64165807906197
  C   1.40822332275666      0.27875658494262     -0.96063224539058
  N   1.82048730703035      0.30141392695438     -2.06081582603553
  N   -1.18611872073146     -1.15970035634761     -0.28283377136380
  H   -0.86302572749650     -1.26012860729054     -1.23741161572172
  H   -0.97146672188995     -1.99102964132844      0.24963181045617
  C   -1.27741677299436      1.26813184208550     -0.35935799550723
  H   -2.36290480568557      1.23998268971565     -0.26084296955598
  H   -1.03417771865031      1.25988005380403     -1.42587170834126
  H   -0.90205282488560      2.19602916589235      0.07346066495312
