16
Coordinates from ORCA-job run
  C   0.97106849783751     -0.01619680333949      0.20992371804967
  C   -0.55004067281456     -0.06808964891059      0.40671923938248
  F   1.44236571512576      0.94859131664706      1.13006489447565
  H   -0.66584216063871     -0.19906396491426      1.49037138749685
  N   1.57008752206201     -1.27627964784189      0.38330171905577
  H   1.13018331936681     -1.81245374135379      1.11754514929203
  H   2.57147527283615     -1.20909218488679      0.50603539826885
  C   1.33227752170721      0.51130089860561     -1.12626103508208
  N   1.57790132902941      0.91464665319488     -2.20094813200247
  N   -1.08579586164668     -1.26168659518172     -0.23651265314995
  H   -2.09698598002345     -1.25070042625549     -0.16680825919448
  H   -0.85112333940251     -1.26225298382421     -1.22382611464420
  C   -1.20513959393030      1.25012965467212      0.00309279081833
  H   -1.15882502654968      1.38858543868454     -1.08012813818615
  H   -2.25713134020194      1.24039683675180      0.29955991030393
  H   -0.72347520275703      2.10216519795222      0.48687012511577
