16
Coordinates from ORCA-job run
  C   0.87741450600712      0.09895168578844      0.38881853823713
  C   -0.66358277288624      0.06380491346114      0.28939901110592
  F   1.23085613229335      1.34191320081659      0.95592034061325
  H   -1.00821075163744      0.01268613289837      1.33181364338287
  N   1.37331767505603     -0.96401557664274      1.14380771245727
  H   0.77960537777112     -1.41488818115654      1.81446954735237
  H   2.23251397155567     -1.41977045401683      0.90276800321075
  C   1.46899835045991      0.08642776719227     -0.96478376311547
  N   1.89188497644525      0.05605376202542     -2.05963349712915
  N   -1.16674899943129     -1.10203374070071     -0.41434441396150
  H   -0.96697783916182     -1.02312773125950     -1.40531681450285
  H   -0.73051235511574     -1.95076352099411     -0.07678030547211
  C   -1.22073901230117      1.32333418202247     -0.35174410872750
  H   -2.30941863112391      1.25879984362140     -0.36896133188552
  H   -0.91991443728155      2.21436083771969      0.19635281462553
  H   -0.86848619064930      1.41826687922465     -1.38378537619098
