16
Coordinates from ORCA-job run
  C   0.92941135279309     -0.15999098080662      0.47958529705198
  C   -0.58734966490123      0.08476644052464      0.42224950156490
  F   1.16062317371097     -0.71435815691103      1.76415145793670
  H   -0.84311843409870      0.61305346796246      1.35174920609649
  N   1.37830108962677     -1.03071144614247     -0.51900048596378
  H   2.13583960039876     -0.72970433916761     -1.10461306745541
  H   0.63604208691767     -1.54574404782899     -0.96682402780031
  C   1.67274526870147      1.11325650428022      0.45966185940897
  N   2.24463812395193      2.13776869544672      0.42212755835205
  N   -1.20327943511398     -1.23500837675458      0.31747442426624
  H   -2.20392511797174     -1.13785293512765      0.19751375061166
  H   -1.03972653719771     -1.75542511570827      1.17189413911790
  C   -0.98676615176516      0.93174119960873     -0.77346137331483
  H   -0.70257810891028      0.43611913368472     -1.70345875759627
  H   -0.52051979503442      1.91779527413135     -0.73855931567448
  H   -2.07033745110743      1.07629468280838     -0.78149016660183
