16
Coordinates from ORCA-job run
  C   0.87107643508511     -0.33731673787394     -0.01104820167027
  C   -0.53596145118644      0.25736207888286      0.14687454774661
  F   0.79258746047418     -1.59297040656834     -0.57226620529507
  H   -0.39151365401201      1.32439471804288      0.38898951778201
  N   1.66293082463555      0.46574430089614     -0.89939634504970
  H   2.59217433066121      0.07126214816796     -0.98970379415355
  H   1.74581620017272      1.41194011490367     -0.54850113544325
  C   1.48830994625633     -0.50972640830197      1.33265301526182
  N   1.99232928875016     -0.54079458932505      2.39337584009695
  N   -1.23164317499363     -0.47831405307189      1.19224445832243
  H   -2.23243735154708     -0.39456587534436      1.07232769941000
  H   -0.99430095147988     -0.13069432447224      2.11309918558822
  C   -1.29564029729300      0.13883098690241     -1.16521584703247
  H   -2.23199407332781      0.69933887039200     -1.10381099072769
  H   -1.52500379630221     -0.91053665966321     -1.35481457083163
  H   -0.70672973589320      0.52704583643307     -1.99480717400445
