16
Coordinates from ORCA-job run
  C   0.98259519543711      0.08203972198878      0.32689359693580
  C   -0.54571595073214     -0.01923906089782      0.41522675740993
  F   1.39532729529858      1.18506643049272      1.06095686744582
  H   -0.73367374572476     -0.20270851020181      1.47851228580455
  N   1.56966211907096     -1.08751063637758      0.87952551937007
  H   2.54285819687588     -1.18454159873380      0.61999520885776
  H   1.03694158984391     -1.88823375121111      0.55775601401743
  C   1.37995571921818      0.35007078606099     -1.08226727741973
  N   1.65400110763481      0.49178135941689     -2.21604345831457
  N   -0.94403194700779     -1.21802969589295     -0.32011630704365
  H   -1.03017510335778     -1.00648308860835     -1.30896137979156
  H   -1.84718779102673     -1.54169152873862      0.00102764387521
  C   -1.23064440146808      1.26946665403028     -0.01938201730578
  H   -1.05399992462868      1.46364149013649     -1.08135342878408
  H   -2.30871360094811      1.18262127795190      0.13478590815860
  H   -0.86819875848536      2.12475015058399      0.55244406678419
