16
Coordinates from ORCA-job run
  C   0.88550908985037      0.02876653341321      0.25797931762673
  C   -0.65270645458650      0.01819699224708      0.34076420992778
  F   1.34767202569802      1.20648850586911      0.87693982897238
  H   -0.87573874579168     -0.04966008520209      1.41500174261942
  N   1.42416455158359     -1.13228900899438      0.86814634349132
  H   2.43301998230694     -1.16461403602538      0.78706513504178
  H   1.16430814550081     -1.15868990257915      1.84759405001702
  C   1.32188985014866      0.09230143280435     -1.15071291590579
  N   1.62544032486686      0.15267041315100     -2.28301865880474
  N   -1.24369335260754     -1.13069830567459     -0.31803546535273
  H   -0.74767172091061     -1.97549358658045     -0.06084826437760
  H   -1.17899775421533     -1.02544409333735     -1.32453865328652
  C   -1.25625650577118      1.29979553311204     -0.20741929711943
  H   -1.04441088747486      1.39930183400003     -1.27640647621051
  H   -2.33862083304774      1.26317696396906     -0.07860386347553
  H   -0.86290771554981      2.17719080982752      0.30409296683642
