16
Coordinates from ORCA-job run
  C   0.98247813815584      0.08798382095028      0.41898163712291
  C   -0.54206574665889     -0.07868758668476      0.28341914630111
  F   1.20932541581738      1.02901834384340      1.41155722471921
  H   -0.87658500102457     -0.40577683749714      1.27709056993947
  N   1.70515853676367     -1.09566698119016      0.78029591412032
  H   1.31000731791514     -1.46944628479318      1.63737165652245
  H   1.58108140173575     -1.78158523273063      0.04448307200165
  C   1.52811801158550      0.60961697003672     -0.85383284768741
  N   1.90720081300221      1.03647856071677     -1.87905676868063
  N   -0.76344625043222     -1.14080728426721     -0.69734850679247
  H   -1.23252916802402     -0.78424041224036     -1.51923768141025
  H   -1.32366128254027     -1.88922274780828     -0.31563801231763
  C   -1.23783804336932      1.22603897446428     -0.07584653089954
  H   -0.95019607176507      1.54565691180368     -1.08172031756499
  H   -2.32158818369080      1.08978877106566     -0.05513452886442
  H   -0.97345988747036      2.02085101433095      0.62261597349022
