16
Coordinates from ORCA-job run
  C   1.02569283207540      0.11133987548206      0.27461672113542
  C   -0.50747490445294      0.00093858174401      0.34645524238006
  F   1.39948969059736      1.27017936713481      0.92962810125692
  H   -0.72594548465319     -0.11736884517342      1.41500322740121
  N   1.75131111862758     -0.97245586727645      0.87570985580404
  H   1.35652445984644     -1.83645525845817      0.51756168912822
  H   1.58249983705454     -0.93973198347533      1.87632864132521
  C   1.42476771440299      0.22831229159348     -1.14842896904200
  N   1.66112088504511      0.30505534406548     -2.29553813626158
  N   -0.85999001456062     -1.25154540408397     -0.32057898757164
  H   -1.75004444675987     -1.59296126186380      0.01875014356893
  H   -0.95649539047906     -1.09522279165357     -1.31864414697362
  C   -1.21294910287694      1.24099087125344     -0.18810898763684
  H   -1.00242562378461      1.37281238175818     -1.25351167033948
  H   -2.29372119557156      1.13394148900586     -0.06740859036507
  H   -0.89336037451064      2.14117120994737      0.33916586619021
