16
Coordinates from ORCA-job run
  C   0.87293542535310      0.12321581933884      0.34448502666943
  C   -0.66346082515515      0.08965152234098      0.38509048087914
  F   1.31202354855009      1.27256176732623      0.97680070317139
  H   -0.89460036426555      0.12973492625759      1.45499192425679
  N   1.43510515979452     -0.98096581357334      1.07340922692581
  H   1.22509052727256     -1.85184533298491      0.60238467618276
  H   2.44394898665473     -0.88157625894960      1.10961751264911
  C   1.34335634357766      0.19587662842156     -1.06586799773405
  N   1.68301913435725      0.16477545300738     -2.19034467483973
  N   -1.24308124377017     -1.12714636872889     -0.15113868965547
  H   -0.99714334188311     -1.27148342197291     -1.12294738213592
  H   -1.00945918402721     -1.94456341059118      0.39484201854480
  C   -1.25910082166796      1.29841450174342     -0.31893122606215
  H   -2.33580883948097      1.31036384250690     -0.14817487922027
  H   -1.08778289140253      1.24520429895959     -1.39799133413109
  H   -0.82704161390726      2.22778184689833      0.05377461449946
