16

C	0.0	0.0	0.0
C	-0.335745	0.382187	-1.483787
Cl	1.793196	0.0	0.0
H	0.146316	-0.381809	-2.098808
C	-0.430531	1.008931	0.973393
N	-0.715887	1.777082	1.814735
N	-0.551271	-1.263842	0.38148
H	-1.558743	-1.143491	0.519585
H	-0.403288	-1.941658	-0.35897
N	0.39593	1.65729	-1.872768
O	1.159399	1.598698	-2.834733
O	0.123223	2.66894	-1.235745
N	-1.688877	0.545622	-1.835375
H	-2.084014	-0.294921	-2.228099
H	-2.31663	0.821649	-1.07854
Cl	-4.071628	0.0	0.0
