16

C	0.0	0.0	0.0
C	-0.363764	-0.097374	-1.524246
Cl	1.782628	0.0	0.0
H	0.013098	-1.068398	-1.854274
C	-0.422736	1.276821	0.589206
N	-0.736235	2.295051	1.083027
N	-0.558547	-1.070059	0.769381
H	-1.566192	-0.90984	0.858685
H	-0.407365	-1.951773	0.290232
N	0.440003	0.901394	-2.326791
O	1.184316	0.464436	-3.200732
O	0.24389	2.086968	-2.077276
N	-1.710214	0.07832	-1.905424
H	-2.1799	0.817132	-1.391761
H	-2.27085	-0.745322	-1.731398
Cl	-4.096096	0.0	0.0
