16

C	0.0	0.0	0.0
C	-0.376806	-0.004632	-1.515575
Cl	1.837871	0.0	0.0
H	0.093603	-0.89464	-1.939966
C	-0.420507	1.209941	0.709283
N	-0.720259	2.154936	1.338895
N	-0.541464	-1.12055	0.624805
H	-1.119865	-1.020862	1.438366
H	-0.217932	-2.034429	0.370668
N	0.304933	1.146573	-2.220033
O	1.077417	0.878322	-3.138139
O	-0.006134	2.275494	-1.851191
N	-1.747416	0.044777	-1.835312
H	-2.318362	0.625963	-1.221242
H	-2.170725	-0.870651	-1.766108
Cl	-4.286369	0.0	0.0
