14

C	0.0	0.0	0.0
C	-0.414044	0.055097	-1.492349
Br	1.937777	0.0	0.0
H	-1.44845	0.405925	-1.502898
H	-0.315794	-0.9052	0.503402
N	-0.634141	1.146937	0.691338
O	-0.627888	1.102458	1.935544
O	-0.66193	2.204911	0.020937
N	-0.457885	-1.350889	-2.050306
O	0.608953	-1.86946	-2.369821
O	-1.562146	-1.880699	-2.133813
C	0.423627	0.862925	-2.37104
N	0.965516	1.505526	-3.192708
H	-2.160533	0.0	0.0
