13

C	-0.531897	-0.091093	-1.414204
C	0.0	0.0	0.0
Br	-0.316032	1.720182	-2.313772
H	1.086202	0.0	0.0
H	0.169377	-0.699171	-1.986898
H	-0.353189	-0.895727	0.521091
N	-1.85276	-0.591753	-1.508686
H	-2.466778	-0.050684	-0.912771
H	-2.189204	-0.570145	-2.462249
N	-0.607592	1.136493	0.735766
O	0.114192	2.023312	1.174516
O	-1.841515	1.113626	0.87048
H	2.861828	0.0	0.0
