13

C	-0.53057	-0.075861	-1.405594
C	0.0	0.0	0.0
Br	0.06612	1.542172	-2.472836
H	1.086919	0.0	0.0
H	0.034725	-0.867403	-1.900478
H	-0.277777	-0.925077	0.514289
N	-1.927283	-0.317176	-1.505828
H	-2.421284	0.453009	-1.071935
H	-2.20984	-0.384161	-2.475632
N	-0.551996	1.080226	0.824918
O	-1.415811	1.838576	0.353429
O	-0.111954	1.172492	1.97086
H	2.706339	0.0	0.0
