13

C	-0.417	0.106832	-1.46571
C	0.0	0.0	0.0
Br	-0.385519	-1.667663	-2.331607
H	1.088865	0.0	0.0
H	-1.453282	0.428496	-1.582601
H	-0.354653	0.913479	0.487927
N	0.474032	0.990749	-2.167507
H	0.237778	1.947007	-1.924727
H	1.425978	0.80985	-1.831679
N	-0.650223	-1.106733	0.723874
O	0.001903	-2.111204	0.995124
O	-1.847686	-0.95087	0.999894
H	2.867794	0.0	0.0
