15

C	0.0	0.0	0.0
C	-0.276312	0.05536	-1.547742
Cl	1.75745	0.0	0.0
H	0.422522	-0.683051	-1.954306
H	-0.312225	0.867269	0.566682
N	-0.660074	-1.167156	0.596502
O	-0.673787	-1.207564	1.850588
O	-0.649099	-2.205693	-0.122525
C	0.155997	1.369838	-2.03543
N	0.452575	2.433415	-2.438446
C	-1.635807	-0.276405	-2.180835
H	-1.460137	-0.419089	-3.25718
H	-2.007949	-1.203646	-1.753043
H	-2.36548	0.51537	-2.040554
H	-2.055034	0.0	0.0
