15

C	0.0	0.0	0.0
C	-0.280554	0.03642	-1.5469
Cl	1.757446	0.0	0.0
H	0.401276	-0.723151	-1.940996
H	-0.309572	0.87711	0.553598
N	-0.67354	-1.151465	0.612214
O	-0.688324	-1.171995	1.867886
O	-0.660165	-2.203938	-0.091096
C	0.173594	1.333815	-2.058219
N	0.477335	2.38712	-2.481267
C	-1.65029	-0.272785	-2.166766
H	-2.36634	0.531522	-2.019341
H	-1.488631	-0.415805	-3.246349
H	-2.032555	-1.194402	-1.734712
H	-2.045872	0.0	0.0
