15

C	0.0	0.0	0.0
C	-0.28097	0.119537	-1.542538
Cl	1.757897	0.0	0.0
H	0.435485	-0.579627	-1.983157
H	-0.312041	0.843077	0.601989
N	-0.65221	-1.190929	0.553986
O	-0.62934	-2.204362	-0.202012
O	-0.669718	-1.275099	1.806165
C	0.119732	1.465713	-1.963841
N	0.383026	2.556396	-2.312404
C	-1.632107	-0.214448	-2.189598
H	-1.451606	-0.313346	-3.270559
H	-1.983267	-1.164937	-1.794925
H	-2.379321	0.55645	-2.022612
H	-2.05412	0.0	0.0
