15

C	0.0	0.0	0.0
C	-0.279042	0.122373	-1.541452
Cl	1.75739	0.0	0.0
H	0.433758	-0.582196	-1.981546
H	-0.31324	0.841242	0.60394
N	-0.654994	-1.191804	0.547819
O	-0.628324	-2.202368	-0.213461
O	-0.675485	-1.281716	1.799653
C	0.126695	1.466368	-1.963832
N	0.396679	2.554757	-2.314
C	-1.630921	-0.203253	-2.191296
H	-1.444419	-0.305374	-3.272716
H	-1.992048	-1.150612	-1.798991
H	-2.371352	0.574001	-2.026556
H	-2.053948	0.0	0.0
