17

C	-0.405746	0.081178	-1.48572
C	0.0	0.0	0.0
Cl	-0.042297	-1.61077	-2.213095
H	1.094789	0.0	0.0
C	-1.887476	0.306894	-1.696003
H	-2.158881	1.260995	-1.241542
H	-2.46102	-0.504911	-1.242509
H	-2.117653	0.328812	-2.764493
N	0.392679	1.079902	-2.082157
H	0.25433	1.114193	-3.083416
H	1.375341	0.919579	-1.871926
C	-0.51327	-1.206926	0.652196
N	-1.022815	-2.080584	1.251215
N	-0.448544	1.202066	0.711981
H	0.336695	1.562882	1.24007
H	-1.188359	0.975609	1.360229
Cl	3.329229	0.0	0.0
