17

C	-0.414076	0.055389	-1.472107
C	0.0	0.0	0.0
Cl	-2.288043	0.431057	-1.484085
H	1.095389	0.0	0.0
C	0.257562	1.214309	-2.16948
H	1.336966	1.052575	-2.10151
H	-0.055335	1.262899	-3.216044
H	-0.000846	2.144228	-1.668384
N	-0.147837	-1.162862	-2.113591
H	-0.60897	-1.9514	-1.679293
H	-0.359809	-1.128193	-3.100723
C	-0.48312	-1.243425	0.621417
N	-0.878823	-2.219979	1.14303
N	-0.395249	1.201169	0.718927
H	-1.342017	1.124692	1.068334
H	0.244162	1.333149	1.492815
Cl	3.327881	0.0	0.0
