17

C	-0.293919	-0.048118	-1.499785
C	0.0	0.0	0.0
Cl	-2.10201	-0.132023	-1.764727
H	1.100264	0.0	0.0
C	0.200679	1.219958	-2.172341
H	-0.294202	2.100544	-1.766986
H	1.275106	1.293725	-1.984548
H	0.020701	1.156695	-3.248769
N	0.28844	-1.267565	-1.997408
H	0.316816	-1.244496	-3.009543
H	1.246696	-1.316234	-1.652266
C	-0.471959	-1.215591	0.678429
N	-0.86443	-2.129713	1.303907
N	-0.469728	1.225324	0.626066
H	-1.419434	1.103053	0.954374
H	0.124153	1.424046	1.419364
Cl	3.310381	0.0	0.0
