17

C	-0.456141	-0.097176	-1.472081
C	0.0	0.0	0.0
Cl	0.002002	-1.728088	-2.073841
H	1.090288	0.0	0.0
C	-1.956077	0.061913	-1.623272
H	-2.487851	-0.703122	-1.053333
H	-2.250271	1.051733	-1.264843
H	-2.219583	-0.024183	-2.677802
N	0.237967	0.880652	-2.28292
H	1.236716	0.699155	-2.183659
H	0.07244	1.773265	-1.822641
C	-0.516666	-1.088244	0.833774
N	-0.995852	-1.895111	1.54186
N	-0.392326	1.319413	0.517203
H	-1.237501	1.258153	1.071093
H	0.35495	1.653033	1.114234
Cl	3.303009	0.0	0.0
