17

C	-0.487776	-0.010916	-1.455299
C	0.0	0.0	0.0
Cl	0.117941	1.482078	-2.250476
H	1.090111	0.0	0.0
C	0.0894	-1.186927	-2.23825
H	-0.208576	-1.128429	-3.289064
H	-0.292928	-2.121741	-1.818491
H	1.179523	-1.199608	-2.179748
N	-1.940533	0.078697	-1.483846
H	-2.262205	0.169181	-2.440298
H	-2.301721	-0.795876	-1.116245
C	-0.395922	-1.26355	0.703717
N	-0.275327	-1.933096	1.680599
N	-0.472189	1.104929	0.803403
H	-1.469215	1.219235	0.664727
H	-0.014693	1.94418	0.468592
Cl	2.692165	0.0	0.0
