17

C	-0.297595	-0.011945	-1.499856
C	0.0	0.0	0.0
Cl	-2.102178	-0.096255	-1.769468
H	1.098037	0.0	0.0
C	0.199769	1.270392	-2.144527
H	1.27454	1.340989	-1.951072
H	0.023063	1.230494	-3.223304
H	-0.296934	2.141634	-1.721705
N	0.286183	-1.221958	-2.023714
H	0.257595	-1.202532	-3.037253
H	1.263919	-1.241334	-1.731432
C	-0.477933	-1.229301	0.650374
N	-0.909495	-2.134381	1.263609
N	-0.466177	1.210726	0.655182
H	0.128015	1.39048	1.454921
H	-1.417955	1.088441	0.978809
Cl	3.313341	0.0	0.0
