16

C	-0.393816	-0.01123	-1.428453
C	0.0	0.0	0.0
Br	-0.070952	1.641937	-2.358684
H	1.095357	0.0	0.0
H	-0.336447	-0.958343	0.408657
N	0.358288	-1.159689	-2.124382
O	1.243641	-0.916944	-2.922586
O	-0.015727	-2.267293	-1.747518
N	-1.877519	-0.372076	-1.706828
O	-2.201112	-0.53081	-2.87865
O	-2.620528	-0.475942	-0.737579
C	-0.49936	1.168944	0.833343
H	-0.194506	0.994734	1.868879
H	-1.584939	1.299186	0.809039
H	-0.015809	2.094129	0.515499
F	2.58349	0.0	0.0
