16

C	-0.407557	0.020782	-1.419947
C	0.0	0.0	0.0
Br	-2.353455	0.171354	-1.754714
H	1.092858	0.0	0.0
H	-0.327343	-0.973444	0.382823
N	0.199857	1.146219	-2.26241
O	0.767715	2.047678	-1.664396
O	0.044851	1.061338	-3.47505
N	0.091103	-1.280259	-2.060054
O	1.200057	-1.229606	-2.572141
O	-0.609491	-2.274886	-1.915091
C	-0.527714	1.117381	0.88404
H	-1.616526	1.094905	1.001066
H	-0.068654	1.002427	1.868797
H	-0.229128	2.091722	0.501709
F	2.557262	0.0	0.0
