16

C	-0.435241	0.000831	-1.419751
C	0.0	0.0	0.0
Br	0.343206	1.475471	-2.388137
H	1.093227	0.0	0.0
H	-0.327251	0.956563	0.416886
N	-0.095913	-1.324856	-2.098599
O	0.884531	-1.40349	-2.818795
O	-0.852217	-2.243415	-1.788509
N	-1.956698	0.13943	-1.660262
O	-2.626953	0.565161	-0.727403
O	-2.376631	-0.148327	-2.7752
C	-0.483906	-1.166601	0.852791
H	-1.565436	-1.325978	0.831717
H	0.016794	-2.090834	0.561275
H	-0.182042	-0.955883	1.88192
F	2.588538	0.0	0.0
