16

C	-0.439414	-0.002604	-1.42135
C	0.0	0.0	0.0
Br	0.052627	1.630052	-2.318919
H	1.091668	0.0	0.0
H	-0.325816	0.960116	0.414265
N	0.127175	-1.153672	-2.26174
O	0.890908	-1.93028	-1.708684
O	-0.238688	-1.195446	-3.432221
N	-1.957719	-0.197964	-1.507236
O	-2.669658	0.779586	-1.317732
O	-2.343603	-1.361124	-1.599167
C	-0.54954	-1.150431	0.836498
H	-0.062351	-1.104936	1.813082
H	-0.300673	-2.114827	0.395706
H	-1.634567	-1.10454	0.989551
F	2.578012	0.0	0.0
