15
Coordinates from ORCA-job run
  C   0.18055353421902      0.66218368425847      0.15690486682630
  C   -0.47530503190764     -0.30234088311429     -0.78362959653744
  F   -0.69904743865410      1.42561461664620      0.81658682608699
  H   0.30690521761524     -0.80371441767969     -1.35399665394836
  H   -1.06477383477957      0.29304134147591     -1.48510096131934
  N   1.16254292569573      1.61487075392450     -0.51264688474367
  O   1.74857123758643      2.36824415943195      0.25484056544356
  O   1.25690167665806      1.56892014678383     -1.73268627874458
  N   1.02152913519219     -0.08989075789541      1.17467746762543
  O   0.64436906124229     -0.08519318020407      2.33520500924708
  O   1.98617145905721     -0.67270864590024      0.69394198458140
  C   -1.34911514975289     -1.30089933344226     -0.02784577731679
  H   -1.90861955190921     -1.90897247759391     -0.73962399571480
  H   -2.06353738647877     -0.79293602664195      0.62122419630941
  H   -0.74714585378398     -1.97621898004904      0.58314923220481
