15
Coordinates from ORCA-job run
  C   0.71293785379632      0.50304431838697     -0.16457224401611
  C   -0.11477760105417     -0.47164052691426     -0.95473024864967
  F   1.81762310458690      0.86529712097572     -0.83346716591085
  H   0.60553866117665     -1.19695245709693     -1.34585306093745
  H   -0.52018465987799      0.08219991925329     -1.80475542453852
  N   1.14174863659243     -0.11443583367754      1.15602994765419
  O   0.36918493809674      0.03331159503323      2.09478973562412
  O   2.17605975903959     -0.76476869630454      1.12728891429541
  N   0.00468584240350      1.79613276273260      0.20952482318638
  O   -1.16315308999892      1.92676212951288     -0.13785894509580
  O   0.70073364322777      2.60772521558248      0.80485236895294
  C   -1.22062963717776     -1.17644179650560     -0.17602848856675
  H   -1.79670649771342     -1.79830864082345     -0.86288810172808
  H   -0.81373443297308     -1.82862263562017      0.59792941058502
  H   -1.89932652012458     -0.46430247453468      0.28973847914518
