15
Coordinates from ORCA-job run
  C   0.46907385113400      0.17340338407607      0.46734540721934
  C   -0.22177925884797     -0.80277601231242     -0.43963398210523
  F   0.13062685580984      0.02109310390984      1.74724342770073
  H   0.10619800355722     -0.60583673887716     -1.45938288997708
  H   0.14545434704752     -1.79325365859617     -0.15053079512875
  N   0.20578009044931      1.63224605127974      0.09571406058445
  O   -0.08678234918431      1.86090963190115     -1.07108055105089
  O   0.34505509926431      2.44124905406846      1.00401288418975
  N   1.98706950691928      0.03413279103914      0.35856940533746
  O   2.44187834155540      0.24949799253946     -0.75822482585079
  O   2.58989131460215     -0.29568178047370      1.36766279649467
  C   -1.74009590774406     -0.73512992376098     -0.30849376526518
  H   -2.19432816860129     -1.51011430859291     -0.92744399403415
  H   -2.05603358757109     -0.89886765050312      0.72232208755225
  H   -2.12300813839029      0.22812806430260     -0.64707926566657
