15
Coordinates from ORCA-job run
  C   0.75714954449562      0.39626913571910     -0.24052253915420
  C   -0.21595164977426     -0.54184222516564     -0.89830957857885
  F   1.86153010260893      0.55972640819227     -0.98381365703460
  H   0.39509426877144     -1.38094828271424     -1.24530138043740
  H   -0.59744770013861     -0.02409873425595     -1.78153602390544
  N   1.17707458771920     -0.14043421378408      1.11719485296013
  O   0.47298551778558      0.18483161592496      2.06505630111183
  O   2.12843304183785     -0.90752773829936      1.11455116397478
  N   0.22151270806685      1.79421697161541      0.03000301670830
  O   1.03496038102576      2.56973004735386      0.51413428576201
  O   -0.93925863409585      2.02986092071142     -0.28392888834028
  C   -1.35504398331601     -1.03419734356642     -0.01184199487862
  H   -2.03066278471948     -1.64674664136103     -0.61075510077496
  H   -1.92494025442115     -0.20592183651581      0.40514933791975
  H   -0.98743514584586     -1.65291808385448      0.80792020466755
