15
Coordinates from ORCA-job run
  C   0.46460566781531      0.18156334874902      0.46861474883346
  C   -0.25106990194724     -0.81937748841732     -0.39079977645932
  F   0.08569446692574      0.13416629732147      1.74527539989138
  H   0.05699361906132     -1.80436258141435     -0.02414110786581
  H   0.11372045038433     -0.71014730657309     -1.41119675366433
  N   0.28665820693782      1.62250736219903     -0.00780752453898
  O   0.44482423282282      2.48426847219211      0.84735189102586
  O   0.03694446579923      1.78480309837582     -1.19555242114105
  N   1.97625537623506     -0.03923941396629      0.41451441451919
  O   2.47070205438520      0.07527279829614     -0.70029574608391
  O   2.53486436010592     -0.32666124157840      1.46130155661162
  C   -1.76684937577117     -0.66749779284559     -0.31063856411895
  H   -2.24394797805808     -1.46164507065744     -0.88659018035003
  H   -2.11836317551867     -0.74029095347015      0.71909719720335
  H   -2.09003246917760      0.28664047178903     -0.72813313386249
