15
Coordinates from ORCA-job run
  C   0.62136233324627      0.31707756586919     -0.09335680080622
  C   -0.23239500287283     -0.90584858977239     -0.23595427897414
  F   0.85812504385506      0.92563324552716     -1.26198208725747
  H   0.29424878201244     -1.58043609891261     -0.91533977051592
  H   -0.28700305232162     -1.39535906751872      0.73670547362386
  N   1.98127272188547      0.05693504053943      0.54125596512606
  O   2.66263366700392      1.05888605815613      0.71945573151040
  O   2.28260547418960     -1.10488052080380      0.78386495810681
  N   -0.04419343777031      1.31379867229318      0.84065739519770
  O   -0.13368965089295      0.92998728873611      2.00072790314923
  O   -0.46020790989627      2.35337724398672      0.35566561888086
  C   -1.61934368029825     -0.55173146582104     -0.76729665716387
  H   -2.18951671420272      0.03197072889225     -0.04208235120300
  H   -1.55602857151380      0.01846340173065     -1.69495279297831
  H   -2.17787000242402     -1.46687350290225     -0.96736830669598
