16

C	-0.520821	-0.011608	-1.451817
C	0.0	0.0	0.0
F	-0.195247	1.241799	-1.958724
H	1.094202	0.0	0.0
C	0.159716	-1.009149	-2.294453
N	0.628064	-1.777553	-3.049474
C	-2.027657	-0.171005	-1.558443
H	-2.333237	-1.167636	-1.242623
H	-2.322051	-0.021126	-2.598553
H	-2.514199	0.585061	-0.939098
N	-0.392995	-1.239268	0.74171
O	-0.48352	-2.271101	0.079621
O	-0.525679	-1.15452	1.957715
C	-0.514779	1.167442	0.698259
N	-0.968388	2.117689	1.218432
Br	3.271538	0.0	0.0
