16

C	-0.434036	0.012458	-1.477865
C	0.0	0.0	0.0
F	-0.081463	-1.208678	-2.025878
H	1.092248	0.0	0.0
C	-1.899089	0.141183	-1.619958
N	-3.054722	0.269595	-1.786935
C	0.301744	1.114	-2.215199
H	-0.0008	2.095853	-1.847015
H	1.372922	0.974367	-2.04633
H	0.071569	1.041413	-3.2797
N	-0.528858	-1.239594	0.662171
O	0.183595	-2.233463	0.615374
O	-1.654665	-1.170549	1.157868
C	-0.502944	1.181152	0.683326
N	-0.878545	2.166336	1.201378
Br	3.367329	0.0	0.0
