16

C	-0.447303	-0.124016	-1.469115
C	0.0	0.0	0.0
F	-1.808967	-0.442752	-1.487674
H	1.092201	0.0	0.0
C	-0.307111	1.198439	-2.10522
N	-0.197543	2.246648	-2.623454
C	0.33005	-1.153944	-2.265287
H	0.052662	-1.069076	-3.316649
H	1.39991	-0.971217	-2.137481
H	0.097803	-2.152685	-1.899128
N	-0.441472	-1.218761	0.762482
O	0.044519	-2.286198	0.40367
O	-1.236651	-1.06818	1.68597
C	-0.543549	1.188816	0.637014
N	-0.947119	2.171695	1.136038
Br	3.315694	0.0	0.0
