16

C	-0.519472	-0.061156	-1.449598
C	0.0	0.0	0.0
F	-0.205523	1.180831	-1.992681
H	1.090721	0.0	0.0
C	0.171979	-1.074622	-2.262337
N	0.609684	-1.851128	-3.026575
C	-2.024093	-0.23825	-1.556974
H	-2.322166	-1.229498	-1.217203
H	-2.315362	-0.116761	-2.601787
H	-2.519775	0.529479	-0.959158
N	-0.382814	-1.218554	0.783596
O	-0.484364	-2.270173	0.15361
O	-0.487056	-1.097973	1.997906
C	-0.519264	1.184918	0.664118
N	-0.979094	2.136151	1.177432
Br	3.268995	0.0	0.0
