16

C	-0.388323	-0.062019	-1.473345
C	0.0	0.0	0.0
F	0.273128	-1.131299	-2.054018
H	1.109052	0.0	0.0
C	-1.828772	-0.263555	-1.797308
N	-2.799385	-0.374492	-2.396768
C	0.089525	1.204612	-2.169785
H	-0.072829	1.08221	-3.242666
H	1.156957	1.322132	-1.965667
H	-0.454456	2.081994	-1.820372
N	-0.501885	-1.128474	0.83501
O	-0.688749	-0.904799	2.03984
O	-0.582607	-2.243953	0.307668
C	-0.319078	1.294273	0.607791
N	-0.201889	2.385684	0.934807
Br	3.285491	0.0	0.0
