16

C	-0.44259	-0.154268	-1.471768
C	0.0	0.0	0.0
F	0.144062	0.924769	-2.118547
H	1.09763	0.0	0.0
C	0.127723	-1.395099	-2.029061
N	0.482204	-2.400375	-2.524302
C	-1.930783	-0.093114	-1.761858
H	-2.443403	-0.981363	-1.40245
H	-2.357793	0.789188	-1.28278
H	-2.052783	-0.008527	-2.843698
N	-0.487122	-1.142803	0.851623
O	0.345521	-1.738666	1.523054
O	-1.696702	-1.377715	0.831133
C	-0.526753	1.237683	0.553786
N	-0.964193	2.238655	0.988224
Br	3.336787	0.0	0.0
