16

C	-0.522593	-0.038969	-1.451332
C	0.0	0.0	0.0
F	-0.257523	1.224299	-1.965488
H	1.091697	0.0	0.0
C	0.195103	-1.004998	-2.294602
N	0.654641	-1.727095	-3.097449
C	-2.019405	-0.271024	-1.552472
H	-2.270303	-1.291941	-1.257717
H	-2.324318	-0.11316	-2.589464
H	-2.544644	0.445412	-0.912728
N	-0.387263	-1.236906	0.749669
O	-0.394048	-2.282574	0.105085
O	-0.60247	-1.137274	1.952066
C	-0.523149	1.171067	0.684507
N	-0.961106	2.128236	1.206238
Br	3.269531	0.0	0.0
