15

C	-0.279347	-0.018851	-1.492874
C	0.0	0.0	0.0
Cl	-2.052058	-0.223206	-1.862878
H	1.097913	0.0	0.0
H	0.189793	-0.926366	-1.881669
C	0.274344	1.201805	-2.190301
H	0.187274	1.111195	-3.274743
H	1.330038	1.271076	-1.906482
H	-0.247768	2.103928	-1.866246
N	-0.416052	-1.173214	0.749819
H	0.311737	-1.872869	0.638825
H	-1.29228	-1.535616	0.389506
C	-0.511105	1.218688	0.618444
N	-0.92313	2.208317	1.101806
H	2.722041	0.0	0.0
