15

C	-0.536031	-0.058865	-1.426064
C	0.0	0.0	0.0
Cl	-0.064153	1.4374	-2.31436
H	1.100217	0.0	0.0
H	-1.628147	-0.057896	-1.413606
C	0.005809	-1.271466	-2.150337
H	-0.298858	-1.266738	-3.198895
H	-0.389197	-2.168034	-1.670269
H	1.09336	-1.272988	-2.0816
N	-0.423817	-1.248313	0.691897
H	-0.648825	-1.024206	1.656254
H	0.419507	-1.815371	0.730088
C	-0.51221	1.159682	0.714506
N	-0.939775	2.070532	1.322474
H	2.781076	0.0	0.0
