15

C	-0.514297	-0.099058	-1.437771
C	0.0	0.0	0.0
Cl	-0.30261	1.477418	-2.2876
H	1.095099	0.0	0.0
H	-1.593409	-0.283294	-1.436994
C	0.236497	-1.182302	-2.185445
H	-0.090203	-1.236723	-3.226767
H	1.306924	-0.973984	-2.133857
H	0.04286	-2.136582	-1.692429
N	-0.350125	-1.245167	0.701979
H	-1.090799	-1.093553	1.374202
H	0.48625	-1.538232	1.200554
C	-0.512226	1.171406	0.703975
N	-0.95711	2.060976	1.332656
H	2.767088	0.0	0.0
