15

C	-0.429702	-0.001067	-1.475443
C	0.0	0.0	0.0
Cl	0.04689	-1.562256	-2.233377
H	1.095388	0.0	0.0
H	0.170794	0.758284	-1.984821
C	-1.912063	0.219395	-1.723856
H	-2.509177	-0.555758	-1.23569
H	-2.21358	1.191574	-1.326903
H	-2.133601	0.18888	-2.793257
N	-0.412892	-1.133032	0.816418
H	0.366047	-1.783692	0.805006
H	-1.221163	-1.600453	0.424951
C	-0.46839	1.253279	0.592632
N	-0.857511	2.268196	1.042346
H	2.731261	0.0	0.0
