16

C	-0.502202	-0.002881	-1.439038
C	0.0	0.0	0.0
Cl	0.245971	1.31218	-2.37275
H	1.0938	0.0	0.0
N	0.019712	-1.308705	-2.120313
O	-0.594212	-1.657153	-3.130136
O	0.981252	-1.884116	-1.634961
N	-1.907836	0.070096	-1.537024
H	-2.275155	-0.651927	-0.924153
H	-2.188329	-0.116472	-2.493044
N	-0.529013	-1.213456	0.650967
H	0.268118	-1.838706	0.746169
H	-0.845486	-0.985328	1.585082
C	-0.466452	1.20719	0.66135
N	-0.802937	2.166641	1.252076
H	2.701856	0.0	0.0
