16

C	-0.345138	-0.086335	-1.483808
C	0.0	0.0	0.0
Cl	-2.092972	-0.384022	-1.752952
H	1.094187	0.0	0.0
N	-0.000568	1.263962	-2.118426
O	1.091364	1.335831	-2.670857
O	-0.795301	2.184318	-1.96529
N	0.410942	-1.089943	-2.148113
H	0.191583	-1.94752	-1.647804
H	1.390339	-0.881619	-1.928288
N	-0.291454	-1.285022	0.626446
H	-1.135704	-1.248452	1.182168
H	0.502012	-1.506864	1.222758
C	-0.555143	1.136745	0.711644
N	-1.016131	2.003227	1.361063
H	2.610417	0.0	0.0
