16

C	-0.590467	-0.191135	-1.406297
C	0.0	0.0	0.0
Cl	-0.307177	1.254351	-2.38319
H	1.093723	0.0	0.0
N	0.141044	-1.362667	-2.108286
O	0.549831	-2.251061	-1.370403
O	0.164399	-1.381023	-3.33035
N	-1.973895	-0.567587	-1.421146
H	-2.551279	0.246642	-1.571409
H	-2.155984	-0.965674	-0.501784
N	-0.495564	-1.085347	0.878163
H	-0.54137	-0.725289	1.824038
H	0.239167	-1.78716	0.868667
C	-0.498429	1.261541	0.52604
N	-0.921848	2.257414	0.987274
H	2.682838	0.0	0.0
