16

C	-0.643779	-0.04758	-1.374536
C	0.0	0.0	0.0
Cl	0.174881	1.1891	-2.450772
H	1.091441	0.0	0.0
N	-0.34003	-1.377674	-2.056495
O	-1.169521	-1.759343	-2.882534
O	0.711579	-1.928395	-1.785739
N	-2.046818	0.091566	-1.334133
H	-2.286485	1.000877	-0.958841
H	-2.44192	-0.026386	-2.258728
N	-0.37633	-1.19383	0.745159
H	0.456171	-1.491958	1.247346
H	-1.132321	-1.02101	1.393263
C	-0.430653	1.238641	0.64446
N	-0.805254	2.213403	1.18812
H	2.640991	0.0	0.0
