16

C	-0.541901	-0.053503	-1.426191
C	0.0	0.0	0.0
Cl	0.242065	1.26988	-2.401329
H	1.091439	0.0	0.0
N	-0.131241	-1.337417	-2.14565
O	-0.722109	-1.559932	-3.201799
O	0.740403	-2.036041	-1.652205
N	-1.957761	-0.029602	-1.476697
H	-2.29649	0.805889	-1.013875
H	-2.276183	-0.050224	-2.437834
N	-0.412681	-1.116421	0.831974
H	0.324536	-1.809307	0.77759
H	-1.287546	-1.511166	0.510164
C	-0.483183	1.254865	0.578913
N	-0.896837	2.25727	1.034807
H	2.665218	0.0	0.0
