16

C	-0.536625	-0.009088	-1.424485
C	0.0	0.0	0.0
Cl	0.18703	1.307841	-2.377081
H	1.093686	0.0	0.0
N	-0.041039	-1.312516	-2.123923
O	-0.659348	-1.627197	-3.142401
O	0.900835	-1.923243	-1.643152
N	-1.945679	0.066661	-1.484618
H	-2.300134	-0.649383	-0.857406
H	-2.252833	-0.124975	-2.431554
N	-0.493586	-1.217572	0.672525
H	0.330495	-1.80241	0.79964
H	-0.839673	-0.98049	1.593946
C	-0.466206	1.200656	0.673972
N	-0.827319	2.136612	1.287501
H	2.684592	0.0	0.0
