15

C	0.0	0.0	0.0
C	-0.507359	-0.139083	-1.430406
Cl	1.787363	0.0	0.0
H	-1.590164	0.014407	-1.357092
H	-0.261084	1.006973	0.336025
N	-0.512808	-1.074937	0.808055
H	-0.273812	-0.913083	1.779027
H	-1.531736	-1.015083	0.727891
N	-0.162919	-1.469954	-1.948834
H	-0.916146	-1.774895	-2.553311
H	-0.145669	-2.111241	-1.160243
N	0.025782	0.937965	-2.248564
H	-0.553602	1.022767	-3.076849
H	0.949652	0.64983	-2.557489
Br	-3.876271	0.0	0.0
