15

C	0.0	0.0	0.0
C	-0.470542	0.387286	-1.445183
Cl	1.790779	0.0	0.0
H	0.432697	0.493013	-2.053929
H	-0.270341	0.812346	0.679071
N	-0.497793	-1.293793	0.3875
H	-1.513468	-1.238805	0.30162
H	-0.294263	-1.443837	1.369305
N	-1.094127	1.699657	-1.355581
H	-1.973923	1.57378	-0.855837
H	-1.353458	1.963289	-2.301079
N	-1.319945	-0.574549	-2.131321
H	-0.924988	-1.505575	-2.053111
H	-2.238833	-0.585149	-1.693274
Br	-3.978154	0.0	0.0
