15

C	0.0	0.0	0.0
C	-0.415198	-0.100057	-1.48545
Cl	1.863061	0.0	0.0
H	0.361318	0.370095	-2.097638
H	-0.231809	1.003821	0.349971
N	-0.554085	-0.983719	0.837191
H	-1.360069	-0.619428	1.330164
H	-0.833949	-1.7685	0.256803
N	-1.616006	0.671042	-1.63582
H	-2.384679	0.359388	-1.037583
H	-1.950123	0.649236	-2.591786
N	-0.544423	-1.530476	-1.831637
H	-1.336724	-1.652511	-2.448904
H	0.292101	-1.867109	-2.292238
Br	-4.503836	0.0	0.0
