15

C	0.0	0.0	0.0
C	-0.339218	0.016415	-1.528295
Cl	1.794295	0.0	0.0
H	0.355689	0.743405	-1.965479
H	-0.258732	0.972504	0.436464
N	-0.602001	-1.123537	0.653085
H	-1.59642	-1.072974	0.414725
H	-0.556719	-0.994632	1.655528
N	-1.690622	0.413036	-1.829243
H	-2.277827	-0.393378	-1.989027
H	-2.14757	0.896382	-1.066091
N	-0.066076	-1.262003	-2.169652
H	-0.520153	-1.98585	-1.620571
H	0.927757	-1.446822	-2.112225
Br	-4.337837	0.0	0.0
