15

C	0.0	0.0	0.0
C	-0.247597	-0.244567	-1.518784
Br	1.962282	0.0	0.0
H	0.287412	-1.164142	-1.763261
C	-0.471487	1.258881	0.535897
N	-0.566026	2.351075	0.966857
N	-0.384695	-1.18469	0.85685
O	-0.554836	-0.964762	2.044367
O	-0.366919	-2.274769	0.303973
C	0.30917	0.859376	-2.302563
N	0.781996	1.683688	-2.993505
N	-1.652553	-0.495122	-2.066655
O	-1.987275	-1.669386	-2.10624
O	-2.235919	0.44679	-2.57828
F	-2.188767	0.0	0.0
