16

C	-0.420893	0.05536	-1.449594
C	0.0	0.0	0.0
Cl	-0.26819	-1.619018	-2.084915
H	1.088477	0.0	0.0
H	-0.372053	-0.877084	0.520001
N	-1.917785	0.369819	-1.580328
O	-2.285717	0.976631	-2.58071
O	-2.652726	-0.044922	-0.690876
C	0.411833	0.976211	-2.303503
H	1.45748	0.743118	-2.076184
H	0.194507	0.8318	-3.360907
H	0.20914	2.006895	-2.020854
N	-0.434531	1.162068	0.764175
O	-0.420262	1.052175	1.991358
O	-0.714674	2.207715	0.163377
H	2.637504	0.0	0.0
