16

C	-0.430863	-0.001226	-1.438092
C	0.0	0.0	0.0
Cl	0.172024	-1.413923	-2.314594
H	1.088319	0.0	0.0
H	-0.299453	0.928225	0.484068
N	-1.960472	0.062303	-1.573363
O	-2.511035	0.814363	-0.771413
O	-2.519461	-0.531257	-2.485323
C	0.131658	1.248673	-2.09469
H	-0.093728	1.250973	-3.162796
H	1.213927	1.23204	-1.933314
H	-0.294977	2.136285	-1.622309
N	-0.557168	-1.0779	0.815453
O	-0.26182	-1.057633	2.011194
O	-1.269666	-1.937671	0.281742
H	2.666285	0.0	0.0
