18

C	0.0	0.0	0.0
C	-0.589809	0.171336	-1.399672
Cl	1.752982	0.0	0.0
H	-1.684055	0.228186	-1.191919
N	-0.362795	1.287291	0.84963
O	0.06319	1.285959	2.003421
O	-1.096978	2.134755	0.364909
N	-0.603798	-1.120191	0.587538
H	-0.32697	-1.164545	1.562733
H	-1.643866	-0.883902	0.492052
C	-0.235017	-0.991776	-2.312211
H	0.821566	-0.962132	-2.595637
H	-0.846221	-0.943074	-3.212756
H	-0.435054	-1.921774	-1.78424
N	-0.210852	1.4302	-2.111564
O	-0.837117	1.643169	-3.151345
O	0.681124	2.159958	-1.685473
F	-2.866448	0.0	0.0
