18

C	0.0	0.0	0.0
C	-0.572139	0.055161	-1.427956
Cl	1.79288	0.0	0.0
H	-1.651163	0.197352	-1.242604
N	-0.31595	1.359084	0.72257
O	-0.395245	2.37293	0.042812
O	-0.414986	1.305491	1.942359
N	-0.58383	-1.072237	0.66285
H	-1.627444	-0.840723	0.53974
H	-0.327978	-1.025533	1.642863
C	-0.280448	-1.226254	-2.18765
H	-0.730327	-1.164422	-3.182419
H	0.794553	-1.386341	-2.292048
H	-0.722314	-2.060763	-1.647646
N	-0.11806	1.188115	-2.295087
O	1.079357	1.298277	-2.558014
O	-1.001607	1.887049	-2.787859
F	-2.817587	0.0	0.0
