18

C	0.0	0.0	0.0
C	-0.460226	0.354599	-1.484821
Cl	1.769572	0.0	0.0
H	0.449523	0.369945	-2.092596
N	-0.31935	1.243906	0.918851
O	0.174964	2.315048	0.57826
O	-0.969587	1.058307	1.929954
N	-0.527894	-1.104981	0.664015
H	-1.570868	-0.892219	0.585096
H	-0.297975	-1.930688	0.129065
C	-1.264635	1.615101	-1.71768
H	-1.571786	1.646149	-2.763743
H	-0.658593	2.490892	-1.499544
H	-2.143953	1.537452	-1.078869
N	-1.192322	-0.825936	-2.094848
O	-2.179879	-0.626926	-2.788319
O	-0.657272	-1.931436	-1.967299
F	-2.681585	0.0	0.0
