18

C	0.0	0.0	0.0
C	-0.56896	0.129762	-1.437272
Cl	1.783274	0.0	0.0
H	-1.615063	0.412247	-1.243921
N	-0.351948	1.318257	0.744729
O	-0.664377	1.258745	1.920086
O	-0.223791	2.342385	0.081822
N	-0.561887	-1.046	0.741517
H	-0.278468	-1.932586	0.344353
H	-1.603811	-0.856353	0.605484
C	-0.508826	-1.200649	-2.167568
H	-0.790142	-1.058489	-3.213849
H	0.491055	-1.641122	-2.136248
H	-1.241618	-1.866988	-1.714479
N	0.043482	1.155437	-2.337784
O	1.195629	0.971922	-2.737503
O	-0.6792	2.077926	-2.713193
F	-2.787699	0.0	0.0
