18

C	0.0	0.0	0.0
C	-0.207537	0.041037	-1.576391
Cl	1.815114	0.0	0.0
H	0.437347	0.82747	-1.955902
N	-0.382653	1.405647	0.520354
O	-0.62276	1.513896	1.710184
O	-0.348776	2.328139	-0.290004
N	-0.627595	-0.932749	0.790943
H	-1.683523	-0.649972	0.62198
H	-0.462165	-1.848049	0.38949
C	-1.577	0.160668	-2.214574
H	-1.428546	0.116435	-3.300966
H	-2.01953	1.111702	-1.935376
H	-2.257824	-0.599348	-1.851952
N	0.40193	-1.208987	-2.151486
O	1.201166	-1.06797	-3.077292
O	0.025134	-2.300651	-1.724393
F	-2.820626	0.0	0.0
