18

C	0.0	0.0	0.0
C	-0.276359	-0.006103	-1.554629
Cl	1.775388	0.0	0.0
H	0.476406	0.651638	-1.978547
N	-0.30919	1.486539	0.486052
O	-0.218711	2.40429	-0.322839
O	-0.570985	1.608286	1.675099
N	-0.655258	-0.945217	0.728444
H	-0.457388	-0.810212	1.714099
H	-1.720184	-0.693199	0.499724
C	-1.610328	0.329952	-2.19301
H	-1.456709	0.27164	-3.278323
H	-2.398069	-0.32145	-1.838654
H	-1.893134	1.34361	-1.921791
N	0.117388	-1.365146	-2.07267
O	-0.640952	-2.305871	-1.86093
O	1.151298	-1.434649	-2.745206
F	-2.851621	0.0	0.0
