18

C	0.0	0.0	0.0
C	-0.56682	0.03045	-1.442242
Cl	1.789596	0.0	0.0
H	-1.621292	0.296212	-1.261594
N	-0.353014	1.359612	0.659652
O	-0.197332	2.343472	-0.056431
O	-0.695729	1.368364	1.82888
N	-0.558415	-0.99977	0.806825
H	-1.599098	-0.818767	0.662658
H	-0.278314	-1.908138	0.459902
C	-0.464351	-1.335969	-2.098137
H	-1.170099	-2.003295	-1.60665
H	-0.756122	-1.261277	-3.148771
H	0.549946	-1.738714	-2.04876
N	0.017577	1.023932	-2.395205
O	1.169966	0.842113	-2.796418
O	-0.724723	1.915576	-2.804694
F	-2.788211	0.0	0.0
