15

C	0.0	0.0	0.0
C	-0.507361	0.050246	-1.431422
F	1.399866	0.0	0.0
H	-1.606633	-0.00394	-1.328721
H	-0.228055	1.027813	-1.869432
C	-0.332788	1.249479	0.727392
N	-0.257672	2.224256	1.377104
C	-0.503501	-1.213288	0.754834
H	-0.082209	-1.221812	1.762928
H	-0.20584	-2.108284	0.20694
H	-1.603522	-1.124335	0.780578
N	0.022633	-1.101286	-2.162618
H	0.986814	-0.918782	-2.413296
H	-0.504018	-1.220969	-3.016969
H	-3.277345	0.0	0.0
