15

C	0.0	0.0	0.0
C	-0.578973	0.109517	-1.399661
F	1.399996	0.0	0.0
H	-0.025227	0.890614	-1.931019
H	-1.624362	0.417743	-1.23261
C	-0.337076	1.253383	0.723628
N	-0.450477	2.300842	1.243108
C	-0.510649	-1.20931	0.743697
H	-0.198101	-2.101406	0.199843
H	-1.607749	-1.128179	0.761055
H	-0.103419	-1.226328	1.75742
N	-0.499954	-1.167629	-2.115357
H	-1.414621	-1.59901	-2.038403
H	-0.331517	-0.988136	-3.094842
H	-3.32498	0.0	0.0
