15

C	0.0	0.0	0.0
C	-0.543505	0.04082	-1.407668
F	1.400488	0.0	0.0
H	-0.303487	-0.923527	-1.883325
H	-1.639282	0.095574	-1.262906
C	-0.347541	1.249442	0.71828
N	-0.487339	2.230914	1.346192
C	-0.523696	-1.199589	0.752742
H	-0.127074	-1.214206	1.770877
H	-1.622325	-1.104605	0.75645
H	-0.222103	-2.113616	0.232689
N	-0.044173	1.20357	-2.133628
H	-0.712957	1.470789	-2.843142
H	0.83533	0.990662	-2.584199
H	-3.298514	0.0	0.0
