10
Coordinates from ORCA-job run
  C   -0.55426932234899      0.16182808914185      0.34511464427792
  C   0.48068459801652     -0.11206315964574     -0.47199581543683
  H   -0.34866651019983      0.29931668124677      1.40170548044562
  H   0.43718699329607     -0.26582622977063     -1.54123284790502
  N   -1.84871384425127      0.35829689120611     -0.04249331869291
  H   -2.11706718683883      0.04610121426039     -0.96128937094360
  H   -2.55631408422126      0.24327207897599      0.66154772199831
  N   1.81277569933334     -0.21317071542234      0.07065725543091
  O   2.70564412523386     -0.46959486946900     -0.74020875774409
  O   1.98873953198039     -0.04915998052339      1.27819500856970
