10
Coordinates from ORCA-job run
  C   -0.56411405589997      0.33609763333647      0.14612807349509
  C   0.47992070377435     -0.46504094885012     -0.14028303639762
  H   -0.35718467274579      1.31747594853393      0.56036335064014
  H   0.43412614613517     -1.46591876352610     -0.54640396783282
  N   -1.88295776302206      0.00160026074118      0.03183844767738
  H   -2.11773069329087     -0.80231099408087     -0.52695860541214
  H   -2.54090974913269      0.75870139935319     -0.02699730602524
  N   1.82362253205940     -0.00468056760884      0.10801227622226
  O   2.00130548557623      1.11961923984617      0.57745940564662
  O   2.72492206654623     -0.79454320774501     -0.18215863801368
