10
Coordinates from ORCA-job run
  C   -0.55411418824511      0.37902945543423      0.02949052913908
  C   0.47672475647689     -0.47389683201218     -0.12517724424794
  H   -0.33466075914848      1.39190977129649      0.35118908410540
  H   0.42075412369021     -1.50485765941610     -0.44563774183828
  N   -1.86288921321699      0.11147974360759     -0.25120888697138
  H   -2.55181070507103      0.69916890371776      0.18388396210006
  H   -2.13639814733906     -0.85169828364792     -0.35542334212836
  N   1.82151511487102     -0.02379473709445      0.13632329823433
  O   2.71038436942115     -0.86273661324086     -0.02649937140755
  O   2.01149464856141      1.13639625135544      0.50205971301465
