10
Coordinates from ORCA-job run
  C   -0.55233599435802      0.24469954601294      0.29467242968428
  C   0.47147759561146     -0.25276751580785     -0.42556891041720
  H   -0.32072021965675      0.77738169808020      1.21129234190015
  H   0.40220302424140     -0.79545396785397     -1.35799330689441
  N   -1.87052388198741      0.20383676844036     -0.05612018551756
  H   -2.54381955514845      0.32799229467213      0.67899535416105
  H   -2.14913939003669     -0.43863236654877     -0.77920081342252
  N   1.82545579063506     -0.06463186509578      0.03281483190527
  O   2.03052950305527      0.54604392741525      1.08213584104809
  O   2.70687312764412     -0.54846851931451     -0.68102758244715
