10
Coordinates from ORCA-job run
  C   -0.72810734928987     -0.40319515061706      0.45076987119706
  C   0.53041993338442     -0.77873293644726      0.10533152191060
  H   -1.32974678422006     -1.15561272114293      0.95319267874201
  H   0.92429042711832     -1.76216471862955      0.30751361407804
  N   -1.31770455869185      0.80304384934892      0.30601829653963
  H   -2.31250602552553      0.86931352208837      0.41897017661256
  H   -0.84574819557931      1.48452265799199     -0.26675822645344
  N   1.44432696041072      0.08230429686716     -0.57294550634773
  O   2.55528008015645     -0.37378371270961     -0.84602865794772
  O   1.07949551223673      1.23530491324997     -0.85706376833101
