10
Coordinates from ORCA-job run
  C   -0.74649295015022     -0.27696429638604      0.51134057697402
  C   0.57250356104561     -0.59727520847404      0.46485476265268
  H   -1.34861664269560     -0.83248739891815      1.22505611446095
  H   1.01132044831862     -1.36144500858174      1.08659294435428
  N   -1.40527960502668      0.68291258184021     -0.17191510626999
  H   -0.91710539752580      1.13663327044675     -0.92744849967492
  H   -2.40843792340068      0.67231242290657     -0.17667485654544
  N   1.49596392293282      0.02455470443300     -0.42777202741810
  O   1.08232881616884      0.91285216001182     -1.19138128968753
  O   2.66481577033308     -0.36209322727839     -0.39265261884596
