10
Coordinates from ORCA-job run
  C   -0.76263830580058     -0.55472406160703     -0.08351356234829
  C   0.57177883923017     -0.75389625549857      0.07239731918645
  H   -1.37177699215112     -1.44928641469995     -0.17953156886628
  H   1.01934833017109     -1.73495187333658      0.09025244827289
  N   -1.44718657875228      0.60854397272791     -0.07664393840505
  H   -0.91535769332270      1.46357253414590     -0.10921219477518
  H   -2.39897999027479      0.61339857192362     -0.39360981957588
  N   1.51144571356582      0.31311375992533      0.19434218491853
  O   1.09257986619800      1.48260238814666      0.17655160807871
  O   2.69978681113639      0.01062737827271      0.30896752351411
