10
Coordinates from ORCA-job run
  C   -0.75833787542712     -0.26830699670761      0.49947482974849
  C   0.58791142092143     -0.31940075576410      0.67265663705588
  H   -1.35903650609722     -0.71338009037887      1.28787769747933
  H   1.05043015742391     -0.77875263753956      1.53179026424650
  N   -1.45765309381009      0.31385009182894     -0.49739685103543
  H   -2.43444370741314      0.10541381993099     -0.59119608302347
  H   -0.94428940402554      0.63132956266740     -1.30404590813898
  N   1.51750438587972      0.20230512929652     -0.27574721117619
  O   1.08089398522702      0.74579993614935     -1.30401138702235
  O   2.71602063732103      0.08014194051694     -0.01940198813379
