10
Coordinates from ORCA-job run
  C   -0.76018624131984     -0.48721483910239      0.28427507406649
  C   0.58533010510324     -0.63235028805505      0.39513978831413
  H   -1.36476940108649     -1.24503797043562      0.77486008194857
  H   1.04379543496746     -1.44394977940750      0.93757205941429
  N   -1.45369604215388      0.44266116756082     -0.40748558454268
  H   -0.94078313493448      1.23252943203396     -0.76561283923393
  H   -2.43506790540735      0.54478441701837     -0.22490922562604
  N   1.51978170607494      0.28145159091324     -0.17799751403396
  O   1.08778352128844      1.25408945332633     -0.81863227408694
  O   2.71681195746797      0.05303681614784      0.00079043378009
