10
Coordinates from ORCA-job run
  C   -0.59572925819554      0.24398522759871      0.19377664576643
  C   0.52221865771654     -0.37159877093430     -0.23692245532349
  H   -0.48964148495497      1.06081654928888      0.90023469250469
  H   0.57796159112477     -1.20056300863082     -0.92867170315875
  N   -1.87549392438744     -0.11034554991894     -0.12170111992294
  H   -2.01717894934842     -0.71917828326886     -0.91074521858879
  H   -2.58716628140466      0.58740846274464      0.00440037307677
  N   1.80918316824103      0.06290160556056      0.24659788822850
  O   1.87154314953084      0.99752008909008      1.04580070714073
  O   2.78430333167786     -0.54994632152996     -0.19376980972313
