10
Coordinates from ORCA-job run
  C   -0.56914812501013     -0.16077398885648      0.32001398134058
  C   0.49098238455977      0.27560296451403     -0.38688030739974
  H   -0.38124703726061     -0.75974176783203      1.20515854672336
  H   0.46658430892849      0.88452959008630     -1.27984965132872
  N   -1.87647234601765      0.13979689164165      0.06771277433573
  H   -2.10873863349299      0.51597060044412     -0.83668840784107
  H   -2.56991535666157     -0.47326427174786      0.45831684474865
  N   1.82534901465556     -0.05702310167675      0.04675297688650
  O   2.74246693325525      0.37797958516152     -0.65332753459501
  O   1.98013885704388     -0.74107650173449      1.05879077712972
