10
Coordinates from ORCA-job run
  C   -0.54108700882530      0.39704236024232     -0.03793094331817
  C   0.46053769736031     -0.50337510013969     -0.04120730757086
  H   -0.28797061459408      1.44214765649665      0.10772501304588
  H   0.36936078340159     -1.57170092619522     -0.17944074888885
  N   -1.85813421092067      0.12831177196826     -0.27432681261819
  H   -2.52788714564823      0.80343275829375      0.04954225555992
  H   -2.16335941716992     -0.82922354497725     -0.21666736445198
  N   1.81976296854006     -0.06059177044202      0.14700491778146
  O   2.04923900153358      1.13841432342973      0.30792796011696
  O   2.67953794632266     -0.94445752867652      0.13737303034384
