10
Coordinates from ORCA-job run
  C   -0.53386001362965      0.23847504037605      0.30923576504496
  C   0.46600091497238     -0.32527218995409     -0.39645691418946
  H   -0.33492694377957      0.97316462925622      1.08158677372261
  H   0.35946209038258     -1.18247884130549     -1.04665254842585
  N   -1.86124387133295     -0.10527509938876      0.16111013551523
  H   -2.51536078599310      0.52500292156156      0.59363572378891
  H   -2.14957981273245     -0.40232637355553     -0.75733174253973
  N   1.83095336446924      0.02644869416874     -0.08747541929036
  O   2.03982295964821      1.00808137246498      0.62603305910381
  O   2.69773209799531     -0.75582015362368     -0.48368483273011
