10
Coordinates from ORCA-job run
  C   -0.74779318168194     -0.33459919659387      0.47348218802044
  C   0.58387117249471     -0.59969537653372      0.44637409847598
  H   -1.34468042550953     -0.95329094422400      1.13791183513054
  H   1.03772996689614     -1.37896059211710      1.03782383953596
  N   -1.42741165470663      0.63627984431233     -0.17300186840491
  H   -2.42858933951018      0.58278834710240     -0.20987443960569
  H   -0.93932856903606      1.14904680440617     -0.88983248700018
  N   1.50457414742187      0.10886247015583     -0.38231114690187
  O   2.68697789686239     -0.23293396108070     -0.33507020837117
  O   1.07564998676924      1.02250260457268     -1.10650181087911
