10
Coordinates from ORCA-job run
  C   -0.76084455405095     -0.11282223066332     -0.55250348697243
  C   0.55852806308630     -0.42183392817033     -0.63961200286001
  H   -1.38263333616240     -0.43034627637919     -1.38493824541860
  H   0.97894467995658     -0.96418248998689     -1.47161385150623
  N   -1.39845481922536      0.59528701699213      0.40443543212791
  H   -2.40085437811892      0.56632250816316      0.43771909449096
  H   -0.88857096996383      0.79681726896609      1.24980006817747
  N   1.50648176741035     -0.09689040375163      0.37626831241386
  O   2.67192482097561     -0.45281430296633      0.19751912062126
  O   1.11647872609262      0.51946283779631      1.38192555892581
