15

C	-0.414741	0.01367	-1.452494
C	0.0	0.0	0.0
Br	-0.186988	-1.692567	-2.283164
H	1.099012	0.0	0.0
N	-1.886376	0.454996	-1.597945
O	-2.65565	-0.00971	-0.757335
O	-2.216797	0.898564	-2.701429
N	0.333169	1.119327	-2.225426
O	0.833353	0.862114	-3.305735
O	0.349296	2.189366	-1.633333
C	-0.435372	-1.198189	0.695891
N	-0.730351	-2.154135	1.31418
C	-0.454704	1.167626	0.738639
N	-0.7741	2.097197	1.384822
Cl	2.817798	0.0	0.0
