15

C	-0.447466	0.010459	-1.457188
C	0.0	0.0	0.0
Br	0.270182	-1.469981	-2.422759
H	1.095399	0.0	0.0
N	-1.981264	0.017319	-1.538984
O	-2.559235	-1.038799	-1.734534
O	-2.476989	1.098389	-1.236984
N	0.010363	1.284478	-2.175051
O	-0.615684	1.596485	-3.178593
O	0.990313	1.839415	-1.700945
C	-0.47843	-1.20496	0.658981
N	-0.831364	-2.175898	1.23075
C	-0.451853	1.191816	0.705302
N	-0.743117	2.149482	1.335255
Cl	2.664489	0.0	0.0
