16
Coordinates from ORCA-job run
  C   0.38491376070971      0.04267506344623      0.55799906457710
  C   -1.03763011447340     -0.04260778449942     -0.03521528605215
  Cl  0.05614379109327      0.15403393941555      2.38153642112602
  H   -1.56437087212191     -0.88917505061078      0.40623367599937
  C   1.18822649626751     -1.22555495041953      0.33984349931798
  H   1.44049724661924     -1.33013773186436     -0.71563459997071
  H   2.10995555528022     -1.16467015598508      0.92176840282837
  H   0.63354549470673     -2.10404935899830      0.66750485844234
  N   1.05512070388205      1.16273809863360      0.03327764203294
  H   0.58864198109727      2.04102784480441      0.22493363779333
  H   2.01764475797949      1.20890664300118      0.33991458311636
  N   -0.94203476247563     -0.33583403172914     -1.51802661452758
  O   -0.88248956779913     -1.52728797216515     -1.80925220911973
  O   -0.90382393963272      0.61380389740344     -2.28851385361913
  C   -1.78295897279280      1.19432335785926      0.16019547883620
  N   -2.36238155833990      2.20080819170808      0.33443529921929
