16
Coordinates from ORCA-job run
  C   0.40742470598699     -0.21727786026199      0.40888349087708
  C   -0.74501898396424      0.14693095184048     -0.55426103328943
  Cl  0.19171940503985     -1.88878641679284      1.00361350957299
  H   -0.53508763004232      1.13491314914015     -0.97417345683766
  C   1.72428125761358     -0.16254420305682     -0.35801698658335
  H   1.89038709023357      0.85246270436334     -0.73222381970178
  H   1.73794232752798     -0.86148832753462     -1.19627224449560
  H   2.54133272158726     -0.42155229247100      0.31775385226412
  N   0.30358781318704      0.65799422515437      1.55088128252514
  H   0.99828865697378      0.40664988867195      2.24388661463872
  H   0.44565236804032      1.62450423668378      1.27621657828334
  N   -2.03913792878970      0.32379521194010      0.20209577050079
  O   -2.31897477783703      1.48016194098148      0.49722810243089
  O   -2.67771237271596     -0.68471163044017      0.46789573592246
  C   -0.91235608305288     -0.81973284436085     -1.62860514158306
  N   -1.01432856978823     -1.57131873385736     -2.52490225452464
