16
Coordinates from ORCA-job run
  C   0.42602110094700     -0.00401682567869      0.64814479830484
  C   -1.02178575094375     -0.09466130643806      0.05806279560393
  Cl  0.15984825885551     -0.14870401545214      2.41992952538534
  H   -1.53615750998629     -0.97571297096419      0.44244603734900
  C   1.26142297189857     -1.17584320876426      0.16726085594536
  H   0.74792410917640     -2.12465680527558      0.32734419165683
  H   2.20217048164860     -1.17332585218316      0.71625045259843
  H   1.48340032184051     -1.07064455193918     -0.89829417422198
  N   1.11613090887933      1.22467515361281      0.41330433284579
  H   1.28279182717429      1.35443891513613     -0.57781470433930
  H   0.59973207704835      2.02068433150283      0.77010834381615
  N   -0.91032484808616     -0.29756136702097     -1.43028541467065
  O   -0.50466162909937      0.65478210118480     -2.09160477963358
  O   -1.17134566739791     -1.42050832282973     -1.84936374286723
  C   -1.77915945572365      1.11860216522296      0.32339839156006
  N   -2.35700719623142      2.11345255988643      0.55911309066700
