16
Coordinates from ORCA-job run
  C   0.41799103849296     -0.30164981373522      0.33963444043546
  C   -0.74943445802615      0.25626515741523     -0.50560829843033
  Cl  0.29411454251002     -2.08195481023003      0.43909904794531
  H   -0.59294368368680      1.33187612566024     -0.62902004041645
  C   1.73255969499420      0.03487056933770     -0.35597222015814
  H   1.84358962987441      1.12130802415361     -0.42751927005170
  H   1.78798199561553     -0.39890465161114     -1.35603415762793
  H   2.56013950299044     -0.36058318809168      0.23556474784426
  N   0.26082453919162      0.21208592571108      1.67830553598149
  H   0.34565601841870      1.22329675424485      1.68701124289804
  H   0.96761703438914     -0.18365793285138      2.28644080949875
  N   -2.05399633722667      0.14652613694452      0.24542922343977
  O   -2.63646173966963     -0.92827123145820      0.20741543882068
  O   -2.39786394644057      1.15788456921501      0.84678410627383
  C   -0.85939175000183     -0.37772075866360     -1.81042856553528
  N   -0.91938208142536     -0.85137087604098     -2.88310204091776
