16
Coordinates from ORCA-job run
  C   0.35320002023864     -0.04345401434687      0.62753391400800
  C   -1.05062161175506      0.20080442004669      0.02111524835267
  Cl  0.13717705140680     -1.19707424753056      1.97605282680131
  H   -1.71007011097369      0.51929768979845      0.82840738752488
  C   1.36296165857105     -0.61644905188868     -0.35229275227013
  H   1.46989458566973      0.05561811748245     -1.20825509709808
  H   2.32621946071530     -0.69731663113131      0.15478089067402
  H   1.07530244725062     -1.60023730570614     -0.71935774871210
  N   0.71952611895902      1.23970279302077      1.20457035123977
  H   1.41086623166741      1.10172649935722      1.93229579821716
  H   1.13071449212579      1.82806986676575      0.48607074708562
  N   -1.65691326846574     -1.04895168684744     -0.56292314930721
  O   -1.21251270337377     -1.43306949871450     -1.64089877172677
  O   -2.53625492222895     -1.58474552517290      0.10230879583552
  C   -0.96702645990149      1.21883702654654     -1.01909462896520
  N   -0.85146298990564      2.05924154832054     -1.83131381165946
