16
Coordinates from ORCA-job run
  C   0.40218763920943     -0.01979561473997      0.56481443108387
  C   -0.98593242668700      0.27335842774785     -0.04837915215059
  Cl  0.10575594200454     -1.24994399709605      1.89194183372678
  H   -1.62224785256140      0.72574854168201      0.71554990742612
  C   1.40578680835616     -0.61029542772386     -0.40465419824505
  H   1.57889534411419      0.09125200943613     -1.22298594325598
  H   1.06032118226637     -1.55806746097143     -0.80864912175327
  H   2.34562533830120     -0.78098756255662      0.12477392171959
  N   0.86889778637120      1.22677542336126      1.06158889679228
  H   1.84104555846338      1.17247255778564      1.33838258244645
  H   0.32068457443203      1.55614320317633      1.84708854195995
  N   -1.71693803889891     -0.97831088182938     -0.47136316929311
  O   -1.25857109247106     -1.58929448183748     -1.43065682915023
  O   -2.70921651178593     -1.27386119633779      0.18404388252402
  C   -0.86275650473219      1.15381743414709     -1.20383627172904
  N   -0.77353774638205      1.85998902575629     -2.13765931210176
