16
Coordinates from ORCA-job run
  C   0.34024989570463      0.01957958895431      0.60439159215343
  C   -0.95451777178766      0.32505021202910     -0.18281214996531
  Cl  -0.17603949987537     -1.03361167380035      2.01417634222255
  H   -1.63198030781991      0.89495493015377      0.45701905460431
  C   1.39091478930446     -0.73631623534055     -0.18336429032112
  H   1.69350201079597     -0.14505046423038     -1.04983831947006
  H   1.02150537627357     -1.70235217737815     -0.51694570018991
  H   2.25923189316864     -0.90005135773851      0.45857297789377
  N   0.84306285354344      1.28316588444632      1.01443945683966
  H   1.77619391474713      1.20224637812821      1.39808684083531
  H   0.24358776661410      1.73234806246740      1.69629501334232
  N   -1.72410960655201     -0.92059368961613     -0.55161120669649
  O   -1.21659269176270     -1.65589198075528     -1.39154509018195
  O   -2.79339280393084     -1.08709141975319      0.02298444518367
  C   -0.65235275970944      1.06473374196872     -1.40222619916444
  N   -0.41826305871397      1.65888020046473     -2.38762276708578
