16
Coordinates from ORCA-job run
  C   0.49347200373943      0.01523312853113      0.59780473222277
  C   -1.01156987852332     -0.05850692717646      0.17154726203581
  Cl  0.41694194615665     -0.02995128258055      2.39349099632921
  H   -1.50490813486498     -0.90165213465769      0.65558596452742
  C   1.24006716056835     -1.20673379227453      0.09577276858362
  H   2.23448580145784     -1.20586589488151      0.54018129054719
  H   0.72166552527804     -2.12847654055001      0.36336626973003
  H   1.34748649851214     -1.16589141429398     -0.99182672168230
  N   1.18658772859432      1.20731494831235      0.22475112896358
  H   0.73564936558536      2.03625108582865      0.59443441091048
  H   1.24605348642256      1.28313256875016     -0.78392159767089
  N   -1.06706448259553     -0.34043301592527     -1.30704662015600
  O   -1.40198806999178     -1.47400774181530     -1.63492649909511
  O   -0.70963520562004      0.56323494911104     -2.05842715506092
  C   -1.70358591965816      1.19030665007342      0.45006737860555
  N   -2.22365782506086      2.21504541354859      0.69214639120960
