16
Coordinates from ORCA-job run
  C   0.35963067180281      0.06483833380017      0.57217702778385
  C   -1.03405721222984     -0.05626690059324     -0.07885428025511
  Cl  -0.04893998459219      0.22728219612634      2.37585292415954
  H   -1.57181557791643     -0.89455867025276      0.36527572987290
  C   1.18634622791423     -1.19891549966714      0.42776257845468
  H   1.48871307966437     -1.32874808768059     -0.61160242831940
  H   0.62667627368011     -2.07485749379761      0.75373764453111
  H   2.07919340411819     -1.11091124053769      1.04986554555334
  N   1.03962263860418      1.17741447856468      0.04304535501923
  H   1.98586958888468      1.24507392918151      0.39384952504457
  H   0.55460556986759      2.05447164598304      0.18929419637831
  N   -0.87047127285295     -0.39492624218279     -1.54627973508534
  O   -0.80834793129671      0.52982757985304     -2.34500367351237
  O   -0.78563867985263     -1.59443531811795     -1.79585738075984
  C   -1.80152919611742      1.17650909972755      0.04488421859091
  N   -2.39985759967796      2.18020218959345      0.16185275254363
