16
Coordinates from ORCA-job run
  C   0.34163874907353     -0.03900732697430      0.66974283029878
  C   -1.04090600340871      0.20077299951424      0.01358953203962
  Cl  0.12137492231882     -1.02514851218935      2.14507172437110
  H   -1.75187195129972      0.45584981116364      0.80440929164620
  C   1.31667468150105     -0.73838103758135     -0.26327128127542
  H   2.28919876160450     -0.80702417903131      0.22692158368662
  H   1.43050643066531     -0.15128062864934     -1.18034071957446
  H   0.98520618128876     -1.74500037659076     -0.51710251300485
  N   0.75641073661904      1.27837596505914      1.12607638208392
  H   1.16842881362178      1.79854422506351      0.35786971177458
  H   1.45102042622320      1.18209699032697      1.85705048765796
  N   -1.62633505171939     -1.00815991307668     -0.70220459471306
  O   -2.25200244698897     -0.78778502920669     -1.73302209645329
  O   -1.47330160178900     -2.09610770274641     -0.16410904105536
  C   -0.93982026592497      1.29513338544422     -0.94699147357214
  N   -0.77822238178523      2.18812132947444     -1.69268982391019
