16
Coordinates from ORCA-job run
  C   0.36413580462236      0.10146358182060      0.64794756417714
  C   -1.05232207535618     -0.04850047990900      0.05398031403062
  Cl  0.10546527507530      0.11230347655173      2.43349088564399
  H   -1.55774323759024     -0.89072566319669      0.52687874110319
  C   1.22027956781173     -1.11424415317752      0.31326494963840
  H   2.16172423843884     -1.04657821519583      0.86121008781737
  H   0.72857355251502     -2.05042459139351      0.58531327941827
  H   1.44724102408709     -1.12488854414952     -0.75598740631863
  N   0.90431906378678      1.37778609718591      0.28034800622123
  H   1.85379536912075      1.47485391413992      0.61860345779145
  H   0.88310882691456      1.49835114734010     -0.72578976785408
  N   -0.93279763706602     -0.42353419987633     -1.40621681592559
  O   -0.49918666281412      0.43659017307551     -2.16824944244614
  O   -1.23119609947168     -1.57559040067587     -1.70030777483197
  C   -1.85148552422976      1.16423505361444      0.17363338051747
  N   -2.54391148584444      2.10790280384605      0.26288054101727
