16
Coordinates from ORCA-job run
  C   0.41510836196652      0.10790601618808      0.61477447534248
  C   -1.04846991382514      0.02074613242534      0.13207624121195
  Cl  0.29074497060442      0.21547982819742      2.41145245394892
  H   -1.56738461631212     -0.76325749805142      0.68391758560191
  C   1.17152285193097     -1.17225102214247      0.28001247277762
  H   1.31875632318471     -1.24440318415175     -0.80080272887652
  H   0.64733175366503     -2.06333430993281      0.63139289801483
  H   2.15294572143403     -1.13886815044299      0.75642016262838
  N   1.00130211831815      1.33059753954348      0.14713794195958
  H   0.91816931356661      1.40285148983705     -0.86091189183902
  H   1.97684950196170      1.38196185099151      0.41434124264579
  N   -1.06051705304640     -0.43192907908828     -1.31114345555283
  O   -1.45191516588180     -1.57420933176934     -1.52125533065191
  O   -0.62745007055747      0.35788840316471     -2.14591165689945
  C   -1.75924985227582      1.28811185645202      0.24291555691546
  N   -2.37774424473338      2.28270945877941      0.32458403277279
