16
Coordinates from ORCA-job run
  C   0.39974018379800      0.07246686735403      0.54421430083186
  C   -1.03783034213919     -0.03695624241625     -0.00628272954374
  Cl  0.11942675814645      0.29505796863476      2.36547829277058
  H   -1.55918345510758     -0.85241240530721      0.49612815971096
  C   1.18999422718694     -1.21234721380351      0.38230841781010
  H   2.12619815135796     -1.12385168834813      0.93698207567327
  H   1.41555335899826     -1.38098617184995     -0.67082218153189
  H   0.63837819050703     -2.06566271827400      0.77512921251638
  N   1.06298017364942      1.15433456169000     -0.06367931061529
  H   0.60524281756846      2.04532982361655      0.08594938464702
  H   2.03202010250330      1.21324343413245      0.21974099577865
  N   -0.98228157846224     -0.41642770997904     -1.47204361957723
  O   -0.93227678955085     -1.62308062783288     -1.69424815510379
  O   -0.96177397267971      0.48629939324612     -2.29762911842736
  C   -1.77184556830996      1.21406444005706      0.13574570635175
  N   -2.34534225746627      2.23092828907999      0.26202856870866
