16
Coordinates from ORCA-job run
  C   0.48894145578847     -0.22875807372617      0.39730884442254
  C   -0.75247279431296      0.21495427573678     -0.44623530998836
  Cl  0.26809815706941     -1.97837157426985      0.73430288675099
  H   -0.70937238183597      1.30410061480916     -0.54174693989691
  C   1.74496307582340     -0.03906254649667     -0.43611023066921
  H   2.60128609471857     -0.32070502060880      0.17689734608784
  H   1.84725866348420      1.01130470914450     -0.72891382090633
  H   1.72889403262934     -0.65541061145740     -1.33362324447051
  N   0.64207812402308      0.45333329550322      1.64405542769121
  H   0.97383127287043      1.39890337927821      1.49686466248935
  H   -0.21713254833936      0.47773583199249      2.17833106979000
  N   -2.03772940657637     -0.06362908050849      0.29539628062930
  O   -2.75158210493168     -0.97591417014137     -0.09688140824311
  O   -2.24177672646731      0.65887943328022      1.26919282486741
  C   -0.80073341545349     -0.40180776585497     -1.76302006634346
  N   -0.78555149848975     -0.85655269668086     -2.84581832221077
