16
Coordinates from ORCA-job run
  C   0.47174603237285      0.05838539282231      0.61345471219579
  C   -1.01665589416288     -0.02885793371951      0.13641819055035
  Cl  0.32727290340880      0.16511269996585      2.40196266026769
  H   -1.54292521537388     -0.82133256454213      0.66903527095828
  C   1.21574409772330     -1.21132588415873      0.24375612059630
  H   1.36533005327456     -1.26176942652785     -0.83832025024591
  H   2.19244709458110     -1.18790505542030      0.72526791037795
  H   0.67164545362872     -2.10028431193466      0.56533330897145
  N   1.19929826763999      1.20524959798803      0.16933144487866
  H   0.74826715920954      2.06865881091654      0.44970679683466
  H   1.29763420732382      1.19452738700090     -0.83919407881284
  N   -1.02164777058427     -0.43254463589151     -1.31484431135326
  O   -1.36287856993147     -1.58510999735064     -1.55973429425448
  O   -0.62155181445143      0.40031477750314     -2.12418793019795
  C   -1.69792384324716      1.24810881469341      0.28285880404849
  N   -2.22480216141156      2.28877232865518      0.41915564518481
