16
Coordinates from ORCA-job run
  C   0.43395111091837     -0.21245025664755      0.38383612846775
  C   -0.78124711953169      0.14185149061531     -0.50275811231631
  Cl  0.24465384348372     -1.86483753434452      1.03688637296944
  H   -0.59069638767002      1.11590755952246     -0.96265493104656
  C   1.69224478743692     -0.19345769063603     -0.47731825082262
  H   2.55343071193012     -0.44490885190697      0.14434111481545
  H   1.84128729370760      0.80938244720674     -0.88966505026818
  H   1.63768513150542     -0.91401342861579     -1.29543599872685
  N   0.42217119316620      0.69382740260279      1.50661589342365
  H   1.15836196545731      0.44791498198497      2.15747709313365
  H   0.56220894294460      1.64990964224225      1.19634305957237
  N   -2.01489582826843      0.35517743377616      0.34009204065860
  O   -2.26206617123147      1.52271319996287      0.61998597878572
  O   -2.64081093478743     -0.63829769912918      0.68232336854382
  C   -1.03775349071880     -0.84862993977197     -1.53706050463077
  N   -1.21652504834240     -1.62008875686153     -2.40400820255916
