16
Coordinates from ORCA-job run
  C   0.35052631434656     -0.04161228013535      0.62851867503235
  C   -1.04811092728553      0.21389468026453      0.01438677409683
  Cl  0.11504299449480     -1.18030204669396      1.98654623072187
  H   -1.70541152464690      0.55028975246186      0.81615179820889
  C   1.35685768204961     -0.63554120091232     -0.34220876053778
  H   1.47699412996643      0.02898222066829     -1.20230293347047
  H   1.05697954067323     -1.61769212310400     -0.70372694387569
  H   2.31658117269115     -0.72617952668121      0.16988952324270
  N   0.73015155033133      1.24236807540907      1.19464016155480
  H   1.16133376651455      1.81521853924881      0.47558299660653
  H   1.40696461006469      1.10322328976893      1.93537742168832
  N   -1.66923554799028     -1.03400732289661     -0.55772091332571
  O   -1.22595172448995     -1.43698658763531     -1.62921720782987
  O   -2.55909803111761     -1.54945055171124      0.10968152334471
  C   -0.94714516676725      1.21909547821668     -1.03669955561916
  N   -0.81747883883485      2.04869960373184     -1.85789878983827
