16
Coordinates from ORCA-job run
  C   0.49623672554068      0.03691416803267      0.59513353874577
  C   -1.01206907326419     -0.00316511683707      0.17710002353644
  Cl  0.42545610161934      0.12274334242505      2.38946497002573
  H   -1.53833069200221     -0.78860462379052      0.72001416897786
  C   1.18885058503417     -1.24782531673876      0.18016558364070
  H   1.29448438096724     -1.28742633984462     -0.90753085164946
  H   0.63262190315237     -2.12565443349038      0.51133790588936
  H   2.18382846548481     -1.25839749280653      0.62315436762418
  N   1.23750824506752      1.16894445031620      0.13693963456132
  H   1.29906066006388      1.16736708116854     -0.87453490547559
  H   0.82079344987809      2.04087642886741      0.44291466499122
  N   -1.08580357207537     -0.38612760994886     -1.27804029266406
  O   -1.46789941019584     -1.52553436427889     -1.52404693915392
  O   -0.69578494766678      0.44716777750526     -2.09182879207788
  C   -1.65014938864795      1.29022169817040      0.36702932977133
  N   -2.12880343295577      2.34950035125012      0.53472759325699
