16
Coordinates from ORCA-job run
  C   0.38211584151408      0.11203774913248      0.63560895940627
  C   -1.04950127782385      0.08084203165239      0.06033618313959
  Cl  0.14871231488269      0.30540024552762      2.41427470108068
  H   -1.64326851791244     -0.65440908310699      0.60380696724004
  C   1.08469145713557     -1.22069701669195      0.40514217024826
  H   0.48967877610145     -2.06528280146684      0.75855329975266
  H   1.29489689177858     -1.35014731090916     -0.65975296195494
  H   2.03450884556866     -1.21839877361970      0.94271141610770
  N   1.06424484618380      1.27914143209025      0.15815405527114
  H   2.02315763018436      1.29112919550142      0.48325758084510
  H   1.04365885140863      1.31716311348655     -0.85467275602286
  N   -0.99383701941871     -0.42511341522360     -1.36375952570577
  O   -1.42392978742685     -1.55655620911540     -1.55796710039549
  O   -0.47790367549977      0.31410042146274     -2.19796787382070
  C   -1.70031317851397      1.38473041163536      0.08092492684638
  N   -2.27891199816219      2.40606000964484      0.09234995796194
