16
Coordinates from ORCA-job run
  C   0.46840418965531      0.03481625625830      0.61763873302709
  C   -1.01851091585134      0.05761328928684      0.12767361570214
  Cl  0.31804617398727      0.19872072737070      2.40146051653853
  H   -1.61171838874347     -0.67599374818675      0.67402307355771
  C   1.10760475435605     -1.30112418960949      0.28724389732051
  H   1.26149507015514     -1.39126037131461     -0.79166489622798
  H   0.48902014711420     -2.13364192517723      0.62480820394137
  H   2.07882640411451     -1.34618463519033      0.77821464918347
  N   1.29182236600419      1.10574506833906      0.15265728337944
  H   0.91032611989092      2.01045074788401      0.40468396675729
  H   1.39890572131302      1.05968365926298     -0.85400865375801
  N   -1.04485237886500     -0.38073860543665     -1.31339805352535
  O   -0.56832012810479      0.39455367182837     -2.13834623828567
  O   -1.47841702896374     -1.50694776381213     -1.53348317850448
  C   -1.59210539534059      1.39003232348613      0.23551318628225
  N   -2.01152671072172      2.48327549501076      0.32598389461165
