15

C	-0.324807	-0.043867	-1.485449
C	0.0	0.0	0.0
F	-0.170442	1.264335	-2.016737
H	1.09604	0.0	0.0
H	-0.323064	-0.950782	0.434037
N	0.519576	-0.979071	-2.121389
H	1.478604	-0.845124	-1.801695
H	0.466565	-0.90024	-3.128534
C	-1.748829	-0.369241	-1.756394
N	-2.881678	-0.62015	-1.935962
C	-0.595619	1.185746	0.736422
H	-0.218382	2.120342	0.322632
H	-0.308601	1.143841	1.789238
H	-1.689192	1.194591	0.680092
Cl	3.481097	0.0	0.0
