15

C	-0.441729	-0.050027	-1.445487
C	0.0	0.0	0.0
F	-0.602067	1.316209	-1.888946
H	1.093205	0.0	0.0
H	-0.413538	0.899197	0.465042
N	0.524504	-0.769903	-2.141452
H	1.467066	-0.604424	-1.804661
H	0.387492	-0.936526	-3.118791
C	-1.779032	-0.636977	-1.687932
N	-2.824197	-1.15816	-1.845943
C	-0.403986	-1.219852	0.810055
H	0.083163	-1.130902	1.777516
H	-1.480708	-1.25982	0.987134
H	-0.091562	-2.136426	0.315185
Cl	3.401333	0.0	0.0
