13
Coordinates from ORCA-job run
  C   -0.54904633346674      0.08410180456846      0.04398737078141
  C   0.78713745336474      0.06245514598883      0.16794275866953
  N   -1.30506104610341     -0.84264841613945     -0.79848347116480
  O   -1.09092758116653     -0.79904943975742     -2.00214908110468
  O   -2.09552996146081     -1.54712597991470     -0.18294179827613
  N   -1.40491897720379      1.07893108883203      0.70319735354152
  O   -1.04536344840562      1.48305830242065      1.80145867603348
  O   -2.39662061663906      1.40764305855949      0.06082832142937
  C   1.55771121378504      0.95417493825853      0.95403982242365
  N   2.24926573554939      1.66650304330105      1.59001400292467
  N   1.57248157644994     -0.94418348694451     -0.59675161068966
  O   1.11655534254126     -2.07913427068688     -0.63669448839819
  O   2.60331664275563     -0.52272578848606     -1.10344785617017
