13
Coordinates from ORCA-job run
  C   -0.53643855571485      0.07410899316349     -0.12816381582889
  C   0.79811552753275     -0.06690493411590     -0.10558784267912
  N   -1.41237539388145     -0.26649751117876      0.99291761312264
  O   -2.22635860475066     -1.14667300638636      0.74225958807382
  O   -1.26000485919484      0.36641967559162      2.02864593710434
  N   -1.26900130114320      0.63798569569209     -1.26922380561141
  O   -2.26109702595367      1.29303854614502     -0.96767774723384
  O   -0.82004914760481      0.41358038450590     -2.38586009879469
  C   1.68113757799027      0.27288819878754     -1.15982229487583
  N   2.46057643638120      0.54850243747604     -2.00042116473870
  N   1.45412655320624     -0.58594595076186      1.12541495543761
  O   2.48809656244680     -0.01422321411227      1.44314186829911
  O   0.90327223068623     -1.52427931480656      1.68537680772499
