13
Coordinates from ORCA-job run
  C   -0.53661310474418      0.14592670155565     -0.01650044471386
  C   0.78706533204452      0.03900106038102      0.17787376647741
  N   -1.29073220843521     -0.66932166636697     -0.96877196691697
  O   -1.31429847596104     -1.87605807778296     -0.76917575371790
  O   -1.83948312361208     -0.02544853465815     -1.85434290023086
  N   -1.39266101158267      1.06351067625074      0.74645836552584
  O   -2.52328224127001      0.64342178220067      0.96875371619104
  O   -0.90005488611427      2.13076960446182      1.08866209957434
  C   1.54761629158405      0.79256513516546      1.10548381167428
  N   2.22649595711149      1.38890263147906      1.86282378149872
  N   1.55759254188485     -0.97021063689127     -0.59851328427208
  O   2.40334954692246     -1.58152280811481      0.04018997308583
  O   1.27500538217206     -1.08153586768025     -1.78394116417582
