13
Coordinates from ORCA-job run
  C   -0.49847929785325      0.22230278381101     -0.10799602330763
  C   0.75118137557663     -0.06122431317575      0.29113970535256
  N   -1.29150287363685      1.32624786861824      0.44766816474284
  O   -0.68487742200923      2.33614777999791      0.78074198708233
  O   -2.49482911681160      1.10265865365012      0.52764530460121
  N   -1.23610129700265     -0.55913958341118     -1.10079773114153
  O   -1.54742867030461      0.07129035331050     -2.10351160540861
  O   -1.48036205112372     -1.72432800745983     -0.81922771739015
  C   1.48861626781044      0.65582397642846      1.26510163717101
  N   2.14334182992336      1.21114943935784      2.07319029127919
  N   1.44764426798211     -1.24407393351063     -0.28416885439629
  O   2.08573234514903     -1.91213678176152      0.51793214502353
  O   1.31806464230034     -1.42371823585517     -1.48771730360847
