13
Coordinates from ORCA-job run
  C   -0.53742755844572      0.14508274203617     -0.01798463311347
  C   0.77305629840317      0.00031565687469      0.23277094933929
  N   -1.32347255381513     -0.79347628556875     -0.81896974048619
  O   -2.23843388743751     -1.33009736418615     -0.20681299221202
  O   -1.00684570740861     -0.92039372294513     -1.99382923986395
  N   -1.32482804746601      1.29568235970026      0.44285574949402
  O   -1.01496011531197      1.78785391556986      1.52013918537858
  O   -2.21420852414613      1.64781334922614     -0.32482101799566
  C   1.57352493376145      0.89606981152049      0.98349322340978
  N   2.28524362971684      1.60503769415508      1.60064622973175
  N   1.49851699890327     -1.16759860431123     -0.33737303693543
  O   0.92151540141633     -2.24579518907118     -0.29248791246540
  O   2.60831913183002     -0.91949436300024     -0.78862676428128
