13
Coordinates from ORCA-job run
  C   -0.50288120691938      0.19752662608722     -0.13125572056605
  C   0.76306057145135     -0.24725938969042     -0.09922294292392
  N   -1.07347062444079      0.92793149030055     -1.27047177904114
  O   -0.67669932835260      0.61814384747225     -2.38642186452186
  O   -1.89117552509792      1.79050802254103     -0.96804534120613
  N   -1.44675568192496      0.05455032780277      0.97727901054191
  O   -1.16660384879036      0.62579763626713      2.02208496642339
  O   -2.43690073190528     -0.61399868309323      0.70789745318864
  C   1.71215729037283     -0.10779971529701     -1.14164276113351
  N   2.53803394198366     -0.01635734587467     -1.97804881722317
  N   1.26832896593121     -0.91728289232541      1.12975737726559
  O   2.40437446590522     -0.60624993190983      1.46095038570501
  O   0.50853171178705     -1.70650999228040      1.67514003349127
