13
Coordinates from ORCA-job run
  C   -0.53662382244853      0.14652331834454     -0.03182795448169
  C   0.76603276374136     -0.00309115887306      0.25452891228163
  N   -1.30274667760193     -0.78576812911231     -0.85892871994852
  O   -0.95387793314700     -0.90715431297779     -2.02528667271500
  O   -2.23581825421851     -1.32304209121218     -0.27547575484876
  N   -1.33366569734452      1.29679894386691      0.41357360074714
  O   -2.20302367383396      1.65367032361450     -0.37445139145167
  O   -1.05001336535904      1.78395361131769      1.50034866668943
  C   1.54759801396779      0.88716167337253      1.03130248398174
  N   2.24875919525422      1.59293065119633      1.66404283091250
  N   1.50401180424159     -1.17007941918048     -0.30106280884164
  O   2.62616421289946     -0.92295794947608     -0.72114342498466
  O   0.92320343384906     -2.24694546088059     -0.27661976734050
