13
Coordinates from ORCA-job run
  C   -0.53749323281595      0.13922190905687     -0.04351625201512
  C   0.76088475318588      0.00782727832873      0.26987319101151
  N   -1.27359181075682     -0.80372403304856     -0.88565959485566
  O   -0.89904839432072     -0.92244407036208     -2.04419768676952
  O   -2.21146095253204     -1.35260892666275     -0.32071849117448
  N   -1.35908832924184      1.27932340023927      0.38330503713068
  O   -2.21486406939090      1.62469866179438     -0.42449713280572
  O   -1.10627621479930      1.77069885765348      1.47572953678252
  C   1.51363235695308      0.90865838089291      1.06270696757904
  N   2.18831497789784      1.61659922191583      1.72127718701767
  N   1.52576897713695     -1.14907734719411     -0.27003549507519
  O   2.65251774102915     -0.88628155228176     -0.66783953375405
  O   0.95970419765468     -2.23389178033220     -0.25642773307169
