13
Coordinates from ORCA-job run
  C   -0.53707942879575      0.14007982000982     -0.04391523250467
  C   0.78781971984868      0.07552418724128      0.16125087549598
  N   -1.29574418970586     -0.85886036415004     -0.79631179647747
  O   -1.31334698469892     -1.99668567455199     -0.34709353926666
  O   -1.85289667375477     -0.41734931297807     -1.79371049682050
  N   -1.38891414936316      1.20066169971028      0.51005066396606
  O   -2.51928746410074      0.84024324641330      0.82043709406478
  O   -0.89289581033074      2.31484152164979      0.61671732271261
  C   1.55369427870877      1.00942884212411      0.90143830701545
  N   2.24123841204674      1.74997500655124      1.50888278238751
  N   1.55276774027542     -1.07801690487511     -0.38509917364239
  O   2.39383964857548     -1.54735474009327      0.36928552975235
  O   1.27080490129482     -1.43248732705133     -1.52193233668304
