13
Coordinates from ORCA-job run
  C   -0.49619474122715      0.17281011033954     -0.17664733063920
  C   0.80384676009206     -0.08938109396202      0.02966360072750
  N   -1.01342230008657      0.76925489238668     -1.41469231914176
  O   -2.12013381189427      0.36359326224191     -1.75385227240201
  O   -0.30009721072291      1.58789929063522     -1.98019625385829
  N   -1.55577981917760     -0.14755566011587      0.78006268870739
  O   -2.16906801008054      0.82908807350944      1.19250019769745
  O   -1.72927047272390     -1.33012981164837      1.04070879536210
  C   1.85474372242246      0.18599239835543     -0.87957493129424
  N   2.75186334400434      0.42461458010119     -1.60652419681450
  N   1.22044287152291     -0.76059494307475      1.29073299776272
  O   0.67943534400497     -0.37878232700266      2.31978899527349
  O   2.07463432386620     -1.62680877176573      1.15903002861936
