13
Coordinates from ORCA-job run
  C   -0.54147449177347      0.12132433490431     -0.04624866330354
  C   0.75819156003355      0.02963005334528      0.27601735085628
  N   -1.23964032516324     -0.83635336212874     -0.90375939667277
  O   -2.16359014353132     -1.42106744704359     -0.35194016147277
  O   -0.85238496110735     -0.93088874882811     -2.06033363177352
  N   -1.40336891545602      1.22900119632057      0.38621270790087
  O   -2.26335364709219      1.55509428793976     -0.42520261126533
  O   -1.17585655789523      1.71610553253231      1.48601970700602
  C   1.47409205150047      0.94713361858230      1.08375232692976
  N   2.12107466699766      1.67532050688180      1.74802663082999
  N   1.56524422110821     -1.09567952160809     -0.26894969431852
  O   1.03490403375687     -2.19852309734587     -0.27163269797919
  O   2.68616250862203     -0.79209735355193     -0.65396186673724
