13
Coordinates from ORCA-job run
  C   -0.51740031956526      0.17014740556758     -0.11518113423581
  C   0.80325647100616     -0.06189449834772     -0.05616660192951
  N   -1.46597430157394     -0.24512890692678      0.91808232791591
  O   -2.05976954151559      0.68223654858165      1.45423375761630
  O   -1.58170136355055     -1.44709989941278      1.11427711723104
  N   -1.17116670710245      0.82560873882157     -1.25515084216751
  O   -2.29910435539826      0.41367932898716     -1.50472799563298
  O   -0.53466070107657      1.69277285161388     -1.83966908865630
  C   1.74939523885489      0.30296711040630     -1.04534254708243
  N   2.57866383374616      0.58100959761611     -1.83595999588822
  N   1.36197208520733     -0.79498057839566      1.11213320718429
  O   2.21798521964204     -1.62658916172628      0.84276873979795
  O   0.91850444132606     -0.49172853678503      2.21170305584726
