13
Coordinates from ORCA-job run
  C   -0.49728524496101      0.21276129415774     -0.13286814486736
  C   0.73339547021672     -0.04856910879293      0.33468409253887
  N   -1.15702179588234     -0.57230035889638     -1.17617151291630
  O   -1.39142552885261     -1.74598545936627     -0.92299190106142
  O   -1.42188915546505      0.06371673552173     -2.18877935545101
  N   -1.34660248493545      1.29159415690077      0.38814480681130
  O   -2.54752961810605      1.04257121284249      0.38956616523290
  O   -0.78314516313513      2.30790068554329      0.77330463466324
  C   1.39869919651684      0.67225160680256      1.35657795979207
  N   2.00298553898378      1.23715784791823      2.19671712233280
  N   1.48727491781896     -1.20976963064562     -0.21206986531891
  O   1.43453475629815     -1.37548882490106     -1.42332935738049
  O   2.08900911150319     -1.87584015708455      0.61921535562434
