13
Coordinates from ORCA-job run
  C   -0.53662285144920      0.13655655232344     -0.05271572305004
  C   0.75260723381246     -0.00193917337851      0.29413281881390
  N   -1.23784758221766     -0.76465272700651     -0.96716756529451
  O   -0.82868010809955     -0.81630393732002     -2.11879420462459
  O   -2.18660611749191     -1.35104119779408     -0.46102439918545
  N   -1.38166184982698      1.24511404314907      0.40911957294485
  O   -2.21250959937443      1.62997311819024     -0.40687837370955
  O   -1.17055968271397      1.67526329052073      1.53574202995843
  C   1.47109200036396      0.86129961466556      1.15741162484952
  N   2.11539779118002      1.54913505349794      1.86581076890493
  N   1.54491938096396     -1.12211016675216     -0.28200519439363
  O   0.98720429033196     -2.20922727318006     -0.35027162623848
  O   2.68326709452137     -0.83106719691563     -0.62335972897536
