13
Coordinates from ORCA-job run
  C   -0.50099152711098      0.21042137433529     -0.11901479052521
  C   0.79446723874660     -0.13464518519935     -0.05707191405769
  N   -1.47476347457175     -0.08054990948541      0.93321318839450
  O   -1.69377811941632     -1.25944076068678      1.17579621774238
  O   -1.98130171178550      0.91497032287924      1.43550897474038
  N   -1.10347723616005      0.87811047977825     -1.28000776135720
  O   -2.26417336924407      0.55542022817121     -1.51026770141320
  O   -0.39909082848884      1.66571543147880     -1.89819134382680
  C   1.76133157931706      0.10825232091791     -1.06361102459668
  N   2.60229044944437      0.28213572127910     -1.87144267184118
  N   1.29607391525502     -0.86975726449108      1.13582827675934
  O   2.07502358806644     -1.78178470121339      0.89427419303539
  O   0.88838949594803     -0.48884805776379      2.22498635694597
