13
Coordinates from ORCA-job run
  C   -0.54843075655052      0.10509341675785     -0.03839900615471
  C   0.77126123134434      0.03236437199994      0.18377875292122
  N   -1.29121609338029     -0.76832108295416     -0.95053549068286
  O   -2.28625908243233     -0.26134333817016     -1.45666048915890
  O   -0.84641830382681     -1.89645506830696     -1.11928796685733
  N   -1.39537381229342      1.07420873387468      0.65836078663306
  O   -1.17823946390942      2.26052625236440      0.44206382338311
  O   -2.24296586698858      0.57193346544319      1.38813970999781
  C   1.46377538173557      0.89636556169887      1.06797862888688
  N   2.05915757412343      1.60483188432778      1.79876897057144
  N   1.62084048732947     -0.97367034079531     -0.50284547659661
  O   1.75344250927550     -0.83814666356658     -1.70958365565216
  O   2.12342619557304     -1.80638719267352      0.23722141270904
