13
Coordinates from ORCA-job run
  C   -0.50492963509424      0.21829439916112     -0.08788117200411
  C   0.79056831798985     -0.13238042923123     -0.09600256148462
  N   -1.44030202572662     -0.13663846664514      0.97947813695988
  O   -1.65852577052788     -1.32784722086939      1.15246567403672
  O   -1.92007042659782      0.82613160858906      1.56499793895297
  N   -1.14687868954336      0.95975243891655     -1.18110445004836
  O   -2.31929186689550      0.66137802648497     -1.38293528039112
  O   -0.45948122433332      1.77719534824036     -1.77943001309034
  C   1.72210729297459      0.17335692086374     -1.11851868966632
  N   2.54380054033712      0.40198209360689     -1.93259613733123
  N   1.33134713435523     -0.94468219140665      1.02777950468568
  O   2.09590512925955     -1.84157912861518      0.69921177949586
  O   0.96575122380238     -0.63396339909508      2.15353526988498
