13
Coordinates from ORCA-job run
  C   -0.52164605705310      0.16587434832687     -0.09871698186001
  C   0.77030471380515      0.03685021511474      0.24112900852400
  N   -1.24748146735988     -0.79496628975699     -0.92935756498811
  O   -1.67380282949787     -0.32812073308481     -1.97829460430388
  O   -1.37118886749963     -1.92873796672811     -0.48677993529823
  N   -1.37306859724104      1.26688591890194      0.37012692664339
  O   -0.83856588063896      2.35674990356236      0.52852343245005
  O   -2.54455896497520      0.96038120483092      0.56505336393295
  C   1.49992065798903      0.93168842119762      1.06195177064360
  N   2.14891830685434      1.63697226757830      1.74856612943074
  N   1.53201170085230     -1.15139119075805     -0.23095027148758
  O   2.27725571937186     -1.65412189438611      0.59899120096345
  O   1.34290156539298     -1.49806420479868     -1.38924247465037
