13
Coordinates from ORCA-job run
  C   -0.52421029398064      0.16638234788727     -0.08621454004319
  C   0.76911908837204      0.02847283128839      0.24485987137480
  N   -1.23959622932402     -0.74472918118070     -0.97972381671464
  O   -1.35282613684543     -1.90649248728894     -0.61389890561073
  O   -1.66783263408031     -0.21345235422487     -1.99687791324957
  N   -1.38715536860296      1.22498937141376      0.45345512995984
  O   -2.55679241527298      0.89591392755742      0.62122511215090
  O   -0.86300065474835      2.30578611938934      0.68991549846832
  C   1.49237677209005      0.87572973304512      1.11990905108345
  N   2.14480674926713      1.55304314482483      1.83094414347607
  N   1.54113004493964     -1.12095056532575     -0.30140986005376
  O   2.28629423855383     -1.67169958656166      0.49758649939070
  O   1.35968683963203     -1.39199330082420     -1.48077027023222
