13
Coordinates from ORCA-job run
  C   -0.54155608042982      0.12731381953919     -0.01607806064674
  C   0.76929707872137      0.00634772517140      0.24538153851411
  N   -1.27884424862579     -0.75966615905126     -0.91619054101690
  O   -2.18585691698276     -1.38004532220854     -0.37535567049946
  O   -0.93585540806592     -0.76856548137335     -2.09044358277385
  N   -1.37870102090074      1.20033964497035      0.53511713878767
  O   -1.10963903954293      1.59432729964974      1.66254584929345
  O   -2.26271197748308      1.59668120259897     -0.21706208233981
  C   1.52261497026951      0.85514550907215      1.09323729614549
  N   2.18716894003627      1.52283584526390      1.80216616102217
  N   1.54748452282060     -1.07522747271772     -0.41727989416675
  O   1.01252208243372     -2.17389179694298     -0.48223159684111
  O   2.65307709774956     -0.74459481397186     -0.82380655547827
