13
Coordinates from ORCA-job run
  C   -0.53947891105698      0.13128306331664     -0.04044576758642
  C   0.75949074561274      0.00908279310355      0.27453472354397
  N   -1.25516252632303     -0.78870680037694     -0.92439157324927
  O   -0.87385884836875     -0.85294070768248     -2.08500234194989
  O   -2.18574973852390     -1.37642996334320     -0.38704669412082
  N   -1.38226492036810      1.23871026759143      0.42790305840573
  O   -1.14541620267014      1.68736319935563      1.54205574128749
  O   -2.23775064168161      1.60413952590386     -0.37150892937543
  C   1.49225634544176      0.89031314686482      1.10705095978021
  N   2.15104828680460      1.58982411890635      1.79024918045103
  N   1.54670313901756     -1.11194596221581     -0.30696318098373
  O   0.99835759235677     -2.20542839965829     -0.34230586432045
  O   2.67182567975908     -0.81526428176557     -0.68512931188242
