13
Coordinates from ORCA-job run
  C   -0.50934934921574      0.15665521295615     -0.15872088733149
  C   0.80700413351398     -0.03685132947920      0.01829258666322
  N   -1.07533951170060      0.81880198683766     -1.34110909947511
  O   -2.16020372881353      0.37710206483459     -1.70479476712415
  O   -0.41706284557875      1.72007115225256     -1.84421662651654
  N   -1.53683495499000     -0.31006056208366      0.77214221726934
  O   -2.20461306787458      0.58735973629412      1.27093735366404
  O   -1.63524943306068     -1.51914723433096      0.92953829421301
  C   1.82758650590479      0.37904639473495     -0.87174817746222
  N   2.71449810220148      0.69906127431739     -1.57961880274375
  N   1.27906089250074     -0.77917935264562      1.21869095632965
  O   0.72035794602369     -0.52176253900645      2.27657554867897
  O   2.18914531108920     -1.57109680468151      1.01503140383504
