13
Coordinates from ORCA-job run
  C   -0.54342620920409      0.11466025651464     -0.03128429066405
  C   0.78301486338395      0.09787041294747      0.17341203768424
  N   -1.24943358390514     -0.82848480782007     -0.89879195200030
  O   -1.21244084500493     -2.00918471963015     -0.58120927613948
  O   -1.82575762517625     -0.30362613846740     -1.84340008240980
  N   -1.45044820852148      1.05605603434548      0.63795052993456
  O   -1.01737798082464      2.17700832174771      0.87179854966348
  O   -2.55761170682280      0.59960731056178      0.90275690623920
  C   1.49674506228850      0.97903923634943      1.02231244809724
  N   2.14230075956736      1.68249809202380      1.71401636244117
  N   1.60996972103458     -0.94069702413290     -0.49895129889300
  O   2.48517268454740     -1.43842616720925      0.19622935045384
  O   1.33829306863758     -1.18532080723050     -1.66683928440709
