13
Coordinates from ORCA-job run
  C   -0.49143800966867      0.22132841663150     -0.13606927912774
  C   0.73039097091366     -0.06581298582840      0.33961179177437
  N   -1.15838016470629     -0.54275821752271     -1.19010039072903
  O   -1.41591950751780     -1.71413488104926     -0.94944063909743
  O   -1.40512919008027      0.10736286349302     -2.19848483353123
  N   -1.32495599056617      1.31133736496691      0.38697605458267
  O   -2.52950644552532      1.08010956811479      0.38614154712534
  O   -0.74722595333678      2.31842846341117      0.77532441992785
  C   1.39845911780599      0.63639712229884      1.37273971854896
  N   1.99900465953390      1.19068407095828      2.22254256443661
  N   1.46880784771652     -1.23507788158870     -0.20945567409175
  O   1.41906536377523     -1.39434898887704     -1.42181370640863
  O   2.05682730165603     -1.91451491500841      0.62102842658998
