13
Coordinates from ORCA-job run
  C   -0.53798116093487      0.13261884418313     -0.04875254788148
  C   0.75740675972879      0.01166825576689      0.28136048417380
  N   -1.24981708936816     -0.80343041379542     -0.91887984029337
  O   -0.86155496260706     -0.89092118874400     -2.07560843222255
  O   -2.18514739086503     -1.37826307594750     -0.37591850263589
  N   -1.38067174458274      1.25361742814271      0.38701543371550
  O   -1.15147772410082      1.72637525336905      1.49280274979325
  O   -2.22837843573305      1.60367720647744     -0.42728605666686
  C   1.48636483725171      0.90814041697478      1.10097957246623
  N   2.13662123275153      1.62097802364333      1.77853190319262
  N   1.54536494541485     -1.12513189120703     -0.26758564137706
  O   2.67796259225110     -0.84280261207070     -0.63440579052967
  O   0.99030814079375     -2.21552624679265     -0.29125333173454
