13
Coordinates from ORCA-job run
  C   -0.54063518522507      0.12840369024736     -0.01782711622387
  C   0.77064559196011      0.01013350065219      0.24368310279289
  N   -1.28570228956486     -0.78390939525253     -0.88530292255241
  O   -2.18923165790488     -1.38651964490668     -0.31917775255001
  O   -0.95218729080024     -0.82771890036086     -2.06148217726583
  N   -1.37153434557355      1.22345424205568      0.49930546538333
  O   -2.26133019178157      1.59282116021454     -0.25978499467327
  O   -1.09321204198253      1.65900796699702      1.60898762066233
  C   1.53035036524181      0.88454120188780      1.05919007205165
  N   2.20493551360313      1.57666931358219      1.73443146319211
  N   1.54089471581144     -1.09679404739611     -0.38490106958144
  O   0.99765482333741     -2.19287726144732     -0.41764552785444
  O   2.64935199287880     -0.78721182627327     -0.80047616338105
