13
Coordinates from ORCA-job run
  C   -0.49242345920594      0.17823583210000     -0.18939778856269
  C   0.80181027213503     -0.06617754387508      0.06808516054991
  N   -0.95776388459463      0.88050586886991     -1.39278409205421
  O   -0.23221888589194      1.75898227324961     -1.84068218923663
  O   -2.03623484074137      0.49159258299528     -1.82821004726179
  N   -1.59287821099078     -0.26545369024336      0.66626444846701
  O   -2.26067925107257      0.64635253697069      1.13765336874798
  O   -1.74097752909550     -1.47301093416114      0.79620988039642
  C   1.89334084295371      0.32675962553702     -0.74500289909612
  N   2.84040943667941      0.62392403306268     -1.38128355671067
  N   1.16759718523691     -0.84641119507998      1.28163187788852
  O   0.55915520084163     -0.57729572915286      2.30878262790458
  O   2.05086312374603     -1.67700366027275      1.11873320896773
