13
Coordinates from ORCA-job run
  C   -0.54265990166160      0.12361828866228     -0.01679336896740
  C   0.76874228597349      0.01394369396814      0.24666612741762
  N   -1.27725643176947     -0.78366340584525     -0.89830546412266
  O   -0.93834419738581     -0.81067281492099     -2.07351301821080
  O   -2.17842721989680     -1.40019841046594     -0.34354974822038
  N   -1.38391446925131      1.20472921255900      0.51279438915054
  O   -2.27501001430089      1.57684738015060     -0.24335144317145
  O   -1.11130446665060      1.62781482019186      1.62872760679590
  C   1.51890151173457      0.88464989966885      1.07486488833091
  N   2.19494382240487      1.57699859164698      1.74843759738541
  N   1.55058312359597     -1.07891790292309     -0.39308806057291
  O   1.01694066786197     -2.17924435474936     -0.43875922437381
  O   2.65680528934561     -0.75490499794310     -0.80313028144098
