13
Coordinates from ORCA-job run
  C   -0.54137689335228      0.12678603884558      0.02303122909274
  C   0.78547534466913      0.01080626203383      0.18895746921830
  N   -1.33671046905475      1.20994858497409      0.61477020001974
  O   -0.97973406964904      1.63062367050837      1.70771072281396
  O   -2.28053686635599      1.58639483594739     -0.07206769868045
  N   -1.34237040506203     -0.77594092402104     -0.80390098111044
  O   -1.09127766159036     -0.80210877898997     -2.00087071495013
  O   -2.20283479395179     -1.38963804333698     -0.18500794951057
  C   1.59931915221320      0.87431026222179      0.96250358909245
  N   2.32088089644138      1.55464370023645      1.60013132645688
  N   1.51200046538039     -1.08309315195656     -0.51167031810801
  O   2.58331939011857     -0.76064710516569     -1.00674120062106
  O   0.97384591019358     -2.18208535129726     -0.51684567371342
