13
Coordinates from ORCA-job run
  C   -0.49927152593809      0.22067205796554     -0.10375826257803
  C   0.75335641871502     -0.06232907349443      0.28616007764126
  N   -1.29521043037347      1.31278119395694      0.47029000108432
  O   -0.69379673937085      2.32613500662495      0.80250532899083
  O   -2.49508928665929      1.07676850574251      0.56453656478828
  N   -1.23776521298324     -0.55117359249068     -1.10365845942967
  O   -1.46915901869779     -1.72320372781955     -0.84085357842732
  O   -1.56277253427006      0.09382872306359     -2.09285386524874
  C   1.48906621626480      0.64555530035016      1.26827518317082
  N   2.13033269946819      1.19270860090035      2.09256147980467
  N   1.45531306051003     -1.23163927543103     -0.30911327271383
  O   1.32055710410098     -1.39573006937146     -1.51428791989469
  O   2.10343924923378     -1.90537364999689      0.48019672281211
