13
Coordinates from ORCA-job run
  C   -0.54343641247536      0.11879699414918     -0.01687687076301
  C   0.78935746086564      0.09842391012277      0.14070246242324
  N   -1.28700043153082     -0.85742178257652     -0.81302071325653
  O   -1.89038977819159     -0.37293209895527     -1.76236279973073
  O   -1.24936271592689     -2.02188422083025     -0.44007274437120
  N   -1.41805646567087      1.09983621985236      0.63840322251677
  O   -2.52060014068361      0.66857685067268      0.95930899118081
  O   -0.96646008352587      2.22507517703274      0.80726536637343
  C   1.54092604495112      1.01131150359136      0.92080393130540
  N   2.21816586946416      1.73870386435721      1.55507761199885
  N   1.58272789257027     -0.97909088545480     -0.51050254238990
  O   1.26865889670569     -1.27448135401753     -1.65580244103753
  O   2.47646986344813     -1.45391417794391      0.17707652575040
