13
Coordinates from ORCA-job run
  C   -0.51936352002181      0.16759761811476     -0.10842769160963
  C   0.76810123899378      0.03708556781556      0.24758235815123
  N   -1.24601645291476     -0.81022952073741     -0.91830481542444
  O   -1.65791034726148     -0.36998169194348     -1.98436932284375
  O   -1.38425426404913     -1.92970138629673     -0.44472123106243
  N   -1.36527700590105      1.28882339656834      0.32062550357570
  O   -2.54134504532270      0.99849837834653      0.51255649644463
  O   -0.82230415418234      2.37799354886946      0.45329465630002
  C   1.49763755807621      0.94895840402402      1.04950928077139
  N   2.14975443462591      1.66744960656377      1.71927562137809
  N   1.52346307806711     -1.17072734671148     -0.18284469999195
  O   1.34206382104897     -1.54898955923586     -1.33245804807096
  O   2.25645065884129     -1.65577701537746      0.66828189238210
