17
Coordinates from ORCA-job run
  C   -0.62016639305888     -0.23485225217885      0.69903342688589
  C   0.81856048035924      0.01803745439354      0.22798871772423
  F   -0.55224486939901     -1.27876775386902      1.63187451260363
  H   1.37576842064111      0.30868216595568      1.13312718527131
  C   -1.58349837876380     -0.64892803239339     -0.39391216760300
  H   -1.78967506059386      0.18349679854448     -1.06780806427699
  H   -2.52168133080199     -0.96870413131531      0.06206419167573
  H   -1.14224370300683     -1.47157510305366     -0.95447096341073
  C   -1.11828578269195      0.95219844151281      1.41741904279698
  N   -1.50551475274293      1.91706857836959      1.96288576223791
  C   0.89890759474226      1.14601139296256     -0.78810117240649
  H   0.43890083848096      2.06236944009569     -0.41279205043875
  H   1.94564550171270      1.36960574826193     -1.00985476565161
  H   0.41333634399772      0.85219915764633     -1.72028075877298
  N   1.30911277913524     -1.21994887399294     -0.36661407373486
  H   2.22397168877881     -1.06029496267685     -0.77096401312396
  H   1.40810662321122     -1.92659806826260      0.35240519022368
