17
Coordinates from ORCA-job run
  C   -0.65421293022405     -0.22927692339626      0.71530544706689
  C   0.80569736052351     -0.00806244724002      0.27014820452439
  F   -0.61500277382052     -1.20364916941584      1.71478235303763
  H   1.34021622797550      0.22351783241482      1.20099398841842
  C   -1.57816029874335     -0.72401911129452     -0.37641252198111
  H   -2.53896706417458     -0.99299065509857      0.06478899889608
  H   -1.74595111813999      0.04368626481589     -1.13357296995964
  H   -1.12213568847451     -1.60339409157276     -0.82940542123732
  C   -1.18192586808607      1.00184820769728      1.33359811565935
  N   -1.59722266918412      2.00717616185550      1.77611897052652
  C   0.94453800273113      1.16526773179986     -0.69028881101429
  H   0.60611898498681      2.10076023585414     -0.24217102575002
  H   1.99377526244414      1.28562312875423     -0.96912270388112
  H   0.36904253967578      0.99236802302314     -1.60363250610437
  N   1.29233109194418     -1.25319176915594     -0.31105627124561
  H   1.95967122180660     -1.71172686056764      0.29085391089179
  H   1.71918771875954     -1.09493655847332     -1.21292775784760
