17
Coordinates from ORCA-job run
  C   -0.66380880754317     -0.37765818261103      0.26866572149856
  C   0.75004516485679      0.23347043503084      0.15192699898558
  F   -0.65558741777844     -1.59472224461722     -0.42223532186316
  H   0.74921708963916      1.14339011411564      0.76384878384310
  C   -1.78602494269876      0.47188067196674     -0.29417848631185
  H   -1.78425299525084      1.46251765481922      0.16561363325713
  H   -1.65731931073285      0.57400816441094     -1.37150488341897
  H   -2.74843032617997     -0.00488299008020     -0.10268380685755
  C   -0.91814417531672     -0.68956407799927      1.68837160090161
  N   -1.09410558620584     -0.89219286678366      2.83150996309211
  C   1.08011745488296      0.59807517003949     -1.29037687509907
  H   0.97119786832113     -0.27381638194516     -1.93993947032739
  H   2.11806945060805      0.92806298036798     -1.32997068965422
  H   0.44542000629312      1.39857891963630     -1.67307974916950
  N   1.78840237328878     -0.64195652329084      0.67300457006988
  H   1.73308311584372     -1.54325247630740      0.21282916258203
  H   1.67112103797287     -0.79293836675237      1.66819884847171
