16

C	-0.291084	0.167726	-1.509045
C	0.0	0.0	0.0
Br	0.284547	-1.47154	-2.429104
H	1.103919	0.0	0.0
C	-1.71529	0.316329	-1.797805
N	-2.865258	0.471816	-1.991136
C	0.562281	1.3218	-2.030411
H	0.529717	1.380022	-3.119404
H	0.197759	2.263272	-1.608704
H	1.576318	1.12491	-1.66319
N	-0.531994	-1.220889	0.573506
H	-1.368185	-1.055253	1.117839
H	0.180812	-1.622696	1.168309
C	-0.459404	1.200749	0.693947
N	-0.846731	2.140078	1.288999
F	2.577576	0.0	0.0
