18

C	-0.354221	-0.00956	-1.496115
C	0.0	0.0	0.0
Br	-2.323125	-0.073828	-1.722312
H	1.09483	0.0	0.0
C	0.160825	1.291821	-2.097216
H	-0.032249	1.302223	-3.171889
H	-0.315425	2.164041	-1.647815
H	1.240521	1.338696	-1.918145
C	0.255253	-1.202626	-2.215047
H	1.328112	-1.215852	-1.999958
H	0.092026	-1.088242	-3.289018
H	-0.178073	-2.14645	-1.891211
N	-0.470916	-1.229811	0.716709
O	0.127212	-2.271664	0.460296
O	-1.419769	-1.122592	1.493237
C	-0.50473	1.177381	0.690563
N	-0.860395	2.157843	1.230812
Cl	3.215787	0.0	0.0
