18

C	-0.491627	0.034634	-1.466812
C	0.0	0.0	0.0
Br	0.038509	-1.656005	-2.321633
H	1.092139	0.0	0.0
C	-1.998101	0.172175	-1.614966
H	-2.329561	1.099612	-1.138949
H	-2.254282	0.209854	-2.676022
H	-2.528486	-0.660305	-1.154313
C	0.267671	1.157636	-2.163101
H	-0.041636	2.120479	-1.743103
H	1.342485	1.03625	-2.014165
H	0.038096	1.154251	-3.230833
N	-0.518406	-1.197136	0.743465
O	-1.691666	-1.152472	1.122943
O	0.245274	-2.140488	0.896161
C	-0.477463	1.193527	0.693152
N	-0.846448	2.181553	1.210909
Cl	3.250602	0.0	0.0
