18

C	-0.498093	0.022357	-1.46304
C	0.0	0.0	0.0
Br	0.061891	-1.668412	-2.303147
H	1.092135	0.0	0.0
C	-2.010373	0.118651	-1.603266
H	-2.274103	0.153717	-2.662634
H	-2.510781	-0.734081	-1.143953
H	-2.368647	1.031975	-1.117648
C	0.226838	1.162651	-2.173277
H	1.306886	1.069582	-2.028895
H	-0.107577	2.121218	-1.76019
H	-0.005986	1.142423	-3.240028
N	-0.513595	-1.200295	0.747963
O	-1.683917	-1.160047	1.133641
O	0.253969	-2.140418	0.895352
C	-0.481621	1.193628	0.689161
N	-0.853476	2.181233	1.205414
Cl	3.254674	0.0	0.0
