18

C	-0.346639	-0.01448	-1.498671
C	0.0	0.0	0.0
Br	-2.312998	-0.107727	-1.728405
H	1.094868	0.0	0.0
C	0.149205	1.298027	-2.092984
H	-0.031671	1.304182	-3.168771
H	-0.349327	2.160011	-1.648683
H	1.224698	1.367998	-1.903682
C	0.286888	-1.194744	-2.21978
H	1.356461	-1.193821	-1.990308
H	-0.137184	-2.146585	-1.907274
H	0.13821	-1.077176	-3.295224
N	-0.467922	-1.230686	0.71526
O	0.117686	-2.274227	0.442344
O	-1.399147	-1.122092	1.512826
C	-0.508922	1.177577	0.686573
N	-0.870907	2.157125	1.224277
Cl	3.210397	0.0	0.0
