16

C	-0.421715	-0.043322	-1.469883
C	0.0	0.0	0.0
Cl	-0.059047	1.533728	-2.275513
H	1.094662	0.0	0.0
H	-0.312293	-0.962831	0.425433
C	0.353592	-1.130796	-2.205508
H	0.111994	-2.103485	-1.768101
H	0.103648	-1.141492	-3.26795
H	1.420332	-0.938857	-2.066266
C	-1.869116	-0.247757	-1.596649
N	-3.023772	-0.454596	-1.670787
C	-0.577092	1.141538	0.819343
H	-0.259691	1.033471	1.858866
H	-0.20818	2.102832	0.461066
H	-1.67171	1.153401	0.793807
Br	3.655303	0.0	0.0
