16

C	-0.534962	0.00523	-1.432569
C	0.0	0.0	0.0
Cl	0.168536	-1.368689	-2.366913
H	1.093441	0.0	0.0
H	-0.318843	0.946495	0.45512
C	-2.055692	-0.118678	-1.508571
H	-2.395287	-0.044516	-2.542779
H	-2.516132	0.681278	-0.921676
H	-2.36738	-1.082504	-1.10642
C	-0.139352	1.242464	-2.113516
N	0.074431	2.265622	-2.650114
C	-0.486723	-1.174019	0.842379
H	-0.273323	-2.122924	0.346131
H	-1.555207	-1.127794	1.071742
H	0.063872	-1.173274	1.785132
Br	3.644927	0.0	0.0
