16

C	-0.427482	-0.04076	-1.467228
C	0.0	0.0	0.0
Cl	0.008731	1.510042	-2.286983
H	1.094697	0.0	0.0
H	-0.314772	-0.959984	0.430301
C	0.291845	-1.168656	-2.19683
H	-0.003245	-2.124644	-1.757628
H	0.047784	-1.171759	-3.261031
H	1.365919	-1.030063	-2.054329
C	-1.882902	-0.176007	-1.590546
N	-3.046897	-0.319545	-1.664873
C	-0.56551	1.147182	0.819331
H	-1.660492	1.152862	0.817703
H	-0.224941	1.05357	1.853115
H	-0.210217	2.106643	0.442263
Br	3.671105	0.0	0.0
