15

C	0.0	0.0	0.0
C	-0.542468	0.333467	-1.433349
Cl	1.750755	0.0	0.0
H	-1.34405	1.046129	-1.259802
H	-0.383019	-0.937141	0.378721
N	-0.399962	1.052288	0.990448
O	-0.592942	0.694791	2.1457
O	-0.403252	2.216611	0.598166
N	-1.055555	-0.93534	-1.92833
H	-1.38634	-0.748999	-2.870564
H	-1.887963	-1.007656	-1.318245
N	0.379979	0.896055	-2.397471
H	1.168282	0.271674	-2.52161
H	0.728179	1.778763	-2.042819
F	-2.563471	0.0	0.0
