15

C	0.0	0.0	0.0
C	-0.474852	-0.10761	-1.499894
Cl	1.764177	0.0	0.0
H	0.439073	-0.163939	-2.099578
H	-0.357453	-0.846348	0.572855
N	-0.402665	1.187985	0.836718
O	-0.729551	0.932581	1.993006
O	-0.278674	2.309882	0.365788
N	-1.229299	1.049689	-1.92564
H	-1.566963	0.798406	-2.850432
H	-2.042604	1.006846	-1.293371
N	-1.220414	-1.344503	-1.71085
H	-2.017185	-1.207746	-1.065176
H	-0.665221	-2.138619	-1.401611
F	-2.647675	0.0	0.0
