15

C	0.0	0.0	0.0
C	-0.474538	-0.266003	-1.509133
Cl	1.768584	0.0	0.0
H	0.451472	-0.333532	-2.089722
H	-0.366825	-0.756523	0.681679
N	-0.391274	1.298336	0.645921
O	-0.2683	2.330007	-0.010159
O	-0.72366	1.249763	1.823821
N	-1.319845	0.733095	-2.105352
H	-0.858621	1.62991	-2.030826
H	-2.129983	0.738417	-1.468064
N	-1.163598	-1.542614	-1.559428
H	-0.584672	-2.243351	-1.104819
H	-1.978944	-1.352554	-0.957227
F	-2.638221	0.0	0.0
