15

C	0.0	0.0	0.0
C	-0.512519	-0.113737	-1.441981
Cl	1.787872	0.0	0.0
H	-1.609372	-0.109357	-1.328834
N	-0.495457	1.215473	0.569011
H	-1.520776	1.152988	0.523604
H	-0.228302	1.269126	1.546253
C	-0.358629	-1.230665	0.742078
N	-0.567217	-2.168603	1.418186
N	-0.10061	-1.366834	-2.043857
H	-0.765842	-1.635305	-2.756493
H	0.817417	-1.282622	-2.461904
C	-0.115021	1.075395	-2.212931
N	0.184077	1.951162	-2.937221
Br	-3.669965	0.0	0.0
