15

C	0.0	0.0	0.0
C	-0.422083	0.115536	-1.50679
Cl	1.815528	0.0	0.0
H	-0.033425	1.096728	-1.816703
N	-0.575647	1.077334	0.711259
H	-0.059019	1.936543	0.592537
H	-0.779267	0.885919	1.680014
C	-0.43168	-1.285318	0.547754
N	-0.72792	-2.339991	0.971491
N	-1.823011	0.0506	-1.770761
H	-2.36805	0.662135	-1.164293
H	-2.207628	-0.873059	-1.607726
C	0.276663	-0.900164	-2.312859
N	0.801192	-1.716274	-2.972666
Br	-4.614995	0.0	0.0
