18
Coordinates from ORCA-job run
  C   -0.53139348388394     -0.25823148549953     -0.03571668870382
  C   0.94047672695838      0.19468244166622      0.11892195448323
  Cl  -0.57268373196736     -1.98683635384545     -0.54088910229549
  H   0.91883599101831      1.20827460488153      0.52535978602156
  C   -1.28399900158525      0.55446890365175     -1.07673764399550
  H   -0.88351551955352      0.39695681655410     -2.07796272655575
  H   -2.33472251631741      0.25910573982993     -1.07950059463016
  H   -1.21526780547613      1.62040851161891     -0.84364234994084
  C   -1.20491551612303     -0.16459530032797      1.32601627669632
  H   -1.21659605106674      0.87601101019699      1.66479918184445
  H   -0.68880459319019     -0.77643388346947      2.06694185741704
  H   -2.23500598468185     -0.51718790792181      1.25599232391566
  N   1.54602819569283      0.36560759594565     -1.25274673431156
  O   2.03634649834016     -0.62956075713349     -1.77361107444507
  O   1.46944314831362      1.48550859783682     -1.75675549304724
  N   1.82452881537439     -0.61054754187672      0.89443021850307
  H   1.73109696077617     -0.42200157604697      1.88104979367439
  H   1.70014786737154     -1.59562941606050      0.70405101536971
