18
Coordinates from ORCA-job run
  C   -0.62791485851900      0.32118997358382      0.17605484293956
  C   0.87726709195846      0.10916850483265      0.41383935280873
  Cl  -0.99490137867238      2.04892145717100      0.52482664872172
  H   1.10786788567767      0.34082046830249      1.45463223894427
  C   -1.38960831360128     -0.52701047153052      1.18488180943786
  H   -1.17344893677745     -1.58204016220631      1.01405070246806
  H   -1.10249216799297     -0.26736439558519      2.20607076011788
  H   -2.46147609715973     -0.35181568607936      1.07676502169293
  C   -1.07686616774950      0.01859692405905     -1.24434453178650
  H   -0.89931496624758     -1.03461829946027     -1.47650751658963
  H   -0.56165086131822      0.63953508120434     -1.97535114857052
  H   -2.14937267077895      0.20382063347001     -1.32412890335779
  N   1.70178308910695      1.12772611153876     -0.36955659221247
  O   1.81847435349542      0.92596962103478     -1.57845852977248
  O   2.21369473427492      2.04927116651708      0.25798330278794
  N   1.25739526081218     -1.22889556671276      0.09501510648296
  H   1.28862529961005     -1.35099715047468     -0.91016222276821
  H   2.17193870388143     -1.44127820966487      0.47338965865569
