18
Coordinates from ORCA-job run
  C   -0.51431109308123     -0.27515664962296     -0.10172769699056
  C   0.91887936339090      0.22001140745591      0.20708214455733
  Cl  -0.43508397879206     -1.94317890310500     -0.77677996699697
  H   0.81994094802691      1.18730951144080      0.70461095126515
  C   -1.23035119428399      0.60815991851206     -1.11057641253766
  H   -2.26291186976586      0.27239206375317     -1.22152790852921
  H   -1.22968633106554      1.64639844488396     -0.76794833707458
  H   -0.75301668176841      0.57126512642865     -2.08955425916898
  C   -1.28602201219962     -0.34924553793157      1.20818444809690
  H   -0.79700034373998     -1.01558308734111      1.91982908253004
  H   -2.29192324589518     -0.73007149188040      1.02523478876255
  H   -1.36794916620326      0.64912648018504      1.64907230130041
  N   1.61243057580096      0.55107505175853     -1.09258636370203
  O   2.18918668964763     -0.36530240180761     -1.66651377467632
  O   1.51540256528437      1.71094303909139     -1.49198371578444
  N   1.78109066725646     -0.62177637873667      0.96704921058948
  H   1.71416336076060     -1.58876960996511      0.68021021431808
  H   1.61716174662731     -0.52859698311907      1.95792529404079
