14

C	0.0	0.0	0.0
C	-0.514686	0.249582	-1.412685
Br	1.994296	0.0	0.0
H	-1.58823	0.007298	-1.395724
H	-0.423364	1.325075	-1.58152
N	-0.535559	0.918809	0.897371
H	-1.560054	0.894481	0.761924
H	-0.327842	0.631654	1.847229
N	-0.290952	-1.480803	0.41043
O	-0.322395	-1.7001	1.615011
O	-0.434021	-2.30424	-0.481858
C	0.161048	-0.454884	-2.492088
N	0.683527	-0.949394	-3.419293
Cl	-3.503572	0.0	0.0
