14

C	0.0	0.0	0.0
C	-0.253366	0.107592	-1.539091
Br	1.944995	0.0	0.0
H	0.067328	1.122347	-1.798672
H	0.441558	-0.572239	-2.030193
N	-0.546692	0.935255	0.883753
H	-1.56946	0.767322	0.872418
H	-0.365878	1.869739	0.535526
N	-0.377845	-1.413315	0.47321
O	-0.538523	-1.577282	1.67105
O	-0.41139	-2.279264	-0.393376
C	-1.534207	-0.139058	-2.207845
N	-2.28133	-0.359956	-3.089214
Cl	-3.387093	0.0	0.0
