14

C	0.0	0.0	0.0
C	-0.492246	-0.025405	-1.455482
Br	1.93899	0.0	0.0
H	-0.072936	-0.869878	-2.001067
H	-1.587394	-0.12619	-1.390661
N	-0.502534	1.017264	0.833643
H	-1.527012	0.906723	0.838629
H	-0.265732	1.921676	0.441667
N	-0.374487	-1.364745	0.624742
O	-0.334174	-2.330577	-0.130403
O	-0.617771	-1.390415	1.818726
C	-0.153527	1.226167	-2.118151
N	0.106014	2.240683	-2.64958
Cl	-3.482962	0.0	0.0
