14

C	0.0	0.0	0.0
C	-0.484241	-0.23691	-1.422314
Br	2.008907	0.0	0.0
H	-1.579945	-0.324619	-1.364582
H	-0.065177	-1.16676	-1.80364
N	-0.537359	1.133602	0.575679
H	-1.560701	1.082895	0.435633
H	-0.333352	1.168615	1.565913
N	-0.274513	-1.308672	0.82433
O	-0.251633	-2.380219	0.235717
O	-0.446736	-1.148847	2.026028
C	-0.114533	0.864503	-2.301778
N	0.180457	1.716204	-3.053495
Cl	-3.481576	0.0	0.0
