14

C	0.0	0.0	0.0
C	-0.550478	0.616369	-1.282814
Br	1.928928	0.0	0.0
H	-0.429855	1.698693	-1.172651
H	-1.628138	0.398587	-1.291317
N	-0.521553	0.660274	1.122245
H	-0.264063	0.151659	1.961521
H	-1.547484	0.637221	1.020171
N	-0.327407	-1.536449	0.018345
O	-0.218522	-2.079995	1.1134
O	-0.629689	-2.08116	-1.03457
C	0.084038	0.211194	-2.527879
N	0.569764	-0.024113	-3.570027
Cl	-3.511171	0.0	0.0
