14

C	0.0	0.0	0.0
C	-0.531537	0.019012	-1.426249
Br	1.940252	0.0	0.0
H	-1.62926	-0.034434	-1.336248
H	-0.174855	-0.854998	-1.969555
N	-0.521068	1.040507	0.764711
H	-0.262095	0.935449	1.737825
H	-1.546445	0.997401	0.676261
N	-0.319687	-1.419625	0.60098
O	-0.481241	-1.455225	1.812972
O	-0.330369	-2.379737	-0.158654
C	-0.138623	1.236868	-2.122266
N	0.176585	2.193807	-2.724263
Cl	-3.526496	0.0	0.0
