14

C	0.0	0.0	0.0
C	-0.246707	0.107602	-1.540428
Br	1.951377	0.0	0.0
H	0.441614	-0.583076	-2.025715
H	0.088402	1.117703	-1.8003
N	-0.534659	0.941747	0.883649
H	-0.347136	1.874468	0.533833
H	-1.55995	0.782548	0.877078
N	-0.388795	-1.408241	0.474279
O	-0.581899	-1.564453	1.668261
O	-0.399671	-2.279418	-0.387793
C	-1.528522	-0.115625	-2.216175
N	-2.26808	-0.287892	-3.115442
Cl	-3.36401	0.0	0.0
