13

C	0.0	0.0	0.0
C	-0.300082	-0.011903	-1.529647
Cl	1.751597	0.0	0.0
H	0.276325	-0.885399	-1.863235
H	-0.414629	-0.8609	0.51567
N	-0.438657	1.231077	0.746015
O	-0.616445	2.253917	0.102613
O	-0.477069	1.109049	1.962982
C	0.330461	1.130337	-2.213864
N	0.835667	1.973777	-2.855509
C	-1.620942	-0.221093	-2.160814
N	-2.232169	-0.47689	-3.141826
Br	-3.243179	0.0	0.0
