13
Coordinates from ORCA-job run
  C   -0.53148084536381      0.44751913140523     -0.10783218234681
  C   0.85798139275016     -0.22269278992208     -0.29999351833282
  Br  -0.30612373643008      2.35241554010426     -0.72046575894387
  H   1.09820373675728     -0.16412644611473     -1.36952690272636
  N   -1.50334828846475     -0.28104065450583     -0.82584696279224
  H   -2.44686813152562      0.02058500500837     -0.61828306992316
  H   -1.34299457020264     -0.25075373166085     -1.82578535685936
  C   -0.87909453024058      0.50757500951006      1.30965268204931
  N   -1.16913609399513      0.53922698894293      2.44849502621447
  C   0.78746236997860     -1.63472601066560      0.09453001041827
  N   0.75623847497340     -2.76678447182558      0.40518938630448
  C   1.91147776007010      0.46331157856825      0.45127996022307
  N   2.76768246169310      0.98949085115556      1.05858668671501
