13
Coordinates from ORCA-job run
  C   -0.47987331654332      0.56453069536217     -0.05524545563744
  C   0.91724976718814      0.01871817658206      0.35737475294028
  Br  -0.26549353682749      2.43073684724964     -0.58595082096601
  H   1.29031881885975      0.61859656015634      1.19582408113593
  N   -0.96230912054924     -0.18120723620668     -1.18353957456785
  H   -1.80673150685383      0.23497971758181     -1.55826160136227
  H   -1.15948642324345     -1.14159957686256     -0.91538198418188
  C   -1.35221085194633      0.55150937468838      1.13032820133046
  N   -2.07119157471031      0.48602906591923      2.05956269750281
  C   1.86454381257912      0.10523307263607     -0.75681420275576
  N   2.65097033167247      0.17152441036450     -1.62552492115917
  C   0.76943177145193     -1.37398283970879      0.79736832366854
  N   0.60578182892256     -2.48606826776216      1.13926050405235
