13
Coordinates from ORCA-job run
  C   -0.46860088952915      0.42769891903394     -0.17811015886726
  C   0.68810121745373     -0.52062152249984      0.24426223657643
  Br  0.21225622616191      1.76085828630830     -1.42342205618651
  H   0.24935519595251     -1.26425916094264      0.92540126531567
  N   -1.46422599875439     -0.36424469545193     -0.85526046922827
  H   -1.95484495044275     -0.95358432560669     -0.18858257562672
  H   -2.14119846585620      0.23049818075501     -1.31896017131827
  C   -0.95405173141217      1.13887904189833      1.01427682199344
  N   -1.40661421399663      1.64406752618425      1.97584751219836
  C   1.74056832887432      0.19280834550991      0.97121308779954
  N   2.57687563020640      0.75820686967141      1.57110426671404
  C   1.22994715543930     -1.22910261578898     -0.91765031362184
  N   1.69143249590310     -1.82120484907105     -1.82011944574862
