13
Coordinates from ORCA-job run
  C   -0.49521229787411      0.42052853821226     -0.11585502657078
  C   0.72292437026789     -0.50631640900459      0.15393651895556
  Br  0.01269091780411      1.79657581885198     -1.39625270738032
  H   0.38062921740596     -1.27387769417106      0.86336010411154
  N   -1.54092619049007     -0.38215815132470     -0.69795613868217
  H   -1.94002633391745     -0.99910962592178      0.00380368173671
  H   -2.27915274384985      0.20460507205322     -1.06906035164742
  C   -0.86164729668691      1.09295739702259      1.13976645980788
  N   -1.21389326508925      1.56386995023261      2.15904093298360
  C   1.83342506032109      0.21899617641435      0.77518515571551
  N   2.71769221386825      0.79133925173073      1.29422390099265
  C   1.14715096431627     -1.17892015298861     -1.07621444999761
  N   1.51634538392407     -1.74849017110702     -2.03397808002515
