13
Coordinates from ORCA-job run
  C   -0.54841279713084      0.43041003387207     -0.08727102734656
  C   0.85216235590355     -0.19807896904994     -0.33147873034648
  Br  -0.40367670578111      2.34034807274315     -0.70950980632092
  H   1.04887507918420     -0.13532113448899     -1.40965720280104
  N   -1.52425282827896     -0.32841983743464     -0.76770757593335
  H   -2.46791749650514     -0.05294937095962     -0.52647782683211
  H   -1.40151991397131     -0.29594984919351     -1.77295354807735
  C   -0.84483603554378      0.48342373451968      1.34200398088453
  N   -1.09431869057773      0.51097074958437      2.49046671049962
  C   0.83931355441045     -1.61024881487689      0.06830332194124
  N   0.85093321729415     -2.74155779538861      0.38283108473805
  C   1.91355825079555      0.52121171898638      0.37637844115405
  N   2.78009201020099      1.07316146168656      0.94507217844032
