13
Coordinates from ORCA-job run
  C   -0.53342713785127      0.60714858583200      0.04153215882402
  C   0.88532663581775     -0.00907806179079      0.34078679355285
  Br  -0.23130900536044      2.51001635688403     -0.33434455919479
  H   1.35263841537870      0.54385210778266      1.16361351849642
  N   -1.24705053920429      0.02795498965286     -1.04662490621514
  H   -1.55104391674900     -0.91678572779792     -0.83970806211513
  H   -0.71916291486868      0.06289336751233     -1.91085360113298
  C   -1.32550447812335      0.50607147734843      1.26872105079883
  N   -1.93467827442447      0.38846592709858      2.26716945772825
  C   1.72518457270937      0.08200712212908     -0.85455992271226
  N   2.36517397183264      0.14317007505600     -1.83740571329442
  C   0.70754940241438     -1.41268948425194      0.72511364987295
  N   0.50730326842865     -2.53302673545532      1.01656013539139
