13
Coordinates from ORCA-job run
  C   -0.55136271645972      0.49099758415863     -0.03724813495474
  C   0.69376410470941     -0.45105766496060      0.15638530686518
  Br  -0.02403043347496      1.92970779759607     -1.25488947508478
  H   0.38684382355921     -1.21209751598907      0.88752982348725
  N   -1.71013690317617     -0.15188532978296     -0.57149983588877
  H   -2.10223368199811     -0.82641653333177      0.07530299357889
  H   -1.52667647107447     -0.57491639235422     -1.47391026580351
  C   -0.86952832334208      1.07132581209204      1.26869443396185
  N   -1.12011074115657      1.47727342276216      2.34310208545923
  C   1.86096616574041      0.25088131618963      0.68976743842367
  N   2.78866352513148      0.80842723560378      1.14591021614585
  C   0.99478780297197     -1.12811573833692     -1.10570354096210
  N   1.17705384856962     -1.68512399364680     -2.12344104522796
