13
Coordinates from ORCA-job run
  C   -0.54807623825883      0.48897508754179     -0.08066653201543
  C   0.67912728596400     -0.45049097068689      0.21355362112650
  Br  0.08367407787294      1.95384045843821     -1.21458129226602
  H   0.30868216526544     -1.22723873212899      0.89727722005415
  N   -1.64593731388631     -0.14892056024713     -0.73581667323644
  H   -2.09305978027963     -0.83865539696193     -0.14299773648593
  H   -1.37430354648825     -0.55195985906829     -1.62507559587275
  C   -0.99387292993305      1.04207045729035      1.19952067280626
  N   -1.34912451373596      1.42569660197044      2.25238985488788
  C   1.78485506385755      0.24685220305281      0.86965407038584
  N   2.65957933808229      0.80139727206585      1.42363188248057
  C   1.10394154834722     -1.10186624413789     -1.02625885670406
  N   1.38551484319261     -1.63970031712829     -2.03163063516056
