13
Coordinates from ORCA-job run
  C   -0.53843797579444      0.47839678937066      0.02838074453013
  C   0.90989863931341     -0.00136095890989      0.33216905621662
  Br  -0.36432732887068      2.44119911845914     -0.43232233813677
  H   1.35366539173052      0.68014249291507      1.06585696873388
  N   -1.11873402644638     -0.31775494246140     -0.97361000481585
  H   -2.10391827067017     -0.12966613205173     -1.10700622461091
  H   -0.62449280708101     -0.25578834300450     -1.85661220444682
  C   -1.33239613797115      0.43426407367232      1.25418625959411
  N   -1.95648584388242      0.38860613588355      2.24937745997676
  C   1.71010193055949      0.02974752477675     -0.89530544656815
  N   2.32380445467458      0.05296312180195     -1.89636103168022
  C   0.87896397418861     -1.35934105929226      0.88697200299131
  N   0.86235800024964     -2.44040782115964      1.34527475821587
