13
Coordinates from ORCA-job run
  C   -0.56178871251957      0.44779962932980      0.02307985484387
  C   0.90938029606029      0.04873480793181      0.33354837887297
  Br  -0.49283901035460      2.41464610340077     -0.44778459554805
  H   1.31387851690627      0.75709521586306      1.06450164505239
  N   -1.09493360123039     -0.38413259397599     -0.97599886576818
  H   -2.08865246996127     -0.25155811119415     -1.11248026809312
  H   -0.60200917827590     -0.30059326502916     -1.85791213832420
  C   -1.35768094871885      0.36722877613161      1.24581799438480
  N   -1.99807193038842      0.29087195652676      2.22864024636099
  C   1.71025880000069      0.11552461086218     -0.89194315874178
  N   2.32502922683778      0.17268710954301     -1.89091358530973
  C   0.94933395254480     -1.30486911857282      0.89861307126157
  N   0.98809505909911     -2.37443512081681      1.38183142100843
