13
Coordinates from ORCA-job run
  C   -0.54922429529368      0.44726889341544      0.12434906692008
  C   0.92366021320883     -0.02241307980760      0.29802616257992
  Br  -0.45231199637877      2.46473777721283     -0.01064975627160
  H   1.37230503397571      0.54280996639600      1.12196527310390
  N   -1.14224329183634     -0.19409550265332     -0.97584174158126
  H   -0.68295879457711      0.02703499849762     -1.85207024258777
  H   -2.13721002440235     -0.02426878361159     -1.04469862028445
  C   -1.29585001006644      0.17445268599220      1.35034414031293
  N   -1.89253842458559     -0.05593923423924      2.33664311815758
  C   1.67627054698143      0.24188748105164     -0.93140864205788
  N   2.24667001502365      0.44505712113718     -1.93767031674890
  C   0.95391511520365     -1.45385128720234      0.61904752002241
  N   0.98051591274702     -2.59268103618880      0.90396403843505
