13
Coordinates from ORCA-job run
  C   -0.55428134170472      0.58710911881686      0.02890074762678
  C   0.88684289236529      0.02633641282687      0.32942153975682
  Br  -0.32099208358430      2.48944071766383     -0.39485459674913
  H   1.34303169031996      0.61375162076503      1.13447888446566
  N   -1.25693913408500     -0.04212584472133     -1.03860455908220
  H   -1.52578248931656     -0.99176788410252     -0.80695634671575
  H   -0.73849794701617     -0.00886896255387     -1.90858503706055
  C   -1.33208051841703      0.48913419839210      1.26547259915563
  N   -1.92759861410528      0.37873925488276      2.27290619307807
  C   1.71353989739883      0.11757638313304     -0.87506843646116
  N   2.34899676196784      0.19518254048644     -1.85964594510898
  C   0.76015135506461     -1.37203025362016      0.75145683307216
  N   0.60260953111251     -2.48247730196908      1.10107812402258
