13
Coordinates from ORCA-job run
  C   -0.54289954121296      0.43687875986793     -0.09464223401142
  C   0.85042732160708     -0.21175561776905     -0.32825038002145
  Br  -0.37687432942491      2.33565628959272     -0.73808108205511
  H   1.04797629231193     -0.17023064968370     -1.40730802130878
  N   -1.52621012449433     -0.32007977682604     -0.76844379859760
  H   -2.46677751749265     -0.03230185460946     -0.52923676840548
  H   -1.40370112790031     -0.29437332942625     -1.77398533027770
  C   -0.84206082588351      0.50635151734063      1.33354322470256
  N   -1.09792326428206      0.54350004931137      2.48025445804965
  C   0.82133167060110     -1.61613473375806      0.09724999297196
  N   0.82060261404077     -2.74062687146278      0.43537542892615
  C   1.92028983386980      0.50717175666174      0.36748437997190
  N   2.79481899826006      1.05694446076098      0.92604013005530
