13
Coordinates from ORCA-job run
  C   -0.45334757271354      0.44763865161713     -0.16752671215818
  C   0.66942373406947     -0.54885156739196      0.23552729365687
  Br  0.29580474964016      1.83614351821102     -1.30835900066596
  H   0.19330551309370     -1.32038865485623      0.85812423222449
  N   -1.44091922490192     -0.28152522817039     -0.92266813637552
  H   -2.08758054660735      0.35399073426123     -1.37529120051821
  H   -1.96774045224668     -0.89544895913087     -0.30797858897563
  C   -0.96518926600239      1.09716448919395      1.04862257871270
  N   -1.44105197380412      1.55362806528430      2.02326513060394
  C   1.71121774475777      0.09787575701701      1.03652662854750
  N   2.53704144221262      0.60946362879712      1.69633778738908
  C   1.23471426633523     -1.20122379304216     -0.94779390386885
  N   1.71332158616707     -1.74946664179014     -1.86878610857220
