13
Coordinates from ORCA-job run
  C   -0.55978788843226      0.54819544708549     -0.10996314788937
  C   0.83991219453274     -0.13495239560070     -0.32223703183442
  Br  -0.36548748327012      2.38895100563109     -0.75773673002824
  H   1.07772211894244     -0.04303218615881     -1.38919867820713
  N   -1.64069207907191     -0.06825823469335     -0.81034540246884
  H   -1.46890993710283     -0.11986926785681     -1.80704028598832
  H   -1.86165113522726     -0.98270848464609     -0.43181921630337
  C   -0.85848711650259      0.58102918877750      1.32246067279429
  N   -1.08875724904227      0.56527599577231      2.47509115428336
  C   0.71700253677159     -1.55627030802636      0.01536064739965
  N   0.55687040135450     -2.69224315538543      0.26844630720318
  C   1.90201547915970      0.50074528951000      0.45780606251305
  N   2.75025015788827      1.01213710559118      1.08917564852617
