13
Coordinates from ORCA-job run
  C   -0.48377218193327      0.42800738615778     -0.13193970135418
  C   0.70732203434046     -0.51902072051006      0.18449203904828
  Br  0.12757625908382      1.86752574088437     -1.29207788728696
  H   0.30788369985826     -1.32142633643906      0.82179791308836
  N   -1.48086115921765     -0.33611286135030     -0.83791174629000
  H   -1.93646308597887     -0.98656445165494     -0.20408630893195
  H   -2.18561961736810      0.27411759356777     -1.23530562298960
  C   -0.94882080053105      1.03486095881478      1.12450750639165
  N   -1.38384328557275      1.45250092124334      2.13502407734818
  C   1.76551135401940      0.16570847392223      0.93061404174761
  N   2.60650683100944      0.70655938767908      1.54636284278866
  C   1.22840550405013     -1.12674312468935     -1.04229759319303
  N   1.67417444824014     -1.63841296762565     -2.00017956036704
