13
Coordinates from ORCA-job run
  C   -0.55401070509490      0.45705457163665     -0.06814668428233
  C   0.95259300778426      0.08081083026014     -0.16008255588397
  Br  -0.91694526624725      1.60095003577410     -1.69793926269893
  H   1.53047401619648      1.00036911202545     -0.30183428544456
  N   -1.34353819436303     -0.70061284605699      0.03316404137534
  H   -1.26293305078696     -1.30133132907422     -0.77943736006804
  H   -2.31553335421665     -0.50093905662250      0.23060600351031
  C   -0.76744769898837      1.33516212143458      1.08009218829832
  N   -0.92625010782338      2.03656526529775      2.01000360661717
  C   1.17218765391990     -0.80768069145556     -1.30480139863537
  N   1.31135220204327     -1.55006362180643     -2.20412622025306
  C   1.38010644388713     -0.57315803849038      1.08193230127233
  N   1.73894505368955     -1.07612635292255      2.08056962619277
