13
Coordinates from ORCA-job run
  C   -0.45504476965236      0.44400475461908     -0.17225014893623
  C   0.67037828037837     -0.54384597494301      0.24469145664158
  Br  0.30380061088250      1.85880605018618     -1.27346564506225
  H   0.18910092533099     -1.33155304478164      0.84269586550415
  N   -1.41367595407552     -0.28651090193176     -0.96241498617909
  H   -2.05819146315528      0.34724895147418     -1.42049611935727
  H   -1.94654077754364     -0.91712928031091     -0.37025593539809
  C   -1.00541082570564      1.06878407231186      1.04006842625938
  N   -1.51018900637179      1.50245692292414      2.01048690267493
  C   1.68273924249068      0.10446720470198      1.08145329493549
  N   2.48575425797711      0.61819799773495      1.76716079863318
  C   1.27451943932845     -1.16990781208811     -0.93383649709649
  N   1.78276004011614     -1.69601893989687     -1.85183741261926
