13
Coordinates from ORCA-job run
  C   -0.48065926271936      0.56778801277123     -0.00796335767253
  C   0.95224233195449      0.01627694966460      0.24128294351366
  Br  -0.31952158209454      2.41810158236442     -0.60778320456323
  H   1.42852393789008      0.62573097608689      1.01841512057520
  N   -1.10616801568646     -0.19933411086140     -1.04833525664469
  H   -1.27741587738249     -1.15027517285637     -0.73297961066780
  H   -1.98692849083265      0.21771487495482     -1.32593474005999
  C   -1.19667064491591      0.59320162466985      1.27791693660100
  N   -1.78866189359696      0.56126175314780      2.29432865967233
  C   1.76125304633631      0.07580003557334     -0.97883225949753
  N   2.45094603020271      0.11907265325878     -1.92772555412131
  C   0.84800387136484     -1.36883438395857      0.71647260633006
  N   0.71505654947997     -2.47750479481537      1.08113771653483
