10
Coordinates from ORCA-job run
  C   -0.27638737142982      0.24129168109584      0.05898391454354
  C   1.04826585469279     -0.07193777587425      0.01639546441650
  H   1.78161276992064      0.61854197843230      0.42362750675738
  N   -0.78848737169531      1.43662064392532      0.51259568105430
  H   -0.16871893575694      1.99532516185165      1.07875332436740
  H   -1.73840452660777      1.41338549164009      0.84748617796340
  C   -1.24999698203591     -0.67133889325886     -0.47610837977108
  N   -2.07473209111182     -1.40278849076383     -0.88745006027763
  C   1.52428838587487     -1.27982653329948     -0.55583381515012
  N   1.94256026814928     -2.27827326374878     -1.01944981390369
