10
Coordinates from ORCA-job run
  C   -0.43687442255525     -0.06204291615216      0.06068361565605
  C   0.54917514858693     -0.77407872057722     -0.55760193170414
  H   0.31170808665287     -1.67493888064399     -1.10813708601120
  N   -0.24760965327778      1.02844837489971      0.87017735859822
  H   0.66168948944168      1.46543465733743      0.82502986404100
  H   -1.02077211912291      1.66707319412413      0.96178274514849
  C   -1.79427530595209     -0.51953777968705     -0.05909716207583
  N   -2.91099460283982     -0.87479193532863     -0.16152864460818
  C   1.89542625939094     -0.33585535489116     -0.46811256915301
  N   2.99252711967542      0.08128936091893     -0.36319618989141
