10
Coordinates from ORCA-job run
  C   -0.43602058218864     -0.07152450823698      0.05614179640408
  C   0.66074948682404     -0.88027181003807     -0.00893947543432
  H   0.56799651973086     -1.94428681630124      0.16524232333950
  N   -0.46183494609641      1.26547979216121     -0.24680982436863
  H   0.43437027193208      1.72707316783302     -0.30625739272393
  H   -1.19416961316073      1.81369027594574      0.17399328910328
  C   -1.70554277065975     -0.65938116905427      0.38572950363586
  N   -2.74747152228506     -1.12554905653013      0.66991211055171
  C   1.92858865650523     -0.32336936193241     -0.31700146306423
  N   2.95433449939838      0.19813948615313     -0.57101086744334
