10
Coordinates from ORCA-job run
  C   -0.43396166000388     -0.01128349049271     -0.10166266704436
  C   0.64519466934998     -0.76676912047031     -0.45682830977685
  H   0.51892567498214     -1.65208069719763     -1.06625641516991
  N   -0.38638363167466      1.18135981828173      0.57390308770573
  H   0.48705584319984      1.39954652983091      1.03161179125781
  H   -1.21110340934955      1.44664379795946      1.08718451083376
  C   -1.74012631763314     -0.43108486596504     -0.53039066905039
  N   -2.81687660624546     -0.77053684193680     -0.86076465286708
  C   1.94315415136546     -0.38141625019337     -0.03296554491863
  N   2.99312128600927     -0.01437887981624      0.35616886902992
