10
Coordinates from ORCA-job run
  C   -0.41431578359252     -0.05230960366274      0.15623764384435
  C   0.64729104884946     -0.88975471594899     -0.02685464891186
  H   0.54471492832687     -1.95201776452683      0.15217294625388
  N   -0.37847352528322      1.31508092965190      0.06208754274792
  H   -1.24665219556720      1.78124776280228     -0.14420488454945
  H   0.43485545360645      1.71074862920163     -0.38710053951791
  C   -1.67309495231559     -0.61566797699596      0.56193628162065
  N   -2.71275365956833     -1.06767388441113      0.87568720560810
  C   1.89527362942734     -0.36186851846214     -0.44684948573024
  N   2.90315505611674      0.13321514235197     -0.80411206136545
