10
Coordinates from ORCA-job run
  C   -0.27620510140258      0.22398362848961      0.10656376102314
  C   1.04719267644547     -0.04878003054733     -0.06228750862264
  H   1.78382151240836      0.73845110534042      0.07111839469373
  N   -0.78350022592858      1.43321941888097      0.52782708186836
  H   -1.73105121350848      1.63630726641593      0.25225431407517
  H   -0.15872825906060      2.22180176421144      0.45986585448024
  C   -1.25478528364842     -0.81514537238362     -0.06658431591324
  N   -2.08353950537674     -1.63719432780409     -0.21442187442777
  C   1.51943664103210     -1.34426003096411     -0.39592719896963
  N   1.93735875903947     -2.40838342163922     -0.67840850820736
