10
Coordinates from ORCA-job run
  C   -0.43812553788748     -0.07880932627814      0.01950482471484
  C   0.66168580118154     -0.86670394195260     -0.15744080182796
  H   0.56257024248468     -1.94282919903625     -0.21301161704715
  N   -0.45015309116519      1.29240058010877     -0.00197976775027
  H   -1.20130939527709      1.74862510797727      0.48954867002954
  H   0.44770349347942      1.74776929179275      0.07706889767291
  C   -1.72284409849730     -0.70867378226702      0.15733319625467
  N   -2.77934727654848     -1.20927188811067      0.28681061168241
  C   1.94192870336286     -0.26834135214066     -0.28274783641886
  N   2.97789115886704      0.28583450990654     -0.37408617731014
