10
Coordinates from ORCA-job run
  C   -0.42786404392954     -0.03144168691872     -0.11977950021903
  C   0.66131421199507     -0.84132751193349     -0.26002627864838
  H   0.56032707856474     -1.82799848211942     -0.69260210695740
  N   -0.40525469304009      1.26903805152843      0.31457566859761
  H   -1.25595784940190      1.63295395276878      0.71156186559752
  H   0.44141633122460      1.57073574866868      0.77499642032082
  C   -1.71116187589012     -0.52508419625271     -0.53888857764854
  N   -2.76927490448319     -0.92202504094291     -0.86501955556563
  C   1.93773801415235     -0.38022197923712      0.15341301406813
  N   2.96871773080807      0.05637114443848      0.52076905045491
