10
Coordinates from ORCA-job run
  C   -0.26787162829161      0.25884760037892     -0.01156740129276
  C   1.04121063204670     -0.11191498196329     -0.06736938765548
  H   1.81990726486673      0.64546276907459     -0.05488732745820
  N   -0.71864232629927      1.56061459558880     -0.02665850435908
  H   -0.03269540169183      2.26551441938195      0.19568007963460
  H   -1.61905287675963      1.72152865379813      0.39611198619749
  C   -1.30030597509013     -0.74177356377950     -0.02735517135276
  N   -2.16629231882874     -1.53811811660864     -0.02190554392004
  C   1.44224599509003     -1.46990784400315     -0.15666180776739
  N   1.80149663495776     -2.58925353186781     -0.22538692202637
