10
Coordinates from ORCA-job run
  C   -0.27359764910832      0.24622754806713      0.05557417029421
  C   1.04567544750532     -0.08999017170741      0.02306069487569
  H   1.78886277127126      0.59390748868187      0.42313939990531
  N   -0.76687344276194      1.45715044779348      0.48820095377819
  H   -0.13806561190486      2.01614890261207      1.04402085508381
  H   -1.71686160021436      1.45467601542009      0.82396107606120
  C   -1.25999780474374     -0.65778834281828     -0.47091333851816
  N   -2.09224842476247     -1.38300841679566     -0.87792794282692
  C   1.50390738994199     -1.31326103005501     -0.53053318139947
  N   1.90919892477711     -2.32406244119828     -0.97858268725384
