10
Coordinates from ORCA-job run
  C   -0.44238451072513     -0.04012986604712     -0.03424350990242
  C   0.60998445888741     -0.86925265102875     -0.29270555381961
  H   0.44635616575158     -1.83710376945547     -0.74829943915259
  N   -0.37139598403950      1.15805817670417      0.62834315746077
  H   0.55114406262393      1.55407313359755      0.73794637910764
  H   -1.10110498426458      1.82643645070227      0.44345655099068
  C   -1.76391038343424     -0.46951295727508     -0.40271719219460
  N   -2.84888096932168     -0.80013807500991     -0.71419088417620
  C   1.92623788230797     -0.46053005394373      0.04387971613736
  N   2.99495426221424     -0.06190038824392      0.33953077554897
