10
Coordinates from ORCA-job run
  C   -0.26320658720220      0.26253011492260      0.01753008851966
  C   1.04206807245034     -0.12611709811113      0.01953194680014
  H   1.81932040324355      0.58764651480290      0.27816710021843
  N   -0.70177888741147      1.54896801903508      0.23974185147403
  H   -1.64326079793256      1.64352723548805      0.58553927216016
  H   -0.04019516675956      2.17142372502492      0.67741535692524
  C   -1.29403785265438     -0.67992969606647     -0.32369849981588
  N   -2.16095123969332     -1.43201813764610     -0.58242652149185
  C   1.44218091242325     -1.44423711662499     -0.32001151615495
  N   1.79986114353636     -2.53279356082485     -0.59178907863497
