10
Coordinates from ORCA-job run
  C   -0.43554617689431     -0.08028977839785      0.04660115885911
  C   0.68327450416126     -0.85941835738257      0.10267424761274
  H   0.61143922745850     -1.90386833699216      0.37594859792075
  N   -0.48153997513934      1.22011678563823     -0.38559245019428
  H   0.40482896891944      1.69943724709470     -0.45337564703058
  H   -1.24557995811120      1.78507127458044     -0.05227174742068
  C   -1.70272803991972     -0.66872359488792      0.38445020053434
  N   -2.74495482040285     -1.13079157889932      0.67456698246180
  C   1.94647363813884     -0.29607281540314     -0.21299682961404
  N   2.96433263178937      0.23453915464958     -0.47900451312915
