10
Coordinates from ORCA-job run
  C   -0.44357977738973     -0.04098680760272     -0.00846450202301
  C   0.59079453150766     -0.79308124984535     -0.48373286627541
  H   0.39836208224583     -1.67374877049881     -1.08254579899330
  N   -0.32847277163835      1.02815489196439      0.84278368421294
  H   0.59676550225543      1.42069097540680      0.94182876931771
  H   -1.07479681776866      1.70385614170087      0.82699168778308
  C   -1.78700320588696     -0.42976690116940     -0.34044537856065
  N   -2.89063204468043     -0.72751761838270     -0.61815029913670
  C   1.92664314304867     -0.42394721373917     -0.18002986433096
  N   3.01291935830654     -0.06365344783393      0.10076456800631
