10
Coordinates from ORCA-job run
  C   -0.43638456510141     -0.08858491477323     -0.01615084584851
  C   0.68270320189988     -0.84987896633840      0.15663418633762
  H   0.59950026945017     -1.90694521668349      0.37268660050844
  N   -0.45523090015112      1.22894764792550     -0.39563612542164
  H   0.42125188180738      1.72609600100761     -0.32805015153823
  H   -1.26831442102170      1.76524634748340     -0.14014705912475
  C   -1.72313836209756     -0.71412664734782      0.12251602668264
  N   -2.78228977805800     -1.21015902654474      0.24850894886017
  C   1.96415010090715     -0.25224559481756      0.04010918196124
  N   2.99875257236522      0.30265037008873     -0.06147076241698
