10
Coordinates from ORCA-job run
  C   -0.25033645339773      0.25342626552165      0.11019864334424
  C   1.01247924148496     -0.09824695956611     -0.25886143858461
  H   1.75024264525283      0.67143606534828     -0.46741786515946
  N   -0.67419464229410      1.54464260097771      0.33410007732139
  H   -1.66103124578221      1.71274934119345      0.22163188647867
  H   -0.08965335696048      2.27237235326226     -0.04723360899832
  C   -1.22924818806378     -0.76359867807852      0.38412935419091
  N   -2.05560192985453     -1.57309904927040      0.59875987723565
  C   1.41865470009974     -1.45226115969295     -0.37975573761297
  N   1.77868922951529     -2.56742077969536     -0.49555118821550
