10
Coordinates from ORCA-job run
  C   -0.42060514115889     -0.04826641364013      0.13938235880562
  C   0.65533933396866     -0.88380524429536      0.06194892622983
  H   0.55490933227489     -1.93295001332426      0.30714671394850
  N   -0.39113571322420      1.31037003681695     -0.04434232110507
  H   0.43834992777001      1.68302876103429     -0.48381518779540
  H   -1.25267388492615      1.75127538926264     -0.32224302631843
  C   -1.69210837161143     -0.59551457943972      0.52649935528042
  N   -2.74263074511769     -1.03067967906277      0.82796393427619
  C   1.91677333426008     -0.36914226855028     -0.33393607293592
  N   2.93378192776471      0.11668401119864     -0.67760468038574
