10
Coordinates from ORCA-job run
  C   -0.43707272106206     -0.07715632681343      0.04051302844522
  C   0.66312015851178     -0.87896972593551     -0.05232023897975
  H   0.57011050400507     -1.95246120260921      0.04783321857220
  N   -0.45788672702555      1.27742784423810     -0.17228111590344
  H   0.43903628719143      1.74153274773439     -0.17990183747363
  H   -1.20023106581314      1.79614661573799      0.26797355344757
  C   -1.71336257036666     -0.68458727090434      0.30193235207637
  N   -2.76234681580121     -1.16442350073383      0.53220185087008
  C   1.93526470262818     -0.29936635630996     -0.29519310874927
  N   2.96336824773214      0.24185717559579     -0.49175770230536
