10
Coordinates from ORCA-job run
  C   -0.43538116963819     -0.05932768225914      0.07926312861429
  C   0.62704926214410     -0.90003859151703     -0.08289713166761
  H   0.48071801654136     -1.97199409223004     -0.10697494107631
  N   -0.36049759478608      1.30163104106110      0.22973031894210
  H   0.52059328922378      1.72901212607066     -0.01713196115580
  H   -1.17611969703649      1.83433323835928     -0.02514359840843
  C   -1.75150374224853     -0.62717492153487      0.18739265946332
  N   -2.83383189235827     -1.08216195763327      0.25931360286300
  C   1.93466193674421     -0.36434518847027     -0.20870313994427
  N   2.99431159141411      0.14006602815358     -0.31484893763029
