10
Coordinates from ORCA-job run
  C   -0.25438613247519      0.26281845388829      0.06521959118749
  C   1.01987531296320     -0.21230159532351      0.13753365205534
  H   1.75742344635424      0.30514127728242      0.74444467777438
  N   -0.69306787130008      1.43130021699734      0.64825910211838
  H   -1.67873244642420      1.48211344733689      0.85094192197903
  H   -0.10639454468369      1.80579577985622      1.37808343250426
  C   -1.23283221991808     -0.41849496614124     -0.73836745452058
  N   -2.06213853715487     -0.96136864231415     -1.37225052697231
  C   1.43966262793554     -1.36782324149868     -0.57054801633207
  N   1.81159036470314     -2.32718073008359     -1.14331637979391
