10
Coordinates from ORCA-job run
  C   -0.43254949953774     -0.07471097467791      0.07668031871399
  C   0.67687289906668     -0.86791412248752      0.03250369901992
  H   0.58854085174390     -1.94112541050214      0.13937175985594
  N   -0.43471341330689      1.29621089038389      0.06249506535773
  H   0.42637939816923      1.74101613743650     -0.22117051482202
  H   -1.27323917266333      1.74840162291395     -0.26287528981515
  C   -1.71831943264807     -0.69692623719199      0.23767762220788
  N   -2.77803824752070     -1.19361434594371      0.35561563244403
  C   1.95632141113566     -0.27831799389084     -0.13618346442809
  N   2.98974520556125      0.26798043395977     -0.28511482853424
