10
Coordinates from ORCA-job run
  C   -0.26352838061742      0.20793445216796      0.16126978956783
  C   1.04216509719811     -0.10301907649094     -0.06895146786091
  H   1.82596643365177      0.57392588263713      0.25883963234968
  N   -0.69799533469036      1.30330681209650      0.87513765656600
  H   -0.02175231328503      2.04007253393289      1.00489426137912
  H   -1.62437552627627      1.63406709543821      0.65694766093868
  C   -1.30366527819387     -0.68440708941696     -0.27376219078400
  N   -2.17871284952403     -1.38439174337478     -0.63215640394418
  C   1.43457161545687     -1.30121147062101     -0.71948222590604
  N   1.78732653628021     -2.28527739636901     -1.26173671230617
