10
Coordinates from ORCA-job run
  C   -0.27053580378628      0.21166726115806      0.14400542767508
  C   1.04462538188680     -0.09685260695893     -0.02798131122094
  H   1.81180559904016      0.59761884823197      0.30302739484475
  N   -0.73699217047705      1.33004865831460      0.79941482141182
  H   -0.07103982696658      2.07711183187552      0.92314577419999
  H   -1.65770130373342      1.64467748313321      0.53754469198571
  C   -1.28815566772960     -0.70612858782523     -0.29082632701309
  N   -2.14225659833292     -1.43000716649593     -0.65254487483954
  C   1.46717763269873     -1.31457823778008     -0.62094681510604
  N   1.84407275740015     -2.31455748365319     -1.11583878193774
