10
Coordinates from ORCA-job run
  C   -0.26871663675309      0.21390831266739      0.14539194867298
  C   1.04346097606239     -0.07384491000892     -0.07796046338769
  H   1.80822964800780      0.65693590059171      0.17000667529801
  N   -0.73036117524743      1.35715590417542      0.75987634391487
  H   -1.67117745413365      1.63429097126585      0.52881809755054
  H   -0.07848982244389      2.12531812221811      0.80353455012934
  C   -1.28275865367491     -0.75119618355150     -0.18246468932936
  N   -2.13653437815127     -1.51382553552805     -0.45383074163281
  C   1.46773273516968     -1.31457873628367     -0.61955837347617
  N   1.84861476116437     -2.33216384554633     -1.07381334773971
