10
Coordinates from ORCA-job run
  C   -0.26345671978901      0.23761225599535      0.11026343607179
  C   1.02658528391590     -0.19820966377730      0.09800455232291
  H   1.81090485445958      0.41914535144161      0.52679401721285
  N   -0.69736721606558      1.39636177308648      0.71510872289584
  H   0.01627168228057      2.07470406616964      0.93280291115238
  H   -1.54470897029154      1.79822839775267      0.34703364713969
  C   -1.30427914587387     -0.57626336184514     -0.45659917524581
  N   -2.17716284320851     -1.21000307391329     -0.92642941146636
  C   1.39886128353230     -1.45369794353129     -0.44809351625131
  N   1.73535179104019     -2.48787780137874     -0.89988518383199
