10
Coordinates from ORCA-job run
  C   -0.40964372705525     -0.06605302794823      0.16285844568305
  C   0.65240148317908     -0.88027606013043     -0.10289213095559
  H   0.56372153092435     -1.95264414431561      0.01260691793084
  N   -0.38665317169075      1.30501830760383      0.15540470381856
  H   0.40974963040958      1.73515655544395     -0.29256071732673
  H   -1.26406641705255      1.77423917626897      0.00068716578366
  C   -1.65132576908406     -0.66501452546269      0.57021761616540
  N   -2.67715100555585     -1.14424580187844      0.88935812602206
  C   1.88446401258050     -0.31597822813760     -0.52264954581629
  N   2.87950343334494      0.20879774855625     -0.87303058130494
