10
Coordinates from ORCA-job run
  C   -0.26252563492245      0.21721155293641      0.14979634877997
  C   1.03514892427431     -0.17338929213412      0.01476048694978
  H   1.82886472492342      0.42502867979051      0.45312689647753
  N   -0.68534631367044      1.29915567429308      0.88989777528320
  H   0.02340116724628      1.97702487671547      1.12418404517792
  H   -1.56592621759887      1.70581329923467      0.61745729989690
  C   -1.31604730757016     -0.57252995330204     -0.42780628677234
  N   -2.19832577228102     -1.18793023878741     -0.90437162368730
  C   1.40406152723357     -1.35803237430988     -0.67317671642232
  N   1.73669490236537     -2.33235222443669     -1.24486822568333
