10
Coordinates from ORCA-job run
  C   -0.27433153030871      0.21073807519443      0.13736198058405
  C   1.03514680269921     -0.15623251772710      0.06766675069369
  H   1.79471275537360      0.45344144118147      0.54867690788487
  N   -0.75490116468246      1.27803186783166      0.86338923604584
  H   -0.07120534235119      1.96462534638006      1.14227530046129
  H   -1.62575889691046      1.67374331883277      0.54685903137428
  C   -1.28237048916812     -0.59153554015387     -0.50100236543765
  N   -2.12884102517118     -1.21699630198645     -1.02681310388296
  C   1.46184714208527     -1.32740194798005     -0.60994896362038
  N   1.84570174843403     -2.28941374157292     -1.17046477410303
