10
Coordinates from ORCA-job run
  C   -0.42127288758048     -0.08211278198141      0.12066360343055
  C   0.71619917968252     -0.83385119763293      0.06778536821869
  H   0.68451758464706     -1.89276684533813      0.28847220772781
  N   -0.48643385501350      1.27898027374308     -0.03237653921272
  H   -1.36688504350943      1.66222509228817     -0.33546993782799
  H   0.32951605468276      1.72233326963370     -0.42942745259546
  C   -1.66206867714880     -0.73213092265603      0.44378606175625
  N   -2.68727386757141     -1.25344027421641      0.69066146469780
  C   1.95049867820369     -0.21795313723755     -0.26365674878140
  N   2.94220283360757      0.34971652339751     -0.55143802741352
