10
Coordinates from ORCA-job run
  C   -0.28348260065824      0.20042700819807      0.13434684435307
  C   1.01917951327135     -0.19568284864523      0.15643745577543
  H   1.73237182367259      0.32279402642182      0.79106714772408
  N   -0.82100680910973      1.18310081837895      0.93617093085318
  H   -1.64550492563803      1.64145272296118      0.58219056725296
  H   -0.15927666153166      1.80953387523296      1.36801595186594
  C   -1.22988259022874     -0.48354340307765     -0.70475013285371
  N   -2.02440597501393     -1.01202463212771     -1.39301110548400
  C   1.49508406099369     -1.28525441735206     -0.61755448318428
  N   1.91692416424271     -2.18180314999034     -1.25391317630267
