10
Coordinates from ORCA-job run
  C   -0.44238140548745     -0.05329497825873      0.01588936459476
  C   0.60916765012717     -0.89709935420862     -0.19321768799622
  H   0.43812992198271     -1.93338266573004     -0.45369909957447
  N   -0.35080398673876      1.24429497087459      0.45041788919856
  H   -1.11604031779414      1.85630366071843      0.21849428304191
  H   0.56396246599052      1.66894731151999      0.39553379450998
  C   -1.77701801874815     -0.56256604807682     -0.14372668578454
  N   -2.87441889713519     -0.96111622140532     -0.28737447011666
  C   1.93606637603267     -0.41294409857128     -0.05947621005214
  N   3.01333621177064      0.04985742313784      0.05815882217883
