10
Coordinates from ORCA-job run
  C   -0.25257017758577      0.23883328630760      0.13220205803789
  C   1.02968277717590     -0.09780137521517     -0.17935581996532
  H   1.81144298183883      0.65611099974477     -0.14476018643549
  N   -0.65365217735788      1.47690309772566      0.58410107623808
  H   -1.61634423491919      1.71980771200129      0.41259870899636
  H   -0.00693561159286      2.23396106513891      0.42442375637302
  C   -1.28877238591497     -0.75689903563165      0.09110329045535
  N   -2.16414146744705     -1.54188356673071      0.05025004562971
  C   1.40247330556502     -1.41997752648007     -0.53432260049324
  N   1.73781699023795     -2.50805465686062     -0.83524032883635
