12
Coordinates from ORCA-job run
  C   -0.70760570986824     -0.31886915119983     -0.25062902941259
  C   0.62263338539706      0.44442193232864     -0.09565451537653
  F   -1.43024341054830      0.38981270737010     -1.21734059204130
  H   0.38383496120089      1.44389207709035      0.29006046292722
  H   -0.52853684559646     -1.31590960987807     -0.65715575444760
  N   -1.35981452836961     -0.41231984344761      0.99180886829292
  H   -2.15793395627197     -1.03150250285986      0.95490583268283
  H   -1.64913748533038      0.49450830821797      1.33598770997963
  C   1.28994918087058      0.60239896456962     -1.39175468160619
  N   1.81919999954922      0.71707296428638     -2.43259004871001
  C   1.50258092690899     -0.23449041922481      0.85865829451163
  N   2.21607348205824     -0.78001542725288      1.61370345320001
