12
Coordinates from ORCA-job run
  C   -0.72417748456132     -0.29880408355933     -0.23199811316274
  C   0.63999942169206      0.40983926219611     -0.11919239580807
  F   -1.42050156591070      0.39317857293364     -1.22916440049279
  H   0.44941036413079      1.43440355118545      0.22548277419845
  H   -0.59288439505704     -1.32186171975380     -0.58918162085741
  N   -1.37119798869248     -0.30135740723187      1.01678298750652
  H   -2.19578550341789     -0.88552156471767      1.01557480903134
  H   -1.61766807335643      0.63336243012311      1.31671499457755
  C   1.30554861714652      0.48468169558538     -1.42348603626372
  N   1.83952813989871      0.53885444963881     -2.46691594727225
  C   1.49553092052853     -0.26828060164202      0.85780448391416
  N   2.19019754759926     -0.81749458475781      1.62757846462896
