12
Coordinates from ORCA-job run
  C   -0.77847989178341     -0.43958618327993     -0.25809530954183
  C   0.72713781266874     -0.19825621611717     -0.48718374084933
  F   -1.41615139072044     -0.17069301936822     -1.44748903564653
  H   1.04283228298469     -0.85577860026921     -1.30527069963056
  H   -0.93164699493329     -1.51099118272252     -0.06454896167254
  N   -1.27899037780526      0.45835193490268      0.72962771281973
  H   -0.79754002137128      0.34854648249019      1.61347356305669
  H   -2.26893715361541      0.30515178890997      0.87403020662820
  C   1.47435096215445     -0.55476339723940      0.72185206711764
  N   2.01593517735480     -0.86176968678692      1.71712777749175
  C   0.98659293905637      1.19085823637613     -0.87738161949535
  N   1.22389665601003      2.28892984310440     -1.21514196027787
