12
Coordinates from ORCA-job run
  C   -0.71096602612472     -0.56971494925724     -0.11201822351691
  C   0.74281777254228     -0.20097369224276     -0.47166874281238
  F   -1.42268201443408     -0.46915130206279     -1.31697801663999
  H   1.03198024734628     -0.79539292831163     -1.34499416089154
  H   -0.75296634670924     -1.61867350900112      0.18849065267508
  N   -1.20340858126473      0.24754679688226      0.91635509480944
  H   -1.26413886751706      1.21966188279797      0.64005546008214
  H   -2.09820403475713     -0.06921176997285      1.26148892667491
  C   1.64193028915358     -0.51670705725145      0.64074000741084
  N   2.35871054185340     -0.80794005935920      1.52286206609457
  C   0.82676177247166      1.21934999149983     -0.82707153424344
  N   0.84916524743975      2.36120659627896     -1.09726152964271
