16

C	0.0	0.0	0.0
C	-0.501717	-0.155131	-1.429491
Br	2.026274	0.0	0.0
H	-1.596415	-0.264828	-1.282742
H	-0.245168	0.732826	-2.000481
N	-0.527325	1.270101	0.414731
H	-1.556673	1.06819	0.337748
H	-0.320091	1.380367	1.403721
C	-0.391392	-1.144565	0.926528
H	0.022257	-2.102643	0.618138
H	-1.485712	-1.14787	0.889676
H	-0.043376	-0.911066	1.937479
N	0.031812	-1.307245	-2.185576
O	-0.148241	-2.440776	-1.740848
O	0.602841	-1.070286	-3.253785
F	-2.865448	0.0	0.0
