16

C	0.0	0.0	0.0
C	-0.503947	-0.270293	-1.409725
Br	2.027499	0.0	0.0
H	-0.264586	0.57553	-2.047797
H	-1.598339	-0.376044	-1.249139
N	-0.526188	1.302984	0.307494
H	-0.312255	1.490701	1.283867
H	-1.556353	1.091019	0.258962
C	-0.388158	-1.061455	1.022528
H	0.029421	-2.040325	0.797266
H	-1.48287	-1.072643	0.987441
H	-0.042423	-0.739349	2.009611
N	0.031644	-1.467442	-2.08987
O	-0.049254	-2.559419	-1.527885
O	0.492824	-1.310439	-3.223773
F	-2.863469	0.0	0.0
