16

C	0.0	0.0	0.0
C	-0.516994	-0.164013	-1.428275
Br	1.962411	0.0	0.0
H	-1.610476	-0.268244	-1.28055
H	-0.252794	0.716175	-2.008018
N	-0.539255	1.276814	0.40406
H	-0.323918	1.400614	1.389873
H	-1.566218	1.068267	0.338652
C	-0.42142	-1.137756	0.926881
H	-0.017166	-2.102432	0.623819
H	-0.07655	-0.908227	1.94026
H	-1.515332	-1.128303	0.881695
N	0.013538	-1.327956	-2.168515
O	0.659623	-1.105283	-3.196159
O	-0.237075	-2.457887	-1.747022
F	-2.887022	0.0	0.0
