16

C	0.0	0.0	0.0
C	-0.298678	-0.090671	-1.514712
Br	1.984459	0.0	0.0
H	-0.287528	0.921377	-1.914179
H	0.456931	-0.703052	-2.004344
N	-0.54872	1.217501	0.500353
H	-0.407203	1.227812	1.507399
H	-1.581911	0.991085	0.344512
C	-0.39507	-1.246594	0.783709
H	-1.488937	-1.236016	0.768979
H	-0.000345	-2.162557	0.341024
H	-0.016559	-1.151721	1.806797
N	-1.575755	-0.719365	-1.985753
O	-1.718929	-1.916251	-1.761582
O	-2.27904	-0.051095	-2.735757
F	-2.768626	0.0	0.0
