16

C	0.0	0.0	0.0
C	-0.519126	0.03412	-1.434393
Br	1.979112	0.0	0.0
H	-0.174008	-0.836956	-1.987596
H	-1.617254	0.066292	-1.292049
N	-0.518657	1.126285	0.716639
H	-0.312761	0.988874	1.702268
H	-1.546222	0.985821	0.584775
C	-0.424462	-1.347591	0.586803
H	-0.025177	-2.19318	0.01926
H	-0.06981	-1.421935	1.618992
H	-1.519991	-1.313182	0.555324
N	-0.075348	1.211836	-2.215438
O	-0.618778	2.292818	-2.000022
O	0.809251	1.031712	-3.060489
F	-2.888582	0.0	0.0
