13
Coordinates from ORCA-job run
  C   -0.38520289749352     -0.30555864187099      0.09383057420009
  C   0.82555990782098     -0.08716550787279     -0.79850129481603
  Br  -0.65411119205822     -2.13313787087748      0.54459184056702
  H   0.71685558777295     -0.69145334144055     -1.70027698410516
  H   0.85442485393055      0.96514489885209     -1.09115744957187
  N   -0.23894809920977      0.58852374727506      1.33502174713547
  O   -0.15488533902568      1.77589871478528      1.04283319772065
  O   -0.20069586132178      0.08157935042365      2.44023909346064
  N   -1.65092778398064      0.20910912194752     -0.59137406026084
  O   -1.59959851739072      0.33438944912884     -1.80734768509961
  O   -2.60279384305469      0.41867163829475      0.14407916575660
  C   2.05109827369162     -0.44108869352980     -0.09004267013337
  N   3.04022491031892     -0.71491286511559      0.47910452514639
