13
Coordinates from ORCA-job run
  C   -0.48683473269304     -0.38849332496967      0.18416310667195
  C   0.87146784517035     -0.73401318244802     -0.40837797860586
  Br  -1.45264116210109     -1.97377019765630      0.62821217373597
  H   0.71704468371871     -1.28322664934459     -1.33896560303703
  H   1.38149374007074     -1.39037480811778      0.30227701670795
  N   -0.24891103096354      0.48160850273385      1.42627525845627
  O   -0.31116329881027      1.68920377803688      1.24222940903063
  O   0.07847906331121     -0.11093913876271      2.44096487648095
  N   -1.34297663929480      0.43885030215038     -0.76989405579947
  O   -2.41888988441153      0.81151604910878     -0.33181531472206
  O   -0.87431394131815      0.63782530623709     -1.88418427968469
  C   1.69446817758886      0.44729181627099     -0.65688708936238
  N   2.39177717973256      1.37452154676109     -0.83399751987224
