13
Coordinates from ORCA-job run
  C   -0.31969623413797     -0.30454958455709      0.21910409217515
  C   1.12316351418200      0.05136599462565     -0.10661481693917
  Br  -0.65345512551763     -2.17239726976189      0.21971192471714
  H   1.74454959701104     -0.29394519328398      0.72625944115804
  H   1.20157554349121      1.13876693319067     -0.17285209116313
  N   -0.63995447270824      0.34421336485612      1.57903206096943
  O   -0.88250754176528     -0.36372079442742      2.53883854681865
  O   -0.57781108727903      1.56802405087298      1.54095218300514
  N   -1.30009064321864      0.37992682561515     -0.73719527986309
  O   -2.47874822577255      0.28420078335927     -0.43276100875998
  O   -0.81553791617100      0.96326011829380     -1.69701225796850
  C   1.59346869319940     -0.55948885031185     -1.34388729611716
  N   2.00604389868670     -1.03565637847140     -2.33357549803250
