13
Coordinates from ORCA-job run
  C   -0.29693099298603     -0.27473111303946      0.29620694332482
  C   1.12370691882384     -0.12408472303110     -0.22257580759899
  Br  -0.84105508327369     -2.08954309380610      0.45393836693018
  H   1.39333856538285      0.93424899633511     -0.18832958512570
  H   1.80248285319395     -0.67242535758608      0.43225170557412
  N   -0.43502228386513      0.38705431566884      1.66755068523823
  O   0.60115941208579      0.56200086359566      2.29413003491052
  O   -1.57511457439217      0.65159828371039      2.01510359400378
  N   -1.23177713508272      0.54035295904937     -0.61088752917769
  O   -2.12865585884736     -0.02191353059418     -1.21042972775479
  O   -0.93138099933644      1.72846410727134     -0.63722310191400
  C   1.22055632025458     -0.61838453790578     -1.59198429388556
  N   1.29969285804253     -1.00363716966800     -2.69775128452491
