13
Coordinates from ORCA-job run
  C   -0.43384554706416     -0.39569657047717      0.27780032420760
  C   0.85899603229569     -0.72015001205965     -0.45638477157864
  Br  -1.34387217774713     -1.99673359934040      0.78006854845905
  H   0.60400806362354     -1.37481129492624     -1.29445531348833
  H   1.51856895549178     -1.26523297512756      0.22142283822622
  N   -0.19504541769715      0.43107252474908      1.53744334304576
  O   0.97473705308797      0.64666036790392      1.83025914893583
  O   -1.19587467444800      0.78693086490708      2.13743210433413
  N   -1.29842832914336      0.46463557086639     -0.65397202575889
  O   -1.90774881401426     -0.13393274073591     -1.52477962642442
  O   -1.20376854415074      1.67327255640978     -0.49152093337759
  C   1.53616285823754      0.47283530567804     -0.95893138511639
  N   2.08511054152831      1.41015000215264     -1.40338225146431
