13
Coordinates from ORCA-job run
  C   -0.47887986749562     -0.39888522099054      0.18354574899492
  C   0.86783584029415     -0.71250417974502     -0.45210159253965
  Br  -1.41984344540292     -2.00707199446370      0.59805032051298
  H   1.40165358463675     -1.38354906233061      0.22661185161764
  H   0.69616090463243     -1.23646641809793     -1.39419418888314
  N   -0.21792449982999      0.43227897935113      1.44719666118818
  O   0.13669206243909     -0.18979655736353      2.43473510792231
  O   -0.29194171179229      1.64477554826150      1.30358544344516
  N   -1.36484634552206      0.45118174798614     -0.72171614075267
  O   -0.92482961693205      0.69172188588007     -1.83935881468169
  O   -2.43265914639524      0.79945891405810     -0.24550915925356
  C   1.67253375814059      0.48409272878870     -0.68645732245853
  N   2.35504848322716      1.42376362866569     -0.85538791511194
