13
Coordinates from ORCA-job run
  C   -0.26818207819247     -0.28784769516302      0.30931326395014
  C   1.14124329576356      0.04430273806748     -0.15193079263361
  Br  -0.52269907420492     -2.14247568652292      0.64134921142768
  H   1.23361663829622      1.13044758312524     -0.22675306594678
  H   1.85338365418951     -0.30989330298132      0.59476441999225
  N   -0.60327495499014      0.47788906520328      1.58952705338074
  O   0.34599381679315      0.89196013339466      2.24094662161824
  O   -1.79182226270935      0.57662004371531      1.85106426817297
  N   -1.25948948503666      0.26297261035778     -0.72800312742391
  O   -2.01639990644318     -0.49840197548147     -1.30009091797038
  O   -1.14955044354433      1.47482881022267     -0.87530279598095
  C   1.41041557673248     -0.56903812830677     -1.44830180784460
  N   1.62676522334613     -1.05236419563090     -2.49558233074179
