13
Coordinates from ORCA-job run
  C   -0.38275014787860     -0.30825978595557      0.09339184992547
  C   0.83062554188051     -0.08451807548762     -0.79378748572128
  Br  -0.63909861351790     -2.13516045347656      0.55344897043830
  H   0.85288412810177      0.96686940788421     -1.09027282443380
  H   0.73072263801999     -0.69267363156035     -1.69391633654775
  N   -0.25088503437060      0.59434106785992      1.33045115394809
  O   -0.17710681764371      1.78087462856364      1.03205748031510
  O   -0.21299957133934      0.09389855408614      2.43860076291783
  N   -1.64934454722591      0.19226565017157     -0.60133466589976
  O   -2.60644069378789      0.39883300471255      0.12810269157724
  O   -1.59295273466322      0.31033801034426     -1.81779135041021
  C   2.05518702712774     -0.42644999992952     -0.07784773255585
  N   3.04315882529715     -0.69035837721266      0.49789748644660
