13
Coordinates from ORCA-job run
  C   -0.33772365034869     -0.29100258673242      0.21083475793063
  C   1.12425988871524     -0.00884606617530     -0.10173915243312
  Br  -0.77527918819725     -2.13677368932606      0.16662527541900
  H   1.72166601637281     -0.40796491618513      0.72459862709743
  H   1.26363697187461      1.07372903897246     -0.14207922461988
  N   -0.62667782000831      0.34266696838720      1.58472579786000
  O   -0.50120839578866      1.56217895300752      1.57465836761522
  O   -0.90549887773040     -0.37367572401795      2.52838875467962
  N   -1.27386479016413      0.46928771469430     -0.73220205209671
  O   -0.75306855175706      1.04793101179452     -1.67580275378119
  O   -2.45759098090801      0.43183919268781     -0.43455734449066
  C   1.56507066782876     -0.61578480300917     -1.35177723674680
  N   1.95527871011107     -1.09158509409776     -2.35067381643354
