13
Coordinates from ORCA-job run
  C   -0.48076490291563     -0.39823718568210      0.17871397960873
  C   0.86124136255401     -0.71019522055663     -0.46732269586984
  Br  -1.42953882922804     -2.00739653041026      0.57209732367885
  H   1.39188750303111     -1.39800696572059      0.19700766305297
  H   0.68193955542198     -1.21515497125742     -1.41830328521904
  N   -0.21028027358944      0.41162111904651      1.45418974921166
  O   -0.27981442875403      1.62645858715560      1.33041132465911
  O   0.14689123236026     -0.22758119005998      2.42971971418096
  N   -1.36550095674774      0.47037989758922     -0.70994768407616
  O   -0.92833268345355      0.72515826669009     -1.82561239114473
  O   -2.42995412705792      0.81699143996938     -0.22483748960195
  C   1.67501084466792      0.48400673078419     -0.68194687472062
  N   2.36521570371107      1.42095602245200     -0.83416933375994
