13
Coordinates from ORCA-job run
  C   -0.49250952831245     -0.38799959185331      0.16875065381801
  C   0.85723305878035     -0.72936235763802     -0.44523225115017
  Br  -1.48316847412649     -1.97594233775418      0.54434164114620
  H   1.35879391161672     -1.42547802653371      0.23294846980262
  H   0.68952806980989     -1.23420004146655     -1.39845206981975
  N   -0.23500824365688      0.42060577131804      1.44780230447858
  O   -0.27425505313397      1.63625628192036      1.31753033693969
  O   0.08365970356161     -0.22239208027877      2.43423204232960
  N   -1.33839800014379      0.49611909067322     -0.74213887663974
  O   -0.87176199246650      0.73701192750927     -1.84893631075664
  O   -2.40551718766472      0.86717961108458     -0.28164131090120
  C   1.69945765849089      0.44752954001350     -0.64533252669072
  N   2.41194607724533      1.36967221300557     -0.78487210255646
