13
Coordinates from ORCA-job run
  C   -0.27457557099599     -0.28166391754270      0.30921899643405
  C   1.14207779228929      0.02533193664169     -0.14682897422322
  Br  -0.56053903833756     -2.12984670879549      0.65104422474173
  H   1.84492884768862     -0.33573533996844      0.60548572658329
  H   1.25221628292970      1.10943447975775     -0.22729518986198
  N   -0.60341574764690      0.49704048797701      1.58340365786435
  O   -1.79147978676825      0.61748567434584      1.83804344228147
  O   0.34943880541139      0.89771515451135      2.23795467837029
  N   -1.25191634614408      0.27919248978950     -0.73570760602951
  O   -2.01716029115917     -0.47334736002443     -1.30849223454705
  O   -1.12332732148477      1.48865287459449     -0.88766162505790
  C   1.40882196640038     -0.60051846492350     -1.43770576718424
  N   1.62493040781732     -1.09374130636305     -2.48045932937129
