13
Coordinates from ORCA-job run
  C   -0.38233949114336     -0.30714083345605      0.10003902981573
  C   0.82381160931041     -0.09260694953119     -0.79915751908298
  Br  -0.63510613547837     -2.12928134570375      0.58041913098906
  H   0.84391737748328      0.95570704863872     -1.10664460241080
  H   0.71672320901706     -0.70996435096216     -1.69224787324587
  N   -0.24036677688851      0.60772574655953      1.32651278379662
  O   -0.16821067756820      1.79110841589226      1.01542530049416
  O   -0.19454588530523      0.11878410768911      2.43956027872276
  N   -1.65434986242953      0.18673646624247     -0.58964087623185
  O   -2.60595625181773      0.39966898176594      0.14512337482481
  O   -1.60715479806723      0.29355306204677     -1.80751510570322
  C   2.05433212868871     -0.42769826908282     -0.09020977379436
  N   3.04724555419869     -0.68659208009885      0.47933585182593
