13
Coordinates from ORCA-job run
  C   -0.32568189436106     -0.27365346094545      0.24636459707981
  C   0.80847127924961     -0.18968586328860     -0.76436363356641
  Br  -0.26406111915254     -1.83507209625268      1.32240226947820
  H   0.65323321678846     -0.98390325348382     -1.50196338288582
  H   0.74413802338837      0.77531410724243     -1.27169389480064
  N   -0.36557496633988      0.95940543676873      1.15316580482614
  O   -1.34839464743840      1.04662954550156      1.87241485277777
  O   0.57169349799850      1.73996902844515      1.06063048263929
  N   -1.63871548970350     -0.16957998711666     -0.55294933534193
  O   -2.39633336157678     -1.12146795734216     -0.58628779543205
  O   -1.75799247556863      0.91078212593485     -1.12009300822665
  C   2.12330395032133     -0.35159543591478     -0.15629467079735
  N   3.19391398639451     -0.50714218954856      0.29766771424962
