13
Coordinates from ORCA-job run
  C   -0.34664578756790     -0.28597525545983      0.20085895093716
  C   0.80288592586204     -0.12890191778934     -0.78327655031437
  Br  -0.40355914864812     -1.99256326867841      1.02825078465428
  H   0.60482931271807     -0.79151210696849     -1.63212868304878
  H   0.80889067939261      0.90337234837840     -1.14012324883182
  N   -0.31414723425464      0.79586531570905      1.28374579540801
  O   -1.29877842836159      0.84249028138810      2.00444618244097
  O   0.67692828108352      1.51217555961378      1.31615812757071
  N   -1.64022126298071      0.02758795059529     -0.57507444116457
  O   -1.67797086473316      1.18573545594828     -0.97521450782916
  O   -2.46149598750113     -0.85299824501299     -0.75182500355385
  C   2.09703369273048     -0.46554903466104     -0.20272205908380
  N   3.15125082226053     -0.75072708306279      0.22590465281521
