13
Coordinates from ORCA-job run
  C   -0.30268093643335     -0.27957206397144      0.28405773036300
  C   1.12675327298454     -0.11930539952499     -0.20616833045115
  Br  -0.85062965745720     -2.09659625631794      0.39427975995574
  H   1.39441885256197      0.93865772442543     -0.15129221346999
  H   1.79392918976703     -0.67671444719126      0.45296147619238
  N   -0.46461253626577      0.35408085800462      1.66657067951452
  O   -1.61128075386525      0.60619899588311      2.00164247764353
  O   0.56076440437695      0.52163168420933      2.31255066739236
  N   -1.22147596953630      0.55578077914333     -0.62122309287291
  O   -0.92065289892851      1.74392504834552     -0.61599841384963
  O   -2.10874256770831      0.00738903563931     -1.24725448390733
  C   1.25042064708224     -0.59309022573380     -1.58080227948319
  N   1.35278895342196     -0.96138573291121     -2.69032397702732
