13
Coordinates from ORCA-job run
  C   -0.38858273086866     -0.30585400532027      0.07861187466383
  C   0.84124716259807     -0.07228315782660     -0.78312938881465
  Br  -0.67645153386950     -2.14200290259607      0.47905526317582
  H   0.74824669292815     -0.65302511404269     -1.70200565272064
  H   0.88138593251303      0.98682879581744     -1.04873777429696
  N   -0.26352640568018      0.55705403005903      1.34388208713978
  O   -0.25045378962620      0.02334270598126      2.43703419579984
  O   -0.16808300933299      1.75077280584470      1.08253284383971
  N   -1.63743244941707      0.23302603518439     -0.61988971596613
  O   -2.60313726569965      0.43030358965430      0.10074345056558
  O   -1.56011716946713      0.38745316021734     -1.83109707862888
  C   2.05014887705022     -0.45052940238147     -0.05875280563717
  N   3.02575568887191     -0.74408654059137      0.52375270087988
