13
Coordinates from ORCA-job run
  C   -0.23946200998858     -0.24018894440386      0.36806410507431
  C   1.12557969073755      0.03525212658369     -0.24049131079389
  Br  -0.42595730621217     -2.02476498323581      0.99640385060166
  H   1.89670151510902     -0.18940339778356      0.49782395288278
  H   1.18586995478059      1.09789000341341     -0.48760929877910
  N   -0.50124187423622      0.70887545324190      1.53791036542595
  O   -1.67047720073706      0.83330249000361      1.86679377767778
  O   0.48198532259959      1.22755214293811      2.04885314110430
  N   -1.31396716758327      0.13213732047953     -0.66598974496409
  O   -1.24689218803559      1.30947041053646     -1.00006850774161
  O   -2.08695745347194     -0.71927752247456     -1.06294211272807
  C   1.31890826820870     -0.76791950600872     -1.44326803385549
  N   1.47491044882939     -1.40492559329019     -2.41648018390453
