13
Coordinates from ORCA-job run
  C   -0.33097715759484     -0.24628940526155      0.26879045882449
  C   0.79575638456823     -0.26860219143489     -0.75336260342304
  Br  -0.29806620936188     -1.72324800228413      1.45987424970044
  H   0.74978709372478      0.65603928862927     -1.33308600236925
  H   0.61496556935803     -1.11302377039606     -1.42658273360344
  N   -0.33172380418963      1.05175639671288      1.08029974085310
  O   -1.30926114525502      1.22160051688567      1.79205735522038
  O   0.62935051178756      1.79384458369074      0.93156429039571
  N   -1.64753070686423     -0.16969922359229     -0.52650731654528
  O   -1.74750923854500      0.86943816840023     -1.16941728541704
  O   -2.42525127568461     -1.10514622794956     -0.48947483617527
  C   2.11244921606708     -0.41337186891804     -0.14473242394137
  N   3.18501076198954     -0.55329826448226      0.30957710648057
