13
Coordinates from ORCA-job run
  C   -0.31896790724807     -0.25864384738633      0.27168476755698
  C   1.11577281404620     -0.00617582939599     -0.16716978321331
  Br  -0.71446483010278     -2.09559546278711      0.53670566488837
  H   1.22559753787876      1.05958165419222     -0.37996016100930
  H   1.76894995236320     -0.26433354714756      0.67290505270551
  N   -0.54393384761868      0.57463349771134      1.54715537917605
  O   -0.45502971323470      1.78002848960638      1.34176966633882
  O   -0.74360259852869      0.00819642823771      2.60571290347434
  N   -1.32502542063030      0.33244057068055     -0.71926851117430
  O   -0.87329791779436      0.75853904229570     -1.77321751943718
  O   -2.48785440165249      0.32933825073687     -0.34659315758433
  C   1.50019234806153     -0.79208565479935     -1.33321360223857
  N   1.85066398446039     -1.42692359194442     -2.25551069948305
