13
Coordinates from ORCA-job run
  C   -0.37146407041611     -0.27530679102082      0.17111980893351
  C   1.10757087094938     -0.13860665524347     -0.15872755843565
  Br  -1.06657002799120     -2.00533967377230     -0.18222176183899
  H   1.39579199799192      0.90445834113470     -0.00978837382300
  H   1.66320949332647     -0.75990568886462      0.55130120209441
  N   -0.53153749730855      0.12505358656342      1.64954667121784
  O   -0.25165180973243      1.30168032251467      1.85025086070993
  O   -0.86393051303648     -0.71528984335107      2.46474110340547
  N   -1.21440315099995      0.76405250725432     -0.57186730589736
  O   -0.64393519335527      1.42224383858565     -1.43084184672852
  O   -2.38085382759148      0.83888911485202     -0.21911070392726
  C   1.42886450913135     -0.55720307936672     -1.51757385049654
  N   1.72790921903235     -0.90672597928578     -2.59682824521383
