13
Coordinates from ORCA-job run
  C   -0.32410764861764     -0.22001172591020      0.31255351490197
  C   1.13879691503077     -0.14719064240717     -0.09255996483716
  Br  -0.88692181000027     -1.98299454603768      0.74769531443883
  H   1.40798917316067      0.90290450878028     -0.22905750638087
  H   1.75207674026693     -0.55691006480442      0.71129044766387
  N   -0.58622661631926      0.67867327925574      1.52150828459145
  O   -1.75383777150906      0.97963404360303      1.71370567525470
  O   0.38894626076770      0.98671417115213      2.19308388080164
  N   -1.16874905051620      0.40443463963621     -0.80955531020003
  O   -2.01054616325135     -0.26801288123699     -1.37435664978877
  O   -0.86144489576335      1.57127044740196     -1.02500311747819
  C   1.36126728898590     -0.88314925032353     -1.33279632105126
  N   1.54275757776514     -1.46536197910936     -2.33550824791617
