13
Coordinates from ORCA-job run
  C   -0.24475117781804     -0.23474196426287      0.36647039199077
  C   1.12648925864535      0.02150881364494     -0.23617864913303
  Br  -0.45803649695353     -2.01531463919601      0.99737397300483
  H   1.20006180007247      1.08162307262400     -0.49007858709850
  H   1.89077686555615     -0.20658870334508      0.50816688871115
  N   -0.50059527889271      0.72001604584407      1.53304008197367
  O   0.48583601128944      1.23083152166739      2.04577436963053
  O   -1.66965639388081      0.85657971730283      1.85763835391081
  N   -1.30953161379953      0.14989687074582     -0.67349530337192
  O   -2.09041509784580     -0.69259594147742     -1.07403082347271
  O   -1.22641413221565      1.32599984211659     -1.00831304342169
  C   1.31888244638382     -0.79360679787581     -1.43082442039938
  N   1.47635380945882     -1.44460783778842     -2.39454323232454
