13
Coordinates from ORCA-job run
  C   -0.40251959895049     -0.41135370257523      0.29766955463009
  C   0.90067912168166     -0.68308345726090     -0.43978322181797
  Br  -1.20765261057191     -2.04572593369284      0.86773149479912
  H   0.67943679130716     -1.38728117635370     -1.24665450813678
  H   1.60094282603778     -1.15608526226508      0.25116833600885
  N   -0.20264310173946      0.47395695621025      1.52376849865971
  O   -1.21658921601170      0.78471136256941      2.12691945781886
  O   0.95419563888146      0.77616879245962      1.79089013066765
  N   -1.32819289447091      0.35823936953803     -0.65482970556926
  O   -1.89253546566372     -0.30880612793185     -1.50610098251103
  O   -1.32382761591407      1.57459472302289     -0.52716068657662
  C   1.49115824369036      0.53010514571789     -0.99992507142907
  N   1.94754788172387      1.49655931056150     -1.48469329654356
