13
Coordinates from ORCA-job run
  C   -0.37314689386994      0.31950688640082      0.02367415265560
  C   0.78778414102962     -0.27198927794128     -0.76180353125028
  Br  -0.59638975166231      2.18397393481310     -0.25126497461107
  H   0.89406153944231     -1.32133360741823     -0.47756476186528
  H   0.52741725678301     -0.22194365892574     -1.82429901642183
  N   -1.62861157716613     -0.48091632025873     -0.37009924919563
  O   -2.53174502664960      0.07588020833324     -0.96633571261697
  O   -1.55291438923268     -1.66119981467956     -0.04729915145789
  N   -0.23712776246604      0.04721744846918      1.52382971806642
  O   0.81889445335907     -0.44179462522922      1.90079428169758
  O   -1.21365845473379      0.33676848670274      2.19741001517572
  C   2.04246467178436      0.43663296937955     -0.54097667824989
  N   3.06397179338212      0.99719737035411     -0.40406509192649
