13
Coordinates from ORCA-job run
  C   -0.49487751237601     -0.32925424986356      0.26024407668589
  C   0.79645512103427     -0.83464672204662     -0.36632702794170
  Br  -1.62090522959508     -1.78956505301662      0.75445129693731
  H   0.52172415343192     -1.49391802248232     -1.19455022655321
  H   1.34052965623319     -1.41974852219372      0.37742697086772
  N   -0.24471376394533      0.51940685235970      1.50325023222047
  O   -1.23377519370142      1.01723714607493      2.01529044898617
  O   0.91970748411904      0.60696721728332      1.87356631728441
  N   -1.18628616257910      0.58288842692481     -0.76197369558527
  O   -1.80333124841348      0.02095136675430     -1.65164562638920
  O   -0.95936355256513      1.77839663728186     -0.63746145080334
  C   1.64163191293454      0.24775724453795     -0.86503764530684
  N   2.32520433542259      1.09352767838599     -1.30623367040242
