16

C	0.0	0.0	0.0
C	-0.277077	-0.096287	-1.544016
F	1.383637	0.0	0.0
H	0.605338	0.379568	-1.976694
N	-0.433844	1.305967	0.401207
H	-0.060308	1.51249	1.323831
H	-1.458356	1.249181	0.456877
N	-0.43993	-1.171299	0.677731
H	-0.195669	-1.089899	1.65929
H	-1.463227	-1.184064	0.613472
C	-1.423516	0.56115	-2.1617
N	-2.104696	1.176565	-2.89416
N	-0.184224	-1.529482	-2.002644
O	0.952086	-1.943256	-2.214272
O	-1.217578	-2.173148	-2.116756
Cl	-3.416339	0.0	0.0
