16

C	0.0	0.0	0.0
C	-0.133496	-0.075219	-1.580176
F	1.411129	0.0	0.0
H	0.564691	-0.868533	-1.855883
N	-0.498953	1.231305	0.479954
H	-1.504819	1.235921	0.279589
H	-0.405467	1.217019	1.491252
N	-0.448914	-1.132777	0.717425
H	-0.195436	-1.994902	0.249863
H	-1.46923	-1.072178	0.758101
C	0.312258	1.161638	-2.211279
N	0.757032	2.099595	-2.760137
N	-1.423934	-0.540522	-2.198606
O	-1.638771	-1.742029	-2.073327
O	-2.097412	0.263219	-2.825933
Cl	-3.508587	0.0	0.0
