16

C	0.0	0.0	0.0
C	-0.125861	-0.259259	-1.562442
F	1.432477	0.0	0.0
H	0.174581	-1.295607	-1.718695
N	-0.439827	1.243707	0.497882
H	-1.46195	1.210367	0.527069
H	-0.146079	2.006374	-0.101507
N	-0.493031	-1.127963	0.695979
H	-1.499937	-1.173939	0.501192
H	-0.408187	-0.921521	1.686837
C	0.78048	0.636495	-2.282163
N	1.496404	1.353974	-2.874395
N	-1.46167	-0.100519	-2.238198
O	-1.841324	1.048119	-2.429636
O	-2.009439	-1.132198	-2.607781
Cl	-3.531562	0.0	0.0
