16

C	0.0	0.0	0.0
C	-0.257388	-0.171341	-1.537892
F	1.386958	0.0	0.0
H	0.547733	0.415348	-1.980828
N	-0.434718	1.317683	0.360041
H	-1.459377	1.279374	0.357693
H	-0.140866	1.491806	1.316503
N	-0.436645	-1.142833	0.731584
H	-0.197787	-1.007747	1.708395
H	-1.458128	-1.152248	0.655134
C	-1.48337	0.241809	-2.215091
N	-2.214886	0.621669	-3.053189
N	0.056528	-1.597143	-1.923375
O	1.233857	-1.835308	-2.18615
O	-0.860961	-2.407364	-1.928435
Cl	-3.431359	0.0	0.0
