18

C	-0.079129	0.037617	-1.527491
C	0.0	0.0	0.0
F	-1.38857	0.259341	-1.999783
H	1.096918	0.0	0.0
N	0.746773	1.151581	-1.92367
H	0.938782	1.088224	-2.918166
H	1.631709	1.017927	-1.413868
C	0.395508	-1.283427	-2.113002
H	-0.273534	-2.113447	-1.872413
H	1.392693	-1.459064	-1.701496
H	0.455049	-1.191609	-3.201822
C	-0.593888	-1.232715	0.669258
H	0.001252	-2.115147	0.428857
H	-0.575422	-1.111131	1.754538
H	-1.631297	-1.402353	0.361528
C	-0.538977	1.220095	0.575394
N	-1.011422	2.152861	1.113564
F	2.66022	0.0	0.0
