18

C	-0.517837	-0.003361	-1.43258
C	0.0	0.0	0.0
F	0.116834	1.018156	-2.139623
H	1.096847	0.0	0.0
N	-0.120867	-1.240517	-2.095416
H	-0.089279	-1.044249	-3.089532
H	-0.83282	-1.94593	-1.939434
C	-2.011169	0.283182	-1.568737
H	-2.282411	0.267022	-2.628696
H	-2.595983	-0.477959	-1.042363
H	-2.257746	1.262689	-1.153039
C	-0.337364	-1.293276	0.745584
H	0.053603	-1.220565	1.762457
H	-1.409347	-1.523652	0.801605
H	0.197294	-2.104582	0.252202
C	-0.500652	1.156747	0.719165
N	-0.90868	2.09695	1.298187
F	2.562661	0.0	0.0
