18

C	-0.093881	-0.00776	-1.533185
C	0.0	0.0	0.0
F	-1.428239	0.090102	-1.965773
H	1.095834	0.0	0.0
N	0.63428	1.117402	-2.088431
H	0.212759	1.968163	-1.722964
H	1.560789	1.042551	-1.652327
C	0.522183	-1.27852	-2.078811
H	-0.073194	-2.155322	-1.815135
H	1.522139	-1.34839	-1.63945
H	0.585684	-1.194614	-3.165322
C	-0.571333	-1.214283	0.722754
H	-1.612074	-1.406674	0.441744
H	0.031067	-2.094004	0.49039
H	-0.527385	-1.066386	1.804175
C	-0.528967	1.242311	0.530271
N	-0.959063	2.246418	0.966495
F	2.644523	0.0	0.0
