18

C	-0.052524	-0.009972	-1.539128
C	0.0	0.0	0.0
F	-1.362117	0.16696	-2.013932
H	1.096254	0.0	0.0
N	0.765093	1.062095	-2.07061
H	0.384725	1.939071	-1.724205
H	1.667777	0.93352	-1.591956
C	0.497553	-1.318926	-2.063627
H	-0.152808	-2.157713	-1.807001
H	1.484266	-1.444206	-1.609765
H	0.588117	-1.245883	-3.148754
C	-0.607592	-1.197668	0.718268
H	-0.02357	-2.093466	0.50375
H	-1.647466	-1.367158	0.420414
H	-0.581123	-1.043076	1.799682
C	-0.522108	1.255171	0.507116
N	-0.955741	2.263243	0.931889
F	2.654665	0.0	0.0
