19

C	0.0	0.0	0.0
C	-0.431922	-0.136034	-1.472332
F	1.4095	0.0	0.0
H	-1.525331	-0.099196	-1.400653
N	-0.4987	1.201107	0.619418
H	-0.315833	1.978858	-0.008075
H	-1.523897	1.022787	0.582938
C	-0.46143	-1.165287	0.848134
H	0.002755	-2.098781	0.525518
H	-1.551177	-1.182278	0.746972
H	-0.176826	-0.965512	1.884777
C	0.024681	-1.435469	-2.12358
H	1.112031	-1.547269	-2.053534
H	-0.250197	-1.41434	-3.180454
H	-0.444986	-2.304386	-1.65899
N	0.046124	0.983067	-2.303721
H	0.995139	1.205429	-2.017704
H	-0.526343	1.798222	-2.120274
F	-2.922834	0.0	0.0
