19

C	0.0	0.0	0.0
C	-0.169636	-0.014477	-1.562108
F	1.414969	0.0	0.0
H	0.283855	0.957692	-1.844698
N	-0.56606	1.14238	0.631248
H	-1.58632	0.91816	0.594141
H	-0.420513	1.949279	0.0288
C	-0.490563	-1.255683	0.673276
H	-0.162273	-1.246215	1.716352
H	-0.091651	-2.131013	0.160363
H	-1.583593	-1.217106	0.613943
C	-1.552663	-0.076486	-2.179974
H	-1.944941	-1.091195	-2.098524
H	-2.280071	0.539052	-1.655138
H	-1.4635	0.186461	-3.245182
N	0.611849	-1.133962	-2.119435
H	0.498178	-1.124544	-3.127315
H	1.590445	-0.985654	-1.911464
F	-3.045783	0.0	0.0
