19

C	0.0	0.0	0.0
C	-0.396734	-0.084082	-1.509029
F	1.393047	0.0	0.0
H	0.539901	-0.376823	-2.00029
N	-0.517054	1.19491	0.609536
H	-0.33381	1.121995	1.607443
H	-1.537893	1.047952	0.496479
C	-0.384563	-1.256125	0.773049
H	0.05859	-1.181844	1.774726
H	-0.016025	-2.156755	0.280029
H	-1.471612	-1.277402	0.838561
C	-0.839245	1.265398	-2.082539
H	-0.91439	1.179527	-3.174252
H	-0.146153	2.073524	-1.836735
H	-1.826233	1.499261	-1.681656
N	-1.377349	-1.145062	-1.752486
H	-1.631731	-1.091855	-2.734943
H	-2.20334	-0.855972	-1.193649
F	-2.982087	0.0	0.0
