19

C	0.0	0.0	0.0
C	-0.60401	-0.292051	-1.398099
F	1.422757	0.0	0.0
H	-1.285039	-1.136563	-1.241015
N	-0.375173	1.29772	0.477942
H	-0.455031	1.926749	-0.312327
H	0.335676	1.608006	1.127877
C	-0.45715	-1.050994	0.985591
H	-1.550123	-0.949575	0.982126
H	-0.041425	-0.849138	1.978744
H	-0.144771	-2.050936	0.662467
C	0.463101	-0.686157	-2.407197
H	-0.012629	-0.948023	-3.359307
H	1.163046	0.133821	-2.578912
H	1.028778	-1.555636	-2.061393
N	-1.391801	0.863833	-1.829886
H	-2.218997	0.769929	-1.178109
H	-1.725782	0.663641	-2.768463
F	-3.084383	0.0	0.0
