19

C	0.0	0.0	0.0
C	-0.170247	-0.057612	-1.567839
F	1.413642	0.0	0.0
H	0.387739	0.839671	-1.884644
N	-0.563809	1.162354	0.600899
H	-0.403624	1.951346	-0.021436
H	-1.586231	0.93712	0.546456
C	-0.491178	-1.224519	0.730659
H	-0.165842	-1.16293	1.773019
H	-1.585837	-1.188296	0.663795
H	-0.086524	-2.135826	0.284932
C	-1.552421	0.017937	-2.18576
H	-2.137178	0.846621	-1.803906
H	-1.418229	0.086704	-3.271748
H	-2.148869	-0.857182	-1.930845
N	0.526332	-1.201239	-2.186018
H	1.387784	-1.359282	-1.676931
H	-0.056083	-2.02267	-2.051641
F	-3.011536	0.0	0.0
