16

C	0.0	0.0	0.0
C	-0.552632	0.029257	-1.427622
Br	1.958598	0.0	0.0
H	-1.662037	-0.000931	-1.192564
C	-0.322322	1.28437	0.671924
N	-0.494408	2.288506	1.26127
N	-0.548662	-1.144336	0.648076
H	-0.317279	-1.118657	1.637554
H	-1.588689	-0.96347	0.556471
C	-0.170672	-1.176569	-2.145773
N	0.107278	-2.105353	-2.811559
C	-0.225273	1.28407	-2.229003
H	-0.687114	1.21529	-3.216504
H	0.852182	1.414306	-2.357208
H	-0.634982	2.160383	-1.722202
H	-2.895693	0.0	0.0
