16

C	0.0	0.0	0.0
C	-0.539867	-0.018452	-1.443714
Br	1.966778	0.0	0.0
H	-1.651094	-0.017437	-1.196642
C	-0.3495	1.300008	0.608226
N	-0.529941	2.356548	1.092563
N	-0.525206	-1.044617	0.822151
H	-0.34399	-1.929993	0.358641
H	-1.561316	-0.85712	0.761901
C	-0.198266	-1.278888	-2.07772
N	0.051984	-2.297403	-2.610909
C	-0.174077	1.17434	-2.317095
H	-0.674793	1.091639	-3.284891
H	0.903539	1.239659	-2.48496
H	-0.515243	2.093649	-1.836669
H	-2.87625	0.0	0.0
