16

C	0.0	0.0	0.0
C	-0.202973	0.049321	-1.595649
Br	1.971356	0.0	0.0
H	0.459631	-0.746966	-1.954336
C	-0.382848	1.28426	0.600321
N	-0.566035	2.359138	1.042617
N	-0.658242	-1.048059	0.654554
H	-0.536163	-1.901663	0.115641
H	-1.720603	-0.724696	0.531518
C	0.318424	1.303366	-2.149962
N	0.683931	2.306246	-2.640532
C	-1.577828	-0.224767	-2.212204
H	-2.300776	0.544459	-1.971381
H	-1.425884	-0.309386	-3.297488
H	-1.991551	-1.153178	-1.825134
H	-2.90636	0.0	0.0
