16

C	0.0	0.0	0.0
C	-0.419455	-0.015581	-1.475234
Br	1.962189	0.0	0.0
H	0.151663	0.782025	-1.970755
C	-0.421684	1.248968	0.662012
N	-0.543711	2.273553	1.233624
N	-0.35321	-1.222607	0.69127
H	-1.378568	-1.174798	0.72646
H	0.016418	-1.177634	1.638546
C	-1.880423	0.307158	-1.632233
N	-2.593648	0.648235	-2.534801
C	-0.10067	-1.343908	-2.16237
H	-0.327819	-1.238498	-3.225534
H	0.950928	-1.618519	-2.046893
H	-0.713509	-2.143027	-1.745713
H	-2.390521	0.0	0.0
