14

C	-0.219744	-0.197685	-1.498036
C	0.0	0.0	0.0
Br	-0.572591	1.900529	-2.182476
H	1.0887	0.0	0.0
H	-0.445283	0.892366	0.419884
N	0.883254	-0.752695	-2.047299
H	0.906828	-0.908983	-3.042306
H	1.775103	-0.532227	-1.550206
C	-1.485981	-0.755493	-1.959508
N	-2.490331	-1.228793	-2.347827
N	-0.451946	-1.156205	0.782526
O	-0.793933	-0.93725	1.948222
O	-0.403703	-2.273959	0.262165
H	2.68881	0.0	0.0
