14

C	-0.224249	-0.122197	-1.506125
C	0.0	0.0	0.0
Br	-0.558223	2.006457	-2.079389
H	1.088674	0.0	0.0
H	-0.445551	0.869244	0.465056
N	0.871646	-0.659464	-2.084567
H	1.766754	-0.466224	-1.581697
H	0.892399	-0.767869	-3.085873
C	-1.497844	-0.646392	-1.985819
N	-2.516955	-1.083298	-2.377764
N	-0.450704	-1.193883	0.724657
O	-0.430861	-2.282194	0.144239
O	-0.756982	-1.035678	1.908896
H	2.690303	0.0	0.0
