14

C	-0.514012	0.053597	-1.418095
C	0.0	0.0	0.0
Br	0.146112	-1.716926	-2.234238
H	1.088335	0.0	0.0
H	-0.361596	-0.891559	0.510266
N	-1.92489	0.153764	-1.492763
H	-2.256897	0.097408	-2.448591
H	-2.358812	-0.56947	-0.933376
C	0.09166	1.076242	-2.276062
N	0.494705	1.841633	-3.071787
N	-0.421916	1.155888	0.763398
O	-0.34984	2.264996	0.218531
O	-0.709412	0.978281	1.957225
H	2.547322	0.0	0.0
