14

C	-0.504493	0.065935	-1.435062
C	0.0	0.0	0.0
Br	-0.136306	-1.729376	-2.19116
H	1.090435	0.0	0.0
H	-0.317625	-0.907035	0.511571
N	-1.921814	0.320983	-1.638892
H	-2.436907	-0.328505	-1.053441
H	-2.083653	1.261003	-1.28446
C	0.243966	1.023078	-2.259969
N	0.767917	1.781983	-2.98494
N	-0.42007	1.126359	0.768543
O	-0.40709	1.017522	2.00683
O	-0.628944	2.206949	0.168295
H	2.459304	0.0	0.0
