14

C	-0.490999	-0.025	-1.430309
C	0.0	0.0	0.0
Br	-0.051602	-1.829993	-2.125244
H	1.107639	0.0	0.0
H	-0.326396	-0.876285	0.55491
N	-1.927807	0.124448	-1.530187
H	-2.194825	0.131884	-2.510197
H	-2.134471	1.040958	-1.140099
C	0.236448	0.907656	-2.313432
N	0.684367	1.643247	-3.114439
N	-0.415629	1.170547	0.700855
O	-0.692172	2.200884	0.038735
O	-0.335732	1.151167	1.941086
H	2.450565	0.0	0.0
