14
Coordinates from ORCA-job run
  C   1.05787934139118     -0.51564111953142     -0.24083051076262
  C   -0.37659809013556      0.01873263587694     -0.23446754981827
  Cl  1.07646808325418     -2.15895776170533     -0.93806477222143
  H   -0.75247248357984      0.08055724028909     -1.25694092736189
  H   1.43103807038018     -0.59008099290122      0.78091270353359
  C   1.93784904304902      0.35459735462897     -1.01544791372561
  N   2.62159244753042      1.07025423785980     -1.64759586755316
  N   -0.33538702996109      1.43472025155310      0.26703660839431
  O   0.40710037781010      1.65935661321087      1.22141276666418
  O   -1.08453562121336      2.23901952942444     -0.27658098492916
  C   -1.31823050977017     -0.75787302320886      0.66901365131111
  H   -2.29957461801988     -0.28031981956794      0.66686240495445
  H   -0.93281519369760     -0.77328223588959      1.69067169950445
  H   -1.43131381703758     -1.78108291003884      0.31301869201006
