14
Coordinates from ORCA-job run
  C   1.04345283804044     -0.06206738242490     -0.62461340431600
  C   -0.41848057903019      0.13124647027379     -0.21082397405487
  Cl  2.15756986016078      0.55361726829798      0.62441798473914
  H   -1.03137020208894     -0.18525749196533     -1.06159713411916
  H   1.23312538046892      0.52243916048369     -1.52616052598401
  C   1.30209772467416     -1.47258851744021     -0.88854612857242
  N   1.47253541702589     -2.61320254181696     -1.11093282501223
  N   -0.64835527097097      1.62467737107555     -0.13188786563558
  O   -0.35065419296381      2.26192427295949     -1.13879596625469
  O   -1.11497379713599      2.08778178512973      0.90224784738972
  C   -0.83071248897937     -0.57584669295647      1.05805297712420
  H   -0.25702910469510     -0.22126062451878      1.91232547743611
  H   -1.88696037889227     -0.40078520724531      1.25860153546782
  H   -0.67224520561356     -1.64967786985226      0.93871200179197
