14
Coordinates from ORCA-job run
  C   1.03264314415698     -0.52377510858954     -0.31148819623604
  C   -0.38583083560970      0.04444373379113     -0.21887159907380
  Cl  0.98464303276665     -2.11996907174399     -1.10966672742089
  H   -0.79485363427933      0.18537472559216     -1.22039430444944
  H   1.43777968087282     -0.67144480819262      0.69010668433835
  C   1.90948848421619      0.37123886716590     -1.06085146233033
  N   2.59344342867621      1.10542604725745     -1.67106250549776
  N   -0.28473101373918      1.42230309966905      0.37270165571597
  O   -1.00313657086331      2.29053377902847     -0.11056741616983
  O   0.47552884691372      1.55470567151940      1.33021987306034
  C   -1.31574400652081     -0.76778745802890      0.66469477783831
  H   -1.47582723074933     -1.75807727221306      0.24010125089363
  H   -2.28082729229697     -0.26311607135337      0.73832266780121
  H   -0.89157603354392     -0.86985613390208      1.66575530153026
