14
Coordinates from ORCA-job run
  C   1.13113651780106      0.13385360704554     -0.43248843581070
  C   -0.39073659946833      0.04105858744778     -0.28623441285477
  Cl  1.86431400139425      0.98662572638852      0.95127040804235
  H   -0.76921837639372     -0.41047376544263     -1.20955378139146
  H   1.36317233779051      0.72399599715531     -1.32037468813076
  C   1.69794101510127     -1.20285013523287     -0.56733609528384
  N   2.11966071756154     -2.29194175119275     -0.69135414742610
  N   -0.91438333722531      1.45945164853539     -0.33386672015309
  O   -1.63629004053986      1.84426588522215      0.57857673340906
  O   -0.57214531343882      2.11936283936556     -1.31164197920268
  C   -0.87920246734438     -0.70581629521948      0.93181054050300
  H   -1.96799872237857     -0.74018874790229      0.93879075635190
  H   -0.49872432866021     -1.72899967559052      0.90231645635256
  H   -0.54652540419942     -0.22534392057970      1.85008536559453
