14

C	-0.479948	-0.020163	-1.43369
C	0.0	0.0	0.0
F	-0.112286	1.246633	-1.949972
H	1.087883	0.0	0.0
H	-0.394211	0.891913	0.488769
C	0.200996	-1.001561	-2.303377
N	0.667225	-1.72427	-3.100494
N	-1.884407	-0.215812	-1.547149
H	-2.185816	-0.123498	-2.508809
H	-2.364593	0.464322	-0.971048
N	-0.485716	-1.161269	0.737664
O	-0.370273	-2.268398	0.208143
O	-0.937753	-0.981749	1.873068
F	2.513343	0.0	0.0
