14

C	-0.150004	-0.145995	-1.519677
C	0.0	0.0	0.0
F	-1.378761	-0.694851	-1.879056
H	1.089044	0.0	0.0
H	-0.4774	0.876311	0.42866
C	-0.125037	1.225346	-2.088178
N	-0.156609	2.315955	-2.520691
N	0.905351	-0.922082	-2.119581
H	1.758521	-0.617652	-1.614279
H	0.745638	-1.870107	-1.789937
N	-0.487232	-1.178296	0.718195
O	-1.071625	-0.993603	1.788572
O	-0.259973	-2.294502	0.245502
F	2.586423	0.0	0.0
