14

C	-0.492786	0.115044	-1.423759
C	0.0	0.0	0.0
F	-0.094534	1.408574	-1.83621
H	1.09168	0.0	0.0
H	-0.383391	0.84564	0.572372
C	0.151041	-0.811062	-2.379381
N	0.593171	-1.478424	-3.237274
N	-1.904992	-0.030176	-1.536558
H	-2.357766	0.617492	-0.903083
H	-2.208671	0.152506	-2.485568
N	-0.483127	-1.220929	0.637771
O	-0.426735	-2.270439	-0.00512
O	-0.867926	-1.146643	1.809943
F	2.51183	0.0	0.0
