15

C	-0.511618	-0.010415	-1.422982
C	0.0	0.0	0.0
F	0.21793	0.829357	-2.246863
H	1.095472	0.0	0.0
H	-1.553465	0.327056	-1.481249
C	-0.446079	-1.366337	-2.002273
N	-0.451773	-2.44067	-2.475772
C	-0.390383	-1.215296	0.820643
H	0.002302	-1.084552	1.826224
H	0.08962	-2.094482	0.390515
H	-1.473246	-1.382454	0.876771
N	-0.471035	1.231627	0.658853
O	-0.381778	1.299446	1.887563
O	-0.894112	2.159457	-0.04277
F	2.501441	0.0	0.0
