15

C	-0.387862	-0.112892	-1.442089
C	0.0	0.0	0.0
F	-1.776639	-0.181639	-1.636117
H	1.102594	0.0	0.0
H	0.026398	-1.063297	-1.790934
C	0.139975	0.927729	-2.339039
N	0.540166	1.657477	-3.165803
C	-0.434918	-1.199515	0.817513
H	-0.040976	-2.100247	0.340793
H	0.004717	-1.132556	1.810443
H	-1.522155	-1.28442	0.909381
N	-0.482842	1.250808	0.601215
O	-0.681193	2.223501	-0.133349
O	-0.621208	1.284753	1.827523
F	2.503005	0.0	0.0
