15

C	-0.36422	0.014125	-1.475652
C	0.0	0.0	0.0
F	-0.009074	-1.209952	-2.030051
H	1.093153	0.0	0.0
H	0.20458	0.789479	-1.986157
C	-1.809432	0.197809	-1.72462
N	-2.963194	0.306661	-1.913594
C	-0.546392	-1.178862	0.765897
H	-0.125124	-1.177883	1.769862
H	-0.223216	-2.090226	0.262265
H	-1.639947	-1.171096	0.838986
N	-0.415874	1.275718	0.588113
O	-0.517335	2.254134	-0.166305
O	-0.583968	1.336866	1.807465
F	2.515127	0.0	0.0
