15

C	-0.529548	-0.153134	-1.407885
C	0.0	0.0	0.0
F	0.184863	0.603921	-2.319907
H	1.092019	0.0	0.0
H	-1.572393	0.174597	-1.481906
C	-0.46825	-1.558455	-1.853789
N	-0.476195	-2.666989	-2.239995
C	-0.393244	-1.125427	0.940822
H	0.093032	-2.042404	0.607448
H	-1.476615	-1.289887	1.008212
H	-0.005878	-0.886809	1.929149
N	-0.462608	1.29333	0.540235
O	-0.935913	2.131776	-0.237613
O	-0.317112	1.497226	1.747144
F	2.505186	0.0	0.0
