12

C	0.0	0.0	0.0
C	-0.446566	-0.321763	-1.471288
Cl	1.77661	0.0	0.0
H	0.478185	-0.482578	-2.041064
H	-0.363593	0.979469	0.298303
C	-0.414505	-1.014589	0.968469
N	-0.502463	-1.861547	1.778948
C	-1.08797	0.829554	-2.109858
N	-1.39196	1.77292	-2.740458
C	-1.199023	-1.567739	-1.640021
N	-1.566572	-2.645691	-1.931808
Cl	-2.950333	0.0	0.0
