12

C	0.0	0.0	0.0
C	-0.450043	0.403267	-1.44776
Cl	1.776539	0.0	0.0
H	0.47291	0.503345	-2.037233
H	-0.363195	0.721816	0.726117
C	-0.413065	-1.350093	0.380337
N	-0.509428	-2.475869	0.705247
C	-1.062331	1.735078	-1.468023
N	-1.338895	2.872897	-1.569508
C	-1.232625	-0.608374	-2.165982
N	-1.607258	-1.419094	-2.932492
Cl	-2.952465	0.0	0.0
