12

C	0.0	0.0	0.0
C	-0.445274	0.363108	-1.461159
Cl	1.776404	0.0	0.0
H	0.478821	0.464746	-2.044643
H	-0.363038	0.745618	0.701653
C	-0.419936	-1.336215	0.423887
N	-0.489492	-2.456487	0.773691
C	-1.074137	1.684932	-1.523159
N	-1.363918	2.815153	-1.666817
C	-1.210687	-0.672486	-2.161949
N	-1.582815	-1.505051	-2.903767
Cl	-2.940764	0.0	0.0
