12

C	0.0	0.0	0.0
C	-0.533015	-0.128395	-1.43798
Cl	1.773355	0.0	0.0
H	-1.645695	-0.120166	-1.286114
H	-0.374975	0.933204	0.418815
C	-0.425095	-1.126259	0.835099
N	-0.574143	-2.041403	1.555885
C	-0.105983	-1.371664	-2.070896
N	0.233658	-2.370601	-2.585926
C	-0.130575	1.018071	-2.246825
N	0.179417	1.941432	-2.903596
Cl	-3.249699	0.0	0.0
