12

C	0.0	0.0	0.0
C	-0.524971	-0.104017	-1.444114
Cl	1.773191	0.0	0.0
H	-1.638523	-0.117406	-1.304147
H	-0.373384	0.926656	0.435742
C	-0.428352	-1.14295	0.809236
N	-0.598047	-2.076565	1.50154
C	-0.063284	-1.323432	-2.101375
N	0.307902	-2.300487	-2.637506
C	-0.134229	1.070318	-2.21973
N	0.167089	2.015197	-2.849163
Cl	-3.251845	0.0	0.0
