12

C	0.0	0.0	0.0
C	-0.562154	-0.134611	-1.424393
Cl	1.773269	0.0	0.0
H	-1.675629	-0.134866	-1.24375
H	-0.367867	0.937093	0.419746
C	-0.425553	-1.11892	0.846064
N	-0.588361	-2.036502	1.560624
C	-0.146353	-1.376423	-2.068088
N	0.170239	-2.377847	-2.593921
C	-0.201038	1.022133	-2.237811
N	0.066399	1.96327	-2.887935
Cl	-3.290356	0.0	0.0
