12

C	0.0	0.0	0.0
C	-0.453828	-0.37163	-1.456312
Cl	1.776601	0.0	0.0
H	0.468696	-0.479271	-2.041835
H	-0.357281	0.993847	0.258628
C	-0.418227	-0.964631	1.015278
N	-0.514092	-1.77102	1.865585
C	-1.190489	0.707482	-2.120346
N	-1.55181	1.582288	-2.817317
C	-1.118181	-1.671525	-1.570141
N	-1.45412	-2.776618	-1.784087
Cl	-2.958933	0.0	0.0
