17

C	-0.473376	0.019879	-1.458928
C	0.0	0.0	0.0
Cl	-2.222334	0.311217	-1.576032
H	1.091968	0.0	0.0
C	0.213346	0.969388	-2.326907
N	0.708615	1.682588	-3.119505
N	-0.166439	-1.395164	-2.024679
O	0.980506	-1.547088	-2.415577
O	-1.055171	-2.231287	-1.976661
C	-0.506141	-1.176592	0.800018
H	-1.589624	-1.288892	0.751819
H	-0.209377	-1.033893	1.837945
H	-0.021189	-2.085206	0.44199
N	-0.421572	1.305376	0.604914
O	-0.030068	2.321734	0.03729
O	-1.119756	1.283566	1.61767
Br	3.347003	0.0	0.0
