15

C	-0.532248	-0.024131	-1.442506
C	0.0	0.0	0.0
Cl	-0.085619	1.487126	-2.285431
H	1.098439	0.0	0.0
C	0.097158	-1.141021	-2.174217
N	0.477233	-2.069361	-2.786612
N	-1.971286	-0.137451	-1.409633
H	-2.170573	-0.974469	-0.868093
H	-2.327332	-0.263009	-2.350731
N	-0.451068	-1.242397	0.651654
H	0.378216	-1.764465	0.911442
H	-0.968158	-1.038228	1.496669
C	-0.501544	1.179387	0.702058
N	-0.92787	2.06849	1.340414
Br	3.402941	0.0	0.0
