15

C	-0.329015	-0.135729	-1.502584
C	0.0	0.0	0.0
Cl	-2.114417	-0.416651	-1.679913
H	1.099425	0.0	0.0
C	-0.026172	1.107316	-2.220702
N	0.166311	2.091967	-2.83146
N	0.371538	-1.237043	-2.10452
H	1.368572	-1.012947	-2.061859
H	0.225032	-2.025709	-1.479338
N	-0.381648	-1.225996	0.683982
H	-1.316044	-1.159593	1.068474
H	0.279988	-1.391862	1.433125
C	-0.552408	1.216124	0.59338
N	-1.064358	2.139072	1.109975
Br	3.388021	0.0	0.0
