19

C	0.0	0.0	0.0
C	-0.525702	0.05031	-1.436435
F	1.406294	0.0	0.0
H	-1.559358	0.397727	-1.320624
C	-0.468004	1.251745	0.717605
H	-0.043247	1.283359	1.726663
H	-1.561114	1.176843	0.74658
H	-0.147781	2.136785	0.163336
C	-0.48997	-1.228844	0.733171
H	-0.168244	-1.184388	1.778753
H	-0.084457	-2.135885	0.279568
H	-1.586073	-1.175672	0.66968
N	-0.505303	-1.297236	-2.056916
H	-1.256595	-1.813664	-1.603232
H	-0.824675	-1.165643	-3.013689
N	0.268063	0.995467	-2.204317
H	1.180757	0.575852	-2.348991
H	-0.164616	1.128304	-3.111597
F	-3.029086	0.0	0.0
