19

C	0.0	0.0	0.0
C	-0.25671	0.022533	-1.529471
F	1.416803	0.0	0.0
H	0.423501	0.822039	-1.88076
C	-0.525083	1.260088	0.644449
H	-0.18874	1.319948	1.684884
H	-0.184982	2.14561	0.10233
H	-1.616915	1.186663	0.6019
C	-0.534624	-1.23068	0.685605
H	-0.200977	-2.135226	0.178194
H	-1.625487	-1.143854	0.634357
H	-0.207006	-1.24588	1.729724
N	-1.598262	0.355619	-1.891453
H	-2.330682	0.106298	-1.175813
H	-1.835696	0.005031	-2.808498
N	0.22252	-1.267592	-2.089203
H	0.139116	-1.196247	-3.098911
H	1.220939	-1.313084	-1.896705
F	-3.295409	0.0	0.0
