19

C	0.0	0.0	0.0
C	-0.495341	0.208117	-1.471471
F	1.403233	0.0	0.0
H	0.426397	0.249735	-2.068297
C	-0.426251	1.101602	0.953997
H	0.044166	0.924652	1.927291
H	-1.512888	1.05214	1.040017
H	-0.121894	2.075364	0.571823
C	-0.420283	-1.340376	0.577506
H	-1.511152	-1.350686	0.603309
H	-0.028658	-2.1717	-0.015984
H	-0.014732	-1.432332	1.589969
N	-1.19879	1.482115	-1.588094
H	-1.502351	1.518271	-2.557213
H	-2.052926	1.306146	-1.04085
N	-1.357782	-0.841115	-2.024423
H	-0.918008	-1.748333	-1.910898
H	-2.183711	-0.801989	-1.405683
F	-3.018006	0.0	0.0
