19

C	0.0	0.0	0.0
C	-0.47145	-0.035056	-1.454852
F	1.421919	0.0	0.0
H	-1.562133	-0.132911	-1.362665
C	-0.499289	1.23849	0.707456
H	-0.186494	1.21807	1.756324
H	-1.595921	1.168083	0.627477
H	-0.111016	2.152911	0.250694
C	-0.483177	-1.233659	0.732623
H	-1.578797	-1.158313	0.699534
H	-0.137313	-2.138096	0.23127
H	-0.118977	-1.221138	1.766115
N	0.110456	-1.200319	-2.117291
H	-0.114951	-1.10587	-3.101544
H	1.121147	-1.119129	-2.039682
N	-0.171442	1.192665	-2.214265
H	0.753651	1.518436	-1.942232
H	-0.833615	1.909098	-1.934001
F	-3.019556	0.0	0.0
