19

C	0.0	0.0	0.0
C	-0.253458	-0.100709	-1.54095
F	1.413208	0.0	0.0
H	0.177505	0.839238	-1.927435
C	-0.541901	1.288082	0.562288
H	-1.634607	1.203693	0.505345
H	-0.186641	2.144743	-0.018693
H	-0.231046	1.416106	1.604906
C	-0.52869	-1.191524	0.75809
H	-0.201999	-1.154558	1.802919
H	-0.17737	-2.125344	0.313249
H	-1.622038	-1.124718	0.70363
N	-1.623964	-0.283322	-1.93017
H	-2.328846	-0.154857	-1.155191
H	-1.849531	0.341171	-2.690979
N	0.531223	-1.18683	-2.166282
H	-0.07197	-2.000179	-2.134881
H	1.371155	-1.365486	-1.629135
F	-3.296331	0.0	0.0
