19

C	0.0	0.0	0.0
C	-0.297148	-0.001808	-1.533201
F	1.413675	0.0	0.0
H	0.529954	-0.600925	-1.944367
C	-0.547396	1.196402	0.735226
H	-0.154504	2.135746	0.340116
H	-0.289286	1.133269	1.797004
H	-1.638979	1.13314	0.617506
C	-0.485093	-1.279061	0.645904
H	-0.161178	-2.149226	0.070402
H	-1.577503	-1.226323	0.658849
H	-0.089276	-1.35201	1.665797
N	-0.149395	1.327534	-2.163317
H	0.71611	1.750222	-1.838095
H	-0.915547	1.90015	-1.824301
N	-1.548285	-0.615689	-1.870252
H	-2.311071	-0.343223	-1.200434
H	-1.783449	-0.337437	-2.815012
F	-3.239045	0.0	0.0
