19

C	0.0	0.0	0.0
C	-0.541423	5e-06	-1.43557
F	1.39239	0.0	0.0
H	-1.633073	-0.000107	-1.289349
C	-0.511847	1.231835	0.721845
H	-0.105442	2.145549	0.279225
H	-0.201455	1.202133	1.771504
H	-1.606863	1.177465	0.647195
C	-0.51186	-1.231784	0.721928
H	-0.201502	-1.201988	1.771593
H	-1.606876	-1.177425	0.647248
H	-0.105445	-2.14556	0.279431
N	-0.068489	-1.186078	-2.174427
H	-0.58908	-1.974889	-1.804067
H	-0.397969	-1.088253	-3.132911
N	-0.068752	1.186274	-2.174309
H	-0.590186	1.974779	-1.804511
H	-0.397359	1.088059	-3.133015
F	-3.095905	0.0	0.0
