16

C	-0.340407	0.04434	-1.505099
C	0.0	0.0	0.0
Cl	0.056825	-1.585498	-2.239145
H	1.102637	0.0	0.0
C	-1.773834	0.241306	-1.749802
N	-2.919899	0.396812	-1.952628
N	0.422634	1.104093	-2.077444
H	1.402677	0.968105	-1.822967
H	0.334849	1.120567	-3.085531
N	-0.542761	-1.152973	0.665296
H	-1.301915	-0.854764	1.263311
H	0.174793	-1.609546	1.209308
N	-0.533004	1.233335	0.593685
H	-0.278518	2.007504	-0.012199
H	-0.022793	1.373875	1.460708
Br	3.554053	0.0	0.0
