16

C	-0.343325	0.053564	-1.503842
C	0.0	0.0	0.0
Cl	0.056114	-1.571406	-2.247404
H	1.102669	0.0	0.0
C	-1.778232	0.249701	-1.744398
N	-2.923494	0.411565	-1.9488
N	0.415638	1.118387	-2.073353
H	1.39723	0.982339	-1.824436
H	0.322935	1.141602	-3.081074
N	-0.544466	-1.156553	0.658884
H	0.177758	-1.629418	1.182899
H	-1.288202	-0.857239	1.275283
N	-0.531855	1.229139	0.602849
H	-0.288174	2.005915	-0.004164
H	-0.011435	1.370424	1.464042
Br	3.554832	0.0	0.0
