16

C	-0.339721	-0.027268	-1.501579
C	0.0	0.0	0.0
Cl	-2.11586	-0.328378	-1.723094
H	1.102983	0.0	0.0
C	-0.063237	1.27548	-2.120593
N	0.16536	2.326675	-2.592903
N	0.388358	-1.061202	-2.194817
H	0.257281	-1.893144	-1.621768
H	1.379417	-0.821468	-2.115287
N	-0.397721	-1.266174	0.576838
H	-1.319854	-1.168129	0.985338
H	0.269195	-1.527372	1.291226
N	-0.606729	1.133281	0.690187
H	-0.359819	1.991891	0.205609
H	-0.152018	1.193339	1.596108
Br	3.51934	0.0	0.0
