16

C	-0.598945	-0.026567	-1.414262
C	0.0	0.0	0.0
Cl	0.175202	1.342578	-2.389628
H	1.096575	0.0	0.0
C	-0.262541	-1.259645	-2.130197
N	-0.003874	-2.215597	-2.760202
N	-2.010443	0.110349	-1.31919
H	-2.436833	0.213318	-2.230692
H	-2.196667	0.916208	-0.730505
N	-0.441646	-1.195458	0.669032
H	0.204875	-1.439646	1.406487
H	-1.384491	-1.094828	1.021121
N	-0.503456	1.234968	0.646622
H	0.074055	2.003689	0.314677
H	-0.285211	1.137379	1.632688
Br	3.557746	0.0	0.0
