16

C	-0.328028	-0.063163	-1.490621
C	0.0	0.0	0.0
Cl	-2.115903	-0.255983	-1.764995
H	1.104677	0.0	0.0
C	0.024454	1.208764	-2.143612
N	0.373105	2.162016	-2.735742
N	0.339969	-1.209203	-2.059698
H	0.224576	-1.215931	-3.066501
H	1.335027	-1.125291	-1.840964
N	-0.525762	-1.194144	0.664732
H	-0.441645	-1.973026	0.017833
H	0.106039	-1.39513	1.433993
N	-0.487999	1.226799	0.57849
H	0.166444	1.549505	1.280617
H	-1.380103	1.030913	1.019464
Br	3.552782	0.0	0.0
