16

C	-0.511347	-0.016586	-1.439069
C	0.0	0.0	0.0
Cl	-2.473933	0.043916	-1.258521
H	1.095679	0.0	0.0
C	-0.246694	1.217566	-2.172173
N	-0.036135	2.191221	-2.795104
N	-0.096342	-1.141826	-2.110755
H	-0.153572	-1.955724	-1.50924
H	-0.471989	-1.263265	-3.037566
N	-0.362713	-1.287609	0.593946
H	0.325104	-1.514941	1.300923
H	-1.282142	-1.238747	1.019829
N	-0.413404	1.219679	0.654437
H	0.238561	1.435736	1.395713
H	-1.353512	1.152048	1.021231
Br	3.499352	0.0	0.0
