17

C	-0.410906	0.016127	-1.438395
C	0.0	0.0	0.0
Br	0.31469	-1.514932	-2.385553
H	1.094614	0.0	0.0
N	-1.931658	0.06308	-1.609108
O	-2.551554	-0.974706	-1.8038
O	-2.419147	1.176837	-1.406559
N	0.085353	1.250495	-2.175837
O	-0.355456	1.405401	-3.311867
O	0.940535	1.931881	-1.619175
C	-0.452527	-1.236687	0.613597
N	-0.833489	-2.200637	1.170615
C	-0.462493	1.18911	0.845792
H	-1.541379	1.185545	1.01762
H	0.056071	1.118922	1.805696
H	-0.172748	2.126677	0.378626
H	2.491563	0.0	0.0
