17

C	-0.422088	-0.01327	-1.435117
C	0.0	0.0	0.0
Br	0.497165	1.359847	-2.464329
H	1.093913	0.0	0.0
N	-0.112946	-1.322912	-2.134644
O	-0.738739	-1.550245	-3.167283
O	0.788502	-1.997699	-1.648624
N	-1.938512	0.164647	-1.574386
O	-2.396999	1.241972	-1.933694
O	-2.58399	-0.800835	-1.169812
C	-0.430379	-1.203282	0.692166
N	-0.75481	-2.129512	1.341205
C	-0.512839	1.23495	0.736718
H	-1.603494	1.228115	0.83424
H	-0.204523	2.14413	0.219305
H	-0.072391	1.24478	1.735765
H	2.532468	0.0	0.0
