19

C	0.0	0.0	0.0
C	-0.632468	-0.001282	-1.38246
Cl	1.844068	0.0	0.0
H	-1.735333	-0.083186	-1.053008
C	-0.489924	1.220708	0.755461
H	-0.116685	1.176033	1.782733
H	-0.13594	2.148385	0.305897
H	-1.588084	1.122979	0.711927
N	-0.428184	-1.186201	0.695493
H	-0.659175	-0.983917	1.655536
H	0.244102	-1.930404	0.613462
N	-0.318726	-1.224517	-2.173952
O	-0.824363	-1.298356	-3.296987
O	0.390512	-2.113167	-1.698809
C	-0.384635	1.22269	-2.241503
H	-0.847738	2.090696	-1.771948
H	0.68504	1.416093	-2.378281
H	-0.852176	1.082321	-3.215973
F	-2.950549	0.0	0.0
