19

C	0.0	0.0	0.0
C	-0.326105	-0.199767	-1.532805
Cl	1.803935	0.0	0.0
H	0.473291	0.289237	-2.093468
C	-0.397681	1.372195	0.527947
H	-0.017931	1.441552	1.549543
H	-1.487934	1.393471	0.514995
H	0.021234	2.173397	-0.078754
N	-0.5328	-0.98071	0.886087
H	-0.320176	-1.911383	0.544433
H	-1.565105	-0.786965	0.753275
N	-1.536211	0.52876	-2.08218
O	-2.375156	-0.112366	-2.701561
O	-1.498537	1.755488	-2.030958
C	-0.417976	-1.663045	-1.902655
H	0.463423	-2.191509	-1.530697
H	-1.324895	-2.077374	-1.464748
H	-0.468721	-1.789128	-2.984596
F	-2.759515	0.0	0.0
