19

C	0.0	0.0	0.0
C	-0.231705	-0.013133	-1.576481
Cl	1.805765	0.0	0.0
H	0.082477	-1.011756	-1.89254
C	-0.514879	1.252341	0.674956
H	-1.607448	1.203331	0.585072
H	-0.110554	2.148149	0.205901
H	-0.226475	1.219626	1.72873
N	-0.610603	-1.133191	0.613081
H	-0.425084	-1.966921	0.063436
H	-1.630904	-0.910164	0.541979
N	0.727146	0.876746	-2.335374
O	0.702159	2.086716	-2.115728
O	1.442073	0.344941	-3.185962
C	-1.596654	0.33601	-2.134273
H	-1.631769	0.035144	-3.186912
H	-1.739963	1.414637	-2.077004
H	-2.397145	-0.096477	-1.519033
F	-3.116121	0.0	0.0
