19

C	0.0	0.0	0.0
C	-0.35168	-0.101814	-1.522626
Cl	1.811231	0.0	0.0
H	0.461222	0.393623	-2.058751
C	-0.375815	1.332104	0.647114
H	0.040478	2.188938	0.118725
H	0.01448	1.32182	1.671092
H	-1.466447	1.353826	0.648659
N	-0.528661	-1.133173	0.696404
H	-0.310843	-1.003398	1.680929
H	-1.561278	-0.92147	0.569823
N	-1.5327	0.713913	-2.015462
O	-2.37656	0.159408	-2.70599
O	-1.458953	1.929788	-1.852691
C	-0.491301	-1.536633	-1.981088
H	0.35338	-2.11662	-1.60819
H	-1.412596	-1.946568	-1.573366
H	-0.526115	-1.586842	-3.07148
F	-2.744929	0.0	0.0
