19

C	0.0	0.0	0.0
C	-0.673843	-0.025228	-1.360863
Cl	1.857691	0.0	0.0
H	-1.769242	-0.21302	-0.985662
C	-0.42229	1.251771	0.754083
H	-0.070134	1.168254	1.785073
H	-0.017546	2.16571	0.316005
H	-1.518669	1.205273	0.724442
N	-0.394589	-1.133461	0.785408
H	0.297292	-1.331013	1.494667
H	-0.551715	-1.944881	0.206989
N	-0.170545	-1.147974	-2.191712
O	-0.32675	-2.301781	-1.77445
O	0.366763	-0.899874	-3.27509
C	-0.606383	1.274745	-2.127974
H	0.413059	1.658205	-2.227605
H	-1.231825	1.997675	-1.60595
H	-1.018415	1.136677	-3.127695
F	-2.93822	0.0	0.0
