11

C	0.0	0.0	0.0
C	-0.449142	-0.560111	-1.356873
F	1.380053	0.0	0.0
H	0.435613	-0.964829	-1.867097
H	-0.359878	1.014098	0.148848
H	-1.199985	-1.329755	-1.21256
C	-0.440217	-0.840851	1.122448
N	-0.522411	-1.539591	2.06429
C	-1.031705	0.476862	-2.203242
N	-1.405472	1.288869	-2.961315
F	-2.348041	0.0	0.0
