11

C	0.0	0.0	0.0
C	-0.460849	-0.197599	-1.450122
F	1.37688	0.0	0.0
H	-1.433114	-0.694696	-1.387524
H	-0.375973	0.93218	0.403201
H	0.301266	-0.770924	-1.980415
C	-0.442835	-1.116351	0.850789
N	-0.537268	-2.042659	1.564602
C	-0.686117	1.06648	-2.131365
N	-0.865376	2.071607	-2.711102
F	-2.423798	0.0	0.0
