11

C	0.0	0.0	0.0
C	-0.541841	-0.336406	-1.377385
F	1.380517	0.0	0.0
H	-1.664933	-0.32407	-1.119734
H	-0.373801	0.980131	0.288396
H	-0.293859	0.476991	-2.066167
C	-0.426405	-0.982536	1.0151
N	-0.551851	-1.780498	1.866399
C	-0.030621	-1.589259	-1.897859
N	0.358178	-2.605117	-2.344296
F	-2.620399	0.0	0.0
