15

C	-0.537482	-0.002417	-1.423077
C	0.0	0.0	0.0
Br	0.07415	1.583632	-2.421455
H	1.092991	0.0	0.0
H	-0.310341	-0.96062	0.4376
C	-0.030136	-1.164933	-2.17186
N	0.272714	-2.158895	-2.722855
N	-1.990761	0.040845	-1.426924
H	-2.336482	-0.061055	-2.37454
H	-2.326997	-0.745583	-0.878388
C	-0.510894	1.155532	0.851443
H	-1.600169	1.182159	0.915327
H	-0.094404	1.056812	1.856581
H	-0.163975	2.107271	0.44636
Br	3.634819	0.0	0.0
