15

C	-0.538472	-0.010697	-1.426956
C	0.0	0.0	0.0
Br	0.106164	1.545489	-2.44849
H	1.092944	0.0	0.0
H	-0.311799	-0.957932	0.441417
C	-0.050207	-1.191533	-2.158955
N	0.232121	-2.187234	-2.718751
N	-1.990311	0.057015	-1.427891
H	-2.345507	-0.078749	-2.367583
H	-2.338439	-0.694401	-0.841362
C	-0.512369	1.160998	0.842299
H	-0.04178	1.109165	1.825459
H	-1.596472	1.150062	0.963608
H	-0.226069	2.112315	0.393267
Br	3.631604	0.0	0.0
