15

C	-0.509686	0.016061	-1.436491
C	0.0	0.0	0.0
Br	0.190001	1.560145	-2.43149
H	1.092876	0.0	0.0
H	-0.346837	0.93185	0.455463
C	-0.029771	-1.160748	-2.179684
N	0.252978	-2.166801	-2.719701
N	-1.965218	0.108591	-1.47626
H	-2.343859	-0.71366	-1.013336
H	-2.276079	0.087731	-2.442346
C	-0.492143	-1.210176	0.792676
H	-0.207382	-2.144862	0.302735
H	-1.575079	-1.205271	0.956848
H	-0.009392	-1.203663	1.772218
Br	3.564088	0.0	0.0
