15

C	-0.559168	-0.002342	-1.422814
C	0.0	0.0	0.0
Br	0.150243	1.539204	-2.424736
H	1.093478	0.0	0.0
H	-0.317301	-0.955165	0.442706
C	-0.130499	-1.210311	-2.137595
N	0.132469	-2.22135	-2.674858
N	-2.014163	0.069246	-1.542427
H	-2.322382	0.942299	-1.129074
H	-2.404569	-0.690646	-0.990695
C	-0.492434	1.156723	0.860502
H	-0.004505	1.096488	1.835475
H	-0.214827	2.115787	0.419131
H	-1.574919	1.140924	1.024886
Br	3.620781	0.0	0.0
