15
Coordinates from ORCA-job run
  C   0.70341286485385      0.44364514616369      0.28978436236295
  C   -0.75025049054948      0.25456079945915      0.73630906236281
  Cl  1.60609338585669      1.19402373033490      1.65875721669298
  H   -1.13253687770082      1.22722103363495      1.05819963727439
  H   -0.73295584704940     -0.39052784024197      1.62051013186029
  C   1.39663869907426     -0.86361437109074     -0.07578714444495
  H   2.44900259784785     -0.68607366508559     -0.29912127007716
  H   1.32640473891056     -1.55720396951461      0.76456058900691
  H   0.92511505990491     -1.30986911589389     -0.95312637626879
  C   0.76403441220238      1.37616745617786     -0.83847220611909
  N   0.77851148018279      2.09219773967805     -1.76983278735271
  C   -1.65067737929003     -0.33417678920850     -0.34554468699596
  H   -1.36562427784089     -1.35529804366742     -0.60503649311127
  H   -1.63340880886579      0.27234739725809     -1.25421553440000
  H   -2.68175955753689     -0.36339950800396      0.01301549920960
