15
Coordinates from ORCA-job run
  C   0.65505518575752      0.45770598589465      0.13898866221764
  C   -0.83870554257384      0.53561717571948     -0.20464970996036
  Cl  0.88072151514404      0.79233857052045      1.89832080140716
  H   -0.91535177712100      0.50211177203785     -1.29748555828841
  H   -1.20096097748245      1.51823236619820      0.10969922012578
  C   1.28440467228607     -0.89354784176006     -0.17756481928738
  H   0.83345453959445     -1.67054353819171      0.43924417715902
  H   1.12612726132170     -1.13329411024909     -1.23252319393939
  H   2.35591627607007     -0.86971884929383      0.02279352757915
  C   1.36075957968343      1.51432908165640     -0.59078361053343
  N   1.91280290171198      2.33913997609552     -1.21941254751022
  C   -1.69116200582620     -0.56622685854616      0.41288841206750
  H   -2.74483426565127     -0.37390051667990      0.20068968276712
  H   -1.57023212561203     -0.60248917065287      1.49658228016991
  H   -1.44899523730248     -1.54775404274893      0.00221267602591
