15
Coordinates from ORCA-job run
  C   0.63658544149404      0.23087657486848      0.02145320575080
  C   -0.73018691747456     -0.36668850962118      0.36888693397902
  Cl  0.85032774477053      1.78328274010478      0.91455929659016
  H   -0.74407627430967     -0.51686412214415      1.45314502483515
  H   -0.76680048725062     -1.35825065766459     -0.09714513370792
  C   1.77740269607451     -0.70078358768387      0.41492791231380
  H   1.69343914659566     -1.63798761718118     -0.14053319996892
  H   2.74305378412454     -0.24413493041676      0.19587915936717
  H   1.72025549918352     -0.91042275853969      1.48450005901227
  C   0.70679727130790      0.53326810961878     -1.41010186769344
  N   0.75255157932188      0.72496782475279     -2.56836526119570
  C   -1.92748398104090      0.46204658962408     -0.07609323090824
  H   -1.94040463331463      0.58862768399358     -1.16076098096884
  H   -2.85372734667755     -0.03806316110047      0.21416670352013
  H   -1.91873352280466      1.45012582138941      0.38548137907457
