15

C	-0.499493	-0.008404	-1.431002
C	0.0	0.0	0.0
Cl	0.02816	-1.439713	-2.324461
H	1.094066	0.0	0.0
H	-0.339137	0.946439	0.433106
C	-1.959425	0.076691	-1.521475
N	-3.134728	0.107553	-1.552379
N	0.03683	1.268322	-2.132811
O	-0.41792	2.306744	-1.662861
O	0.830038	1.164326	-3.048565
C	-0.509915	-1.178445	0.814171
H	-0.11103	-1.086807	1.827101
H	-0.136454	-2.119803	0.407665
H	-1.602805	-1.224469	0.87322
H	2.859097	0.0	0.0
