15

C	-0.478026	-0.036569	-1.423168
C	0.0	0.0	0.0
Cl	-2.29042	-0.05122	-1.587421
H	1.09343	0.0	0.0
H	-0.311403	0.968719	0.404385
C	-0.005512	1.116454	-2.188437
N	0.321628	2.088783	-2.762972
N	0.032973	-1.305146	-2.116663
O	0.98484	-1.164115	-2.872671
O	-0.512248	-2.358918	-1.814849
C	-0.467177	-1.143054	0.88878
H	-0.151281	-0.916101	1.91022
H	-1.549821	-1.290379	0.878306
H	0.017379	-2.077257	0.604114
H	2.781481	0.0	0.0
