15

C	-0.470288	-0.018111	-1.435201
C	0.0	0.0	0.0
Cl	0.178975	1.333556	-2.376183
H	1.093075	0.0	0.0
H	-0.323516	-0.946055	0.448467
C	-0.136075	-1.268327	-2.116549
N	0.11632	-2.270742	-2.67507
N	-2.012741	0.076274	-1.431262
O	-2.591528	-0.971673	-1.152969
O	-2.538545	1.170904	-1.580267
C	-0.510173	1.187698	0.799627
H	0.015315	1.193747	1.757787
H	-1.587417	1.15414	0.992289
H	-0.277141	2.127773	0.296404
H	2.795431	0.0	0.0
