14
Coordinates from ORCA-job run
  C   0.87961932002359      0.20385738703187      0.33569629936256
  C   -0.57782284943028      0.37496282352829     -0.09425270469060
  F   0.95993296189107     -0.61117961768997      1.41191977737648
  H   -0.60499759071970      0.94987990540169     -1.01935919858336
  H   1.32656014403307      1.17226613656841      0.56674064362638
  N   1.69944437214439     -0.36719870830030     -0.79592555998688
  O   2.10417457791671     -1.51470849028698     -0.69794016652844
  O   1.85978988345720      0.41329715233792     -1.72788036271682
  N   -1.43223116635353      0.94179537006958      0.89089385329687
  H   -1.29401441848362      0.53039242398149      1.80331468261283
  H   -1.35505907608731      1.94767099762780      0.92615963784907
  N   -1.08301178187820     -1.00942093239071     -0.44789158591980
  O   -1.64811927872511     -1.63804113402517      0.43698499339261
  O   -0.83526509778828     -1.39557331385391     -1.58746030909090
