14
Coordinates from ORCA-job run
  C   0.63330943645088      0.38148903408210     -0.88011924993147
  C   -0.66575627629161      0.32725357561538     -0.08393556971879
  F   0.88444706105640      1.65330954182367     -1.25454505975049
  H   -1.38438887402688      0.93710610203392     -0.63665671725162
  H   0.61573518581701     -0.26887010197238     -1.75413966909240
  N   1.76400576353053     -0.10185284217449     -0.00746365199948
  O   2.78127552415090      0.56569065927364      0.06268777571205
  O   1.53410706738951     -1.17522101499016      0.54669288244425
  N   -0.51616338861589      0.80308260119294      1.23366144312880
  H   -0.06484883499360      0.11784894931889      1.82600917239627
  H   -1.40369499767312      1.05482362516425      1.64361411024690
  N   -1.24266016418388     -1.09913389406882     -0.19763935632451
  O   -1.34564320577816     -1.54594354527204     -1.33543688672005
  O   -1.58972429683209     -1.65058269002690      0.83727077686054
