14
Coordinates from ORCA-job run
  C   0.96492209927576      0.20171233813893      0.26866119450241
  C   -0.50320067674440      0.42224137861102     -0.05050520208887
  F   1.08430036478949     -0.65108967113086      1.31457574248497
  H   -0.59010785990847      0.92381941427249     -1.01463963756943
  H   1.43857023500292      1.15387818442538      0.50889369225194
  N   1.71888770557403     -0.34630503069726     -0.92015521240570
  O   2.29087410199997     -1.41643353575575     -0.80175417618725
  O   1.69916283620835      0.39317110996200     -1.89683608582939
  N   -1.10861627696415      1.16585555668826      0.98709098362616
  H   -1.11704134037872      0.63938269243745      1.85158830667598
  H   -2.05959274051385      1.41701569597413      0.75532739802654
  N   -1.12703095657879     -0.97101044024416     -0.27551270766062
  O   -2.01295567622011     -1.32520628903168      0.49244100787532
  O   -0.67717181554205     -1.60903140364997     -1.22117530370207
