18
Coordinates from ORCA-job run
  C   0.65012830594633     -0.26683570025914      0.29976121065145
  C   -0.59309245168128      0.36712703327670     -0.35544460880806
  Cl  0.08443834287600     -1.54626237154829      1.49757873416899
  H   -0.20944025345542      0.99600818364780     -1.16201865486435
  C   1.56151398803702     -0.96938975378177     -0.69001123342738
  H   2.43528931314208     -1.35516879418383     -0.15994966466500
  H   1.06271216578566     -1.80277089246250     -1.17772754902979
  H   1.88882024019275     -0.25535679615745     -1.44865652304689
  N   1.36761500495870      0.78569410043365      0.94187009194715
  H   0.86897403851356      1.13761900482511      1.74946305380692
  H   2.27316236957281      0.45408973241328      1.25150069546915
  C   -1.47656227095130      1.16588024105233      0.57986777762536
  H   -0.94349148298466      2.05837867229557      0.91016518904567
  H   -2.37559771090258      1.49106985994466      0.05504881666687
  H   -1.78300939265048      0.57143655377229      1.43929521442028
  N   -1.40457335711657     -0.68222517206130     -1.06114400452843
  O   -2.39794274907728     -1.12720070074525     -0.49339634107093
  O   -1.00694410020535     -1.02209320046187     -2.17620220436100
