18
Coordinates from ORCA-job run
  C   0.63316365904760     -0.61765134511444     -0.05311354065946
  C   -0.77520992171703     -0.15458119836021     -0.46431060179988
  Cl  1.34305189002865     -1.29177682963025     -1.57175448079193
  H   -1.23689203791995     -0.97821259877530     -1.00851667488176
  C   1.57376806709496      0.47941744597517      0.42361033702956
  H   1.16796604922676      0.94194032318146      1.32374313787794
  H   2.54323176002382      0.03473541868629      0.65708229918801
  H   1.72862959657430      1.24522145100777     -0.33750267777720
  N   0.48094104605936     -1.73885167780447      0.85799799436647
  H   1.34002550180190     -2.27567373608916      0.87995484178285
  H   0.31174072844486     -1.37628606809770      1.79057187526714
  C   -0.84514918520344      1.14227773711599     -1.25154488256995
  H   -0.52274058471920      1.98718544814860     -0.64062177646014
  H   -0.20895035367367      1.07709827092641     -2.13464205756120
  H   -1.87196690542926      1.31707611607978     -1.57704179888491
  N   -1.65792883817873      0.01139786995231      0.74136907552416
  O   -2.84673910095025     -0.24431436762326      0.58297781732935
  O   -1.15794137051069      0.44199774042103      1.78174111302093
