18
Coordinates from ORCA-job run
  C   0.58592179165508     -0.27374756287826      0.41603036210112
  C   -0.56590969918963      0.47605901795197     -0.28228831412433
  Cl  -0.03317574696008     -1.25138274131941      1.78625344461383
  H   -0.08926950318633      1.19301655100985     -0.95605252940055
  C   1.32398844393656     -1.21697779562450     -0.52445888045673
  H   2.18499132621518     -1.63877653867759     -0.00286872352703
  H   1.67263534837621     -0.66582186459375     -1.40262996389486
  H   0.68972943080917     -2.03812378692411     -0.86038727152262
  N   1.42412768482738      0.76780920710741      0.99562749381316
  H   1.98173241059459      1.18603382401335      0.25665691057049
  H   2.06078807884674      0.35254425357318      1.66649561549128
  C   -1.54243624073355      1.16889267205436      0.64141475597926
  H   -0.97846469118669      1.77479177315557      1.34985888973057
  H   -2.14109834890352      0.43997616685231      1.18307440766236
  H   -2.20814475864896      1.81370035615889      0.06357061814325
  N   -1.28482386829722     -0.45584731890388     -1.20937447126109
  O   -0.95054628119729     -0.42776531844670     -2.39463029607206
  O   -2.13004537695761     -1.20438089450867     -0.72529204784605
