18
Coordinates from ORCA-job run
  C   0.54395049402681     -0.70306181154137      0.14342051881600
  C   -0.68257948023188     -0.06514715900511     -0.53339551247321
  Cl  0.58086907030141     -2.46196596600830     -0.40510358473294
  H   -0.73857315209801     -0.44198085054314     -1.55405581466892
  C   1.82794145919592     -0.08996633466824     -0.40244744892404
  H   2.68085741889187     -0.64061285081114      0.00014565613840
  H   1.87501554819395     -0.15096805046595     -1.49155368589090
  H   1.90763314393604      0.95226574858484     -0.08709870956562
  N   0.44421649852234     -0.65909945682657      1.55515637305538
  H   -0.22360692411381     -0.00710677952386      1.93384154155517
  H   1.33188534519396     -0.64897329833712      2.03122094389536
  C   -0.68854601721515      1.45523034161526     -0.50493828290554
  H   -0.46413752660419      1.84512713283249      0.48753590218285
  H   0.04440696959844      1.84076327486825     -1.21400151138181
  H   -1.67100390686122      1.82868813052436     -0.79876350948404
  N   -1.94029097181311     -0.56638531895335      0.11705137205522
  O   -2.54605623934999     -1.47582008059205     -0.43967533618768
  O   -2.28198172957337     -0.01398667114901      1.16466108851634
