18
Coordinates from ORCA-job run
  C   0.66210392335234     -0.60079890045298     -0.02816745386720
  C   -0.78146920941742     -0.19333385005268     -0.40757287949703
  Cl  1.50385919113225     -1.05276239640956     -1.57009255627886
  H   -1.33940098775963     -1.11925365517784     -0.56470687117550
  C   1.46057643789347      0.54233965287138      0.58691611321397
  H   2.49247582022039      0.21583439246492      0.73019347655986
  H   1.04562304548251      0.80510035220738      1.56288078263886
  H   1.47103974346956      1.43138276947907     -0.04486141266374
  N   0.60117143051663     -1.79416262665968      0.77383796977114
  H   1.50272729373955     -1.98734641557682      1.19331638839952
  H   -0.09711985076376     -1.69506532036188      1.50147617751315
  C   -0.94375517134765      0.75859947243985     -1.57404990119111
  H   -0.71547535608637      0.23864432707363     -2.50218278222619
  H   -0.29482706025557      1.62813590964883     -1.48349491503445
  H   -1.97577137621502      1.10946874738792     -1.61834419717384
  N   -1.39006713857523      0.42123884110002      0.82904848910923
  O   -1.42745265722961      1.64594027073624      0.90835490552553
  O   -1.77523807815643     -0.35496157071781      1.70644866637666
