18
Coordinates from ORCA-job run
  C   0.65373935605852     -0.33737869543416      0.40509041124251
  C   -0.52729238823560      0.39689063618938     -0.28186714035325
  Cl  0.01741610711987     -1.40078400429409      1.70443509567980
  H   -0.06565556625993      1.08593813304510     -0.99415498832730
  C   1.43803153543075     -1.19344264678939     -0.57354118966860
  H   2.30179355616557     -1.60092703924499     -0.04898443757646
  H   0.83720088167049     -2.01307337036670     -0.96458412163676
  H   1.77817807395867     -0.58588756681075     -1.41728196684420
  N   1.56631887181828      0.58852064212586      1.03891770214773
  H   2.00188181936359      1.18303327764532      0.34257244860936
  H   1.10068018109462      1.16143695641461      1.73104256165984
  C   -1.48626870218983      1.12881407154601      0.63340286309315
  H   -2.00231000362922      0.43365107851430      1.29140197487903
  H   -0.95000413065786      1.86492256237619      1.23433753614927
  H   -2.22920493248751      1.66306935555452      0.03767189690538
  N   -1.29420263211821     -0.55034054671561     -1.15761448805361
  O   -2.20031150731924     -1.20194192048713     -0.64433867773402
  O   -0.93799051978296     -0.62350092326846     -2.33450548017188
