18
Coordinates from ORCA-job run
  C   0.59305417846025     -0.55503152772438      0.18823212223658
  C   -0.65562210880029     -0.00674029436152     -0.51415612043157
  Cl  0.50639600450793     -2.40092540506294     -0.04501149876227
  H   -0.60922022172709     -0.29514585362927     -1.56449549412479
  C   1.85066012362787     -0.11733206626934     -0.54464906228862
  H   1.80494522153617     -0.38831701997969     -1.59975125426960
  H   2.71778767636232     -0.61586156809100     -0.10685935535018
  H   1.98392178106327      0.96047090863953     -0.44051889640996
  N   0.66086506079250     -0.17286630519776      1.54589424715573
  H   -0.16054452636616     -0.46301928745904      2.06089093193318
  H   1.49625679166757     -0.53507123921587      1.98684239568371
  C   -0.84465786604595      1.49244057109100     -0.34804506460375
  H   -0.00432953299080      2.03082718878359     -0.78675963006151
  H   -1.75489296230888      1.80596472243411     -0.86440000642356
  H   -0.91490557454477      1.75212818341759      0.70677385982524
  N   -1.90351156306407     -0.67621387703029     -0.01551599466241
  O   -2.12120377726325     -0.63873246330702      1.19551884033410
  O   -2.64499870490662     -1.17557466703771     -0.85499001978034
