18
Coordinates from ORCA-job run
  C   0.58688938491254     -0.70493746355836     -0.13289784979938
  C   -0.78678078700077     -0.03071287397983     -0.39063600730977
  Cl  1.03016986756768     -1.41263686902403     -1.74555983613312
  H   -1.44189754401475     -0.77932091602149     -0.83912322660014
  C   1.68711178211286      0.25589448361532      0.27362931000174
  H   2.59973896162654     -0.31859299951624      0.43423711396299
  H   1.41331831880331      0.77261829844475      1.19616559300305
  H   1.87328870278396      0.99767533243200     -0.50116478327210
  N   0.52921814826055     -1.78675481844645      0.80638877576795
  H   -0.29604961213478     -2.36035646400337      0.68296022400595
  H   0.56583499126456     -1.44408959394496      1.75815693684594
  C   -0.77014020132238      1.24849538728093     -1.20132939024124
  H   -1.79220346353100      1.58992025809843     -1.37945498673203
  H   -0.29640483054923      1.06651598891907     -2.16593353068536
  H   -0.23253130723078      2.03582016064200     -0.67533021035267
  N   -1.40837705091649      0.23335812837732      0.95017523787218
  O   -2.26230505805322     -0.56372195688461      1.33762422754947
  O   -0.99788030257859      1.19982591756952      1.59209240211654
