18
Coordinates from ORCA-job run
  C   0.59540604688786     -0.66998302200152      0.14682818845514
  C   -0.64779558814021     -0.02492628152433     -0.51196102898508
  Cl  0.44750032289649     -2.44592025888070     -0.18362167708852
  H   -0.63428243668364     -0.24985819135350     -1.57912481258966
  C   1.85553896224468     -0.18734411880495     -0.55412400607629
  H   1.79693182983260     -0.35742196898768     -1.62968930602452
  H   2.70525753175746     -0.74088720230339     -0.15450682116245
  H   2.01780261587676      0.87791514834168     -0.36958115551810
  N   0.74763760537820     -0.49697273627709      1.55956432323511
  H   1.12200646918109      0.41796502772328      1.77378509524568
  H   -0.12808962581399     -0.63687276145685      2.04707873386313
  C   -0.77019969465204      1.46723575134368     -0.25513110532220
  H   -1.68609878805921      1.84819336072403     -0.71210383185949
  H   -0.80953065104256      1.67145075995883      0.81486835243213
  H   0.07036486296433      2.00423073072550     -0.69587319760155
  N   -1.90767184209872     -0.67203872394838     -0.02310838515003
  O   -2.14147342568269     -0.60448177541938      1.18459168207627
  O   -2.63430419484642     -1.20128373785922     -0.85789104792956
