17
Coordinates from ORCA-job run
  C   0.67888941598173      0.21699090735640     -0.12232522939732
  C   -0.84952025702685      0.14339483903714     -0.23065980846810
  Br  1.33148411900292      0.74234031420614     -1.97729433410465
  H   -1.24595238512218      1.10695760749465     -0.55099107923169
  C   1.07769786959584      1.35652901889760      0.79830904814485
  H   0.70935313747067      1.14070599831557      1.80167467152599
  H   0.65914484936611      2.30124275965058      0.45141956969388
  H   2.16519849347040      1.45392290789200      0.81777166364886
  N   1.22117607942064     -1.00472409764929      0.32932807326947
  H   2.21387020860583     -0.92947418739559      0.50717390887463
  H   1.02940233053149     -1.77266681661233     -0.30111286880420
  N   -1.39397675946465     -0.24588530449096      1.02220662645713
  H   -2.40497062915798     -0.27146469094606      1.00994271548694
  H   -1.00850607506712     -1.13285330190700      1.31971779535284
  N   -1.27138240667378     -0.79753811284892     -1.36212501120881
  O   -0.89866045755595     -1.96910032570042     -1.28692007246173
  O   -2.01124753337712     -0.33837751529952     -2.22611566877808
