17
Coordinates from ORCA-job run
  C   0.71075025096079      0.29811459204363     -0.25222408015099
  C   -0.75609936388085     -0.07774114238885     -0.56414443230039
  Br  1.06571570567335      1.85065498489845     -1.47261413166526
  H   -0.82451204127194     -0.35588804042300     -1.62245447857817
  C   0.92909996735529      0.77075131861945      1.17127078758367
  H   0.28461289384569      1.61039076478075      1.42003602541437
  H   1.97304213751262      1.06372426677423      1.28689087686593
  H   0.69745524173012     -0.04263219737569      1.86361175745811
  N   1.64601164338040     -0.72363262705852     -0.58085485765518
  H   1.38827203776103     -1.25097426146376     -1.40483640493066
  H   1.80335354071313     -1.34909946149872      0.19819841524789
  N   -1.69465570656239      0.88834819599981     -0.09501040030547
  H   -1.39861970164932      1.81358838798262     -0.37857435472987
  H   -2.61545343158368      0.71464417482993     -0.47844842386995
  N   -1.02029088339885     -1.40507624952121      0.13915190851968
  O   -0.87385616205289     -2.41046504790389     -0.55750574283537
  O   -1.31482612853250     -1.39470765829524      1.32850753593166
