17
Coordinates from ORCA-job run
  C   0.74633471658099      0.22843990634327     -0.18625951532519
  C   -0.79868053658739      0.18522480873079     -0.24129095322987
  Br  1.35633948997616      0.79417290854909     -1.98451640203461
  H   -1.19542085084797      1.18110612796135     -0.43949258302908
  C   1.17142755586886      1.30270277272171      0.80066509986236
  H   2.26035571378949      1.35380382547512      0.82061837919003
  H   0.79308569041178      1.04879874404135      1.79333504426679
  H   0.77747519026801      2.27774319344736      0.51280475377157
  N   1.39350914792880     -1.00247121600210      0.13805119750808
  H   1.39544592329324     -1.16507473481440      1.13627691331751
  H   1.00698043415070     -1.79110936602597     -0.36352360768584
  N   -1.30040863675703     -0.32958115910989      0.99235888595432
  H   -2.30002336597258     -0.19017977700407      1.06925169287467
  H   -1.09769725754382     -1.31913392695581      1.06304987420322
  N   -1.27615368955927     -0.64454296792710     -1.42326190221142
  O   -1.00021037530372     -1.84588763177911     -1.39312020184349
  O   -1.93035914969624     -0.08301150765159     -2.29494667558907
