17
Coordinates from ORCA-job run
  C   0.63095328864211      0.14650680952670     -0.21828677910882
  C   -0.89989957262927     -0.00154979451713     -0.24566334524932
  Br  1.21784484889999      0.28698803157998     -2.15777705952863
  H   -1.34038073006276      0.87530301782293     -0.71940378047259
  C   1.00612201484661      1.47367523007810      0.41994945647021
  H   0.68256134122708      1.47597903374190      1.46316042373023
  H   2.08903892740986      1.60889526714345      0.39058906334949
  H   0.54801262736007      2.30842642293968     -0.11106986502437
  N   1.23654283323393     -0.92269804706646      0.47677967322642
  H   2.23422426933499     -0.79005395811671      0.57682793336189
  H   1.03512496793777     -1.81984679364698      0.05330223106670
  N   -1.46946571776835     -0.24664329806945      1.04006852575838
  H   -0.79551314593635     -0.67223265846984      1.66221043168723
  H   -1.88092345737676      0.57903242464797      1.44529736781469
  N   -1.31735287598971     -1.14723469198099     -1.14940244217012
  O   -0.84130439022771     -2.25322819990640     -0.90074075295551
  O   -2.13658522890151     -0.90031879570671     -2.02584108195589
