17
Coordinates from ORCA-job run
  C   0.66443550791498      0.23435892069473      0.01940933281789
  C   -0.69219610751897     -0.37984999485386     -0.36515596332409
  Br  0.32501499896371      2.24316086317571      0.30830838520219
  H   -0.52728952462281     -1.45644565924754     -0.45416698149338
  C   1.26584292614964     -0.26435273406525      1.31748191173685
  H   0.65932846638693     -0.00463847129127      2.18073985589275
  H   2.25514496696841      0.18048955849094      1.44415188592555
  H   1.36967003864151     -1.35081303197262      1.26425654056449
  N   1.52654490726834     -0.01273630024371     -1.06253492256267
  H   2.44270692805600      0.39304314587741     -0.92795491253061
  H   1.11736247907581      0.27844982503094     -1.94128425623382
  N   -1.17363933055221      0.15390706698909     -1.58740923276127
  H   -1.48650486705161      1.10812868712052     -1.45161726131225
  H   -1.94212805009538     -0.39547821935346     -1.94838061591029
  N   -1.69055772714150     -0.26106526938277      0.78871704670591
  O   -1.52032492735554     -1.02690265080175      1.73483327213725
  O   -2.59441068508723      0.56074426383289      0.67960591514547
