17
Coordinates from ORCA-job run
  C   0.72339408785534      0.21974694662987     -0.24975526364990
  C   -0.74825226776717     -0.05470657793717     -0.61947073444971
  Br  1.31183900129238      1.60731356635509     -1.61738412576948
  H   -0.82526824916534     -0.27361752172337     -1.68466436475814
  C   0.90202600857403      0.86041865126898      1.11187845534357
  H   0.38438400645885      1.81651993880212      1.16290120836450
  H   1.96273789098392      1.04229194250736      1.29572677777475
  H   0.52132561621124      0.18111647543993      1.87815204648101
  N   1.46912752177177     -0.97403172135732     -0.34165178218797
  H   1.39802545183134     -1.42303746856475     -1.24638357338685
  H   2.44233640210345     -0.82899888152086     -0.10846684949659
  N   -1.61597075417609      1.00370528736431     -0.25461644628150
  H   -1.75829253931473      1.01831105797283      0.74756815954318
  H   -2.51239010164225      0.91684324245788     -0.71411389466577
  N   -1.12551685172879     -1.38339682329261      0.05047864254813
  O   -1.45769870996642     -1.33340684537378      1.23252300707168
  O   -1.07080651332152     -2.39407126902853     -0.64272126248092
