17
Coordinates from ORCA-job run
  C   0.59154322356276      0.39070380808572      0.08074348271756
  C   -0.70904594461753     -0.34005374173346     -0.36207791007338
  Br  0.15614454907935      2.28434363645977      0.42338895236451
  H   -0.41046873409201     -1.36795347842115     -0.58368885856414
  C   1.20700555024348     -0.19659155430593      1.33655163746704
  H   0.56345187349936     -0.07259502861112      2.20497888157099
  H   1.37976878772302     -1.26870450451071      1.19474464674877
  H   2.15997140706017      0.29971370989294      1.52096045797558
  N   1.57581656263956      0.38283147754710     -0.97147951989059
  H   1.18454768413747      0.69256559553890     -1.85234269940202
  H   1.97085943392193     -0.54556412281357     -1.07592525460207
  N   -1.43749215009274      0.18829039194478     -1.46426007313493
  H   -1.54481885835375      1.19203540467336     -1.41185258827234
  H   -1.05952025069377     -0.10091756600632     -2.35279301680975
  N   -1.65278625983010     -0.47823939949585      0.81017929190808
  O   -2.49097382626668      0.40111493311558      0.96755081063325
  O   -1.48400304792058     -1.45897956135994      1.53532175936341
