17
Coordinates from ORCA-job run
  C   0.69855099472937      0.28435222897224     -0.26800625662179
  C   -0.76040304136109     -0.10869042445488     -0.64627847324350
  Br  1.06232896514207      1.84022411070523     -1.47798318184359
  H   -0.77816751249481     -0.35826932769285     -1.70829366576835
  C   0.86402024657846      0.77267455445130      1.15732245978047
  H   1.90176382480213      1.07105479183029      1.30841867941543
  H   0.22688692696076      1.63100458827643      1.36445860944029
  H   0.61256903214094     -0.02783887494506      1.85831017805535
  N   1.66090136096043     -0.72512298711231     -0.55352928661444
  H   1.80723251027419     -1.34168269742017      0.23457581017960
  H   1.44234088571604     -1.26321687905092     -1.38185340672780
  N   -1.83749823413899      0.78014970605999     -0.34287792390790
  H   -1.84505687623225      1.02625395103256      0.63805770008907
  H   -1.76573505181117      1.61522920516874     -0.90806590415080
  N   -1.04164575423424     -1.40993227638684      0.06057433416524
  O   -0.83563214291163     -2.44854247756187     -0.56333261896849
  O   -1.41545613412021     -1.33664719187191      1.22950294672122
