17
Coordinates from ORCA-job run
  C   0.65873268624807      0.18848615811130     -0.24661527942467
  C   -0.80114427353395     -0.19913596477900     -0.58970748036676
  Br  1.05012360117457      1.66251315509718     -1.64017400583177
  H   -0.83938018423326     -0.51480948361440     -1.63300093252994
  C   0.85602713545172      0.84365935770763      1.10354400694301
  H   1.90124351018245      1.13652073051254      1.22140768492346
  H   0.24927140417520      1.74217155768469      1.20224810904382
  H   0.59241177719440      0.13172992844311      1.88765331202936
  N   1.49004680056849     -0.92812227318263     -0.39523517541960
  H   2.46260444751465     -0.73300516072077     -0.20104477920144
  H   1.39407756046392     -1.40201396345127     -1.28406060699459
  N   -1.84625132308388      0.73972630674470     -0.33281368305738
  H   -1.84717231280771      1.02659830629748      0.63711668261881
  H   -1.74917948633518      1.54606813036707     -0.93484403062146
  N   -1.11759542159204     -1.44273597106482      0.20350966973719
  O   -1.40497189872691     -1.27946760708467      1.38652724071373
  O   -1.04984402266054     -2.51718320706812     -0.38351073256179
