17
Coordinates from ORCA-job run
  C   0.70137190026709      0.16508588443435     -0.06017525452939
  C   -0.81229038068734      0.20509509945987     -0.30653926052241
  Br  1.55610360670742      0.63030181025984     -1.84671215706322
  H   -1.10507930113057      1.19419074180421     -0.65891601959156
  C   1.09870590839897      1.27640121926437      0.89515147302129
  H   0.62387735481136      1.09459063093055      1.85972698502480
  H   2.18402227981205      1.29123427754862      1.01524527420639
  H   0.78705982567846      2.24822025978676      0.51245066535660
  N   1.10772753787780     -1.09119476058460      0.43807238234072
  H   2.08346144752014     -1.08849463950841      0.70416221770733
  H   0.91796372392210     -1.84627274366831     -0.20833617094533
  N   -1.49590521419405     -0.13666206084786      0.89082763239481
  H   -1.20687631742694     -1.04871365013547      1.22012823255007
  H   -2.50061734946807     -0.08655585318283      0.78594705995051
  N   -1.19891684279203     -0.70688325144809     -1.47374666692046
  O   -1.82288741274215     -0.19817176692507     -2.39929507235232
  O   -0.92072076655426     -1.90217119718793     -1.36899132062779
