17
Coordinates from ORCA-job run
  C   0.67439579845225      0.20395215816005      0.01040516351561
  C   -0.72426556495960     -0.31217544436565     -0.36689906929798
  Br  0.43955897183757      2.18492597749060      0.51452134252441
  H   -0.61331198663815     -1.37997109350662     -0.57107384496585
  C   1.31013330643254     -0.44833065714676      1.22111177054632
  H   0.75544974988854     -0.25330931624394      2.13477475551547
  H   2.32340699165992     -0.05946657111817      1.34241035666528
  H   1.36198592273771     -1.52703027435816      1.05465161420486
  N   1.47557465097022      0.03355987092977     -1.13176001291401
  H   1.04142872820395      0.42990942876522     -1.95570694723391
  H   2.41405905863524      0.38649914008415     -1.00184969293198
  N   -1.23484182760648      0.36237839993081     -1.50490081257173
  H   -1.49863620874502      1.30947354279083     -1.25935693318640
  H   -2.04233506662709     -0.11600027250976     -1.88149219038163
  N   -1.66407869730633     -0.27115601275300      0.84028403051215
  O   -1.48658114492675     -1.13553443869279      1.69586155977286
  O   -2.53394268200852      0.59327556254346      0.85801891022648
