17
Coordinates from ORCA-job run
  C   0.71488523751417      0.09313263002209     -0.05554574698078
  C   -0.77011487516798      0.09109470347422     -0.44099237883429
  Br  1.72586852188878     -0.28206082997140     -1.78137854017736
  H   -0.95702655191417      0.84889967731988     -1.20186237528447
  C   1.13425957049575      1.48605855065720      0.37921909985411
  H   2.20648462378595      1.50246217999162      0.58565285196260
  H   0.92895071406821      2.21609556761754     -0.40366878472528
  H   0.58162789059875      1.75251541292649      1.28063761796130
  N   0.98355474085277     -0.84962504466773      0.95941010040361
  H   0.77789041180631     -1.79847365628173      0.67423155433676
  H   1.93560849818389     -0.77727315090948      1.29287057885861
  N   -1.55955878953566      0.32046876771556      0.71733912521924
  H   -1.36843839921034     -0.37706371486108      1.42493844353426
  H   -2.54743850423682      0.36607718160324      0.50532079241500
  N   -1.14763601083412     -1.21218355797338     -1.14998819837832
  O   -1.66138791877365     -1.11719153438416     -2.25990831962624
  O   -0.97652915952184     -2.26093318227887     -0.52727582053876
