17
Coordinates from ORCA-job run
  C   0.71491832630006      0.29522288077017     -0.24283278524626
  C   -0.74594899432648     -0.08329441665580     -0.57802259656180
  Br  1.08646160317112      1.84589096985445     -1.46887658959527
  H   -0.79539601326323     -0.37064215881408     -1.63494609725228
  C   0.90737055890039      0.78067350349294      1.18003339882392
  H   0.66097325243913     -0.02607089128922      1.87504828921597
  H   1.94942495644253      1.07338377877931      1.31317447078867
  H   0.25975861328186      1.62359405035065      1.40812944172461
  N   1.65255285878007     -0.72787902078819     -0.54814562362704
  H   1.39933125093244     -1.28119712916315     -1.35577532312794
  H   1.83327536578183     -1.32447832234091      0.24753771509732
  N   -1.69237677452578      0.88710840092364     -0.13383340832922
  H   -2.60868844558413      0.70377706963966     -0.52347094255247
  H   -1.39564680361470      1.80811078539202     -0.43025706330886
  N   -1.02289987465925     -1.40365539867482      0.13121625700045
  O   -0.86265264840001     -2.41485273712891     -0.55423230941598
  O   -1.34145723165587     -1.38469136434779      1.31425316636617
