17
Coordinates from ORCA-job run
  C   0.66154712997655      0.18761709450811     -0.23845177940566
  C   -0.79411342933982     -0.19896571542131     -0.59842812014314
  Br  1.06740145023450      1.66444555982979     -1.62709605693003
  H   -0.82138916936374     -0.51393929429711     -1.64228257187956
  C   0.84450872811038      0.84274885267983      1.11360300892558
  H   0.57145594347099      0.13126473838602      1.89497427743966
  H   0.23706204213643      1.74150691487957      1.20574536253805
  H   1.88839098346625      1.13517087254366      1.24344428832789
  N   1.49458978318637     -0.92808704111492     -0.37965659264100
  H   2.46454451293541     -0.73366880014414     -0.17232559242341
  H   1.40773391930875     -1.40158722353171     -1.26958994021822
  N   -1.84228500563723      0.73951305724372     -0.35277934935948
  H   -1.74093845125591      1.54379150391398     -0.95688960845285
  H   -1.85078552146349      1.03034824577812      0.61596075222813
  N   -1.11970583047683     -1.44361958999785      0.19017941744951
  O   -1.04767892583638     -2.51731148539072     -0.39764015387856
  O   -1.41933815945218     -1.28122768986506      1.37023265842307
