17
Coordinates from ORCA-job run
  C   0.67278067318182      0.06428332136960     -0.10224593624358
  C   -0.82516687230955     -0.05181289384015     -0.43207685566756
  Br  1.66333707886727     -0.36558853880002     -1.82181254818773
  H   -1.08118009251310      0.66282784851551     -1.21377844572680
  C   1.01640383926473      1.50951018770342      0.21822564608763
  H   0.74966426103973      2.16905843412169     -0.60795846715955
  H   2.08924165359054      1.60755212042970      0.39500783881697
  H   0.48462579835253      1.81463398523360      1.12214236219056
  N   1.02619201777456     -0.77633021605907      0.97594484776761
  H   0.84361902800949     -1.75217785578507      0.77797143149697
  H   1.98829115806294     -0.64227733688695      1.25772900311715
  N   -1.67059172425230      0.09187622203646      0.70946936840243
  H   -2.08374934071345      1.00884315504203      0.77142749774274
  H   -1.17935440487592     -0.15422755473941      1.55839874888584
  N   -1.13959320278365     -1.39766515476763     -1.05891224460906
  O   -1.73429135040625     -1.39191220939426     -2.12964892461989
  O   -0.82022852028940     -2.39759351417943     -0.41888332229374
