17
Coordinates from ORCA-job run
  C   0.60873662028559      0.36480252256046      0.07382016458127
  C   -0.73844463009990     -0.29142167372334     -0.34709879772389
  Br  0.26243937254099      2.24937931079209      0.54622409853769
  H   -0.48843768459699     -1.31277435610042     -0.64553797050097
  C   1.25829787377431     -0.31728674843170      1.26270746176143
  H   2.23817389453143      0.13136739683404      1.42727205556051
  H   0.66225052798539     -0.21836655103694      2.16753967640020
  H   1.37977307030141     -1.38538570210094      1.05382495019380
  N   1.54175857508597      0.38441008903035     -1.02354301801202
  H   1.90067329198661     -0.54832829484527     -1.19659576202394
  H   1.12043892126006      0.75440001139658     -1.86646935569986
  N   -1.49700247319055      0.33038364694977     -1.37699467591745
  H   -1.55326209954944      1.33352253781514     -1.26716290867785
  H   -1.18511053290369      0.07126138159948     -2.29965295140348
  N   -1.62807706626059     -0.47025133647439      0.86155630344766
  O   -2.42184095693617      0.42738377265511      1.11652438132114
  O   -1.46336670421444     -1.50109600692002      1.51458634815573
