17
Coordinates from ORCA-job run
  C   0.65794237731596      0.18537901679820     -0.25015128575228
  C   -0.80339563973087     -0.20266194676788     -0.58469009910286
  Br  1.04516708389294      1.64940344085977     -1.65573328746478
  H   -0.84686489314491     -0.52586481866283     -1.62547936275393
  C   0.86181532320376      0.85016059745023      1.09424343021835
  H   1.90803822909963      1.14155815270305      1.20643403587571
  H   0.25748135140256      1.75078450707396      1.18876386823499
  H   0.59914051528938      0.14489958620736      1.88475378413940
  N   1.48743698037504     -0.93331874852216     -0.39447075172571
  H   2.46059211729803     -0.73716097957767     -0.20411085463597
  H   1.38755154166891     -1.41182215363738     -1.28043120225579
  N   -1.84677527746931      0.73887157399997     -0.33064236208558
  H   -1.75561915300977      1.53697886643864     -0.94443423369972
  H   -1.83894411627442      1.03943781103125      0.63512814329374
  N   -1.11803211874875     -1.44049692309893      0.21866120252981
  O   -1.05693825455174     -2.51882384448393     -0.36182882899495
  O   -1.39859606661646     -1.26832413781163      1.40198780417956
