17
Coordinates from ORCA-job run
  C   0.59608767933102      0.22957509316814      0.05564426894384
  C   -0.79680670306119     -0.30727872866388     -0.35164952991869
  Br  0.36198201822950      2.14358979401928      0.68695222891457
  H   -0.63535975591534     -1.35028793957422     -0.63091635669113
  C   1.24905841012898     -0.52954307978153      1.19372516391853
  H   1.32501765420951     -1.58478487379134      0.91982203083435
  H   2.25192268731195     -0.13346241215249      1.36858169438576
  H   0.68246956739614     -0.44449443793406      2.11759448465412
  N   1.40550407030259      0.16177011132943     -1.10899513018238
  H   2.36404904514833      0.41286041092952     -0.90120769526284
  H   1.06232219580176      0.77467724995010     -1.83758724915635
  N   -1.48553467117866      0.36560471058635     -1.39710267095296
  H   -1.17181685531713      0.07506371228642     -2.31018628681610
  H   -1.47499911401347      1.37067208905038     -1.29028855741788
  N   -1.69794007197614     -0.37379789173606      0.85994726344148
  O   -2.47870186720461      0.55159935757702      1.04155314376510
  O   -1.55925428919317     -1.35976316526308      1.58411319754046
