17
Coordinates from ORCA-job run
  C   0.67544857675405      0.09711288138110     -0.03878785000334
  C   -0.78621680774167     -0.02890056717599     -0.50096694415365
  Br  1.81333285993813     -0.10141780361846     -1.70990619772557
  H   -1.00974693317398      0.76219293511648     -1.21616454189792
  C   0.93369062172674      1.50682224802274      0.46663597827994
  H   0.31988146391807      1.69061749396283      1.35119791233357
  H   1.98421122840617      1.61778055981744      0.74220117781920
  H   0.70698149583620      2.24694907549268     -0.30113218953277
  N   0.97879561997096     -0.84908746525564      0.96401248449440
  H   1.90974012097861     -0.71794399699923      1.33691267094724
  H   0.85094628397596     -1.80133573696735      0.64519312823229
  N   -1.72267751155938     -0.04390604688792      0.57650356029512
  H   -2.17913788716010      0.84520379852002      0.70476475982006
  H   -1.28964390255872     -0.36784135887329      1.43091094194238
  N   -0.99502647601024     -1.30375363680301     -1.29730781323854
  O   -0.68574818974785     -2.35949345276962     -0.74835754959391
  O   -1.50483056355298     -1.19499892696271     -2.40570952801849
