18

C	-0.315373	-0.041259	-1.49946
C	0.0	0.0	0.0
F	-1.657797	-0.462734	-1.687695
H	1.091187	0.0	0.0
C	-0.197649	1.291363	-2.209095
H	-0.937847	2.006977	-1.848892
H	0.802054	1.695699	-2.048435
H	-0.364141	1.130045	-3.278834
N	0.541552	-1.067802	-2.020802
H	1.470172	-0.958002	-1.594714
H	0.638755	-0.9575	-3.023318
N	-0.45894	-1.138099	0.731926
H	0.300984	-1.807167	0.753408
H	-1.258732	-1.554083	0.272109
N	-0.553584	1.25094	0.596762
O	0.125666	2.275594	0.498825
O	-1.671848	1.204686	1.112974
H	2.775237	0.0	0.0
