18

C	-0.533561	-0.099261	-1.426366
C	0.0	0.0	0.0
F	-0.230825	1.130717	-2.062907
H	1.090409	0.0	0.0
C	0.217531	-1.178416	-2.168446
H	-0.016891	-2.147576	-1.73174
H	-0.068413	-1.162325	-3.225932
H	1.28911	-0.988048	-2.067238
N	-1.947097	-0.312759	-1.44938
H	-2.257109	-0.366715	-2.41278
H	-2.416964	0.46257	-0.995561
N	-0.425303	-1.116687	0.772857
H	-1.39984	-1.046166	1.027026
H	0.16357	-1.193122	1.591999
N	-0.491658	1.325034	0.565444
O	0.239706	2.305258	0.503402
O	-1.636559	1.336783	1.051856
H	2.862371	0.0	0.0
