18

C	-0.555956	0.010917	-1.425776
C	0.0	0.0	0.0
F	-0.346595	1.240018	-2.041107
H	1.09172	0.0	0.0
C	0.208926	-1.014018	-2.246577
H	0.018002	-2.015533	-1.85705
H	1.280457	-0.806194	-2.178818
H	-0.121382	-0.953753	-3.289109
N	-1.991941	-0.170161	-1.37143
H	-2.33281	-0.337963	-2.313716
H	-2.156742	-1.011937	-0.829042
N	-0.41687	-1.219093	0.663152
H	-1.107191	-0.976227	1.363988
H	0.404491	-1.574092	1.143002
N	-0.450584	1.213286	0.75008
O	-1.218416	1.070241	1.713222
O	-0.003624	2.295223	0.383247
H	2.743365	0.0	0.0
