18

C	-0.316184	-0.085952	-1.498324
C	0.0	0.0	0.0
F	-1.669605	-0.455544	-1.651253
H	1.090076	0.0	0.0
C	-0.084415	1.194507	-2.259893
H	-0.790866	1.964051	-1.95038
H	0.928924	1.550929	-2.068746
H	-0.214321	0.980346	-3.321539
N	0.469269	-1.144901	-2.091355
H	0.284243	-1.989585	-1.556019
H	1.446599	-0.910842	-1.884486
N	-0.442879	-1.116016	0.768678
H	0.322949	-1.762221	0.903922
H	-1.263304	-1.563254	0.386262
N	-0.552619	1.26454	0.580761
O	0.095717	2.297798	0.401003
O	-1.635062	1.218307	1.165625
H	2.772414	0.0	0.0
