18

C	-0.423864	-0.012709	-1.468715
C	0.0	0.0	0.0
F	-1.8353	-0.090087	-1.497188
H	1.090961	0.0	0.0
C	0.000714	1.193698	-2.271083
H	-0.549136	2.079811	-1.962312
H	1.067653	1.372672	-2.118832
H	-0.20541	0.980968	-3.322247
N	0.076063	-1.209206	-2.092691
H	-0.033078	-1.949911	-1.4047
H	1.081155	-1.078357	-2.204184
N	-0.445215	-1.18722	0.663583
H	0.177294	-1.363845	1.440611
H	-1.382148	-1.065511	1.018268
N	-0.451629	1.244483	0.70047
O	0.040389	2.312823	0.33586
O	-1.25826	1.141805	1.634003
H	2.718727	0.0	0.0
