12
Coordinates from ORCA-job run
  C   0.75142353356435     -0.47532780488608      0.30103648750019
  C   -0.39098598449853     -0.54425748990047     -0.68482845753070
  Cl  0.33316413766673     -1.17197668865389      1.84993244509102
  H   -0.11254323918058     -0.04254862588720     -1.61202810070611
  H   1.60148998097541     -1.02338892341344     -0.10852744000598
  H   -0.67166354904753     -1.57780483316578     -0.87652007213818
  N   1.26969825842579      0.95695997549706      0.42854262383099
  O   1.54363061991309      1.46014989379626     -0.65527556165669
  O   1.41647585697340      1.45038755545383      1.53026667748498
  N   -1.61348896966404      0.14499374500771     -0.17161627810503
  O   -2.69172089531856     -0.37053655007128     -0.44346194882181
  O   -1.43647974980953      1.19234974622327      0.44247962505734
