12
Coordinates from ORCA-job run
  C   0.71663977839808     -0.55095037848239      0.24973252899555
  C   -0.33327808714440     -0.36675668921346     -0.82076862646353
  Cl  0.15239804206117     -1.55483165072706      1.56613604746178
  H   0.03008760270816      0.32453750408702     -1.58175659375178
  H   1.59415894485025     -1.02276512627816     -0.19505248542400
  H   -0.60325426370266     -1.32232274380895     -1.26529711540935
  N   1.23693018053146      0.80293876765866      0.73331133460212
  O   1.27970057013430      1.04317941460576      1.92463810162674
  O   1.62274407218011      1.51750324619626     -0.18494937545032
  N   -1.59100883206475      0.22158723511302     -0.26862860923416
  O   -2.64716951819625     -0.21589001794286     -0.71089385618811
  O   -1.45894848975547      1.12277043879215      0.55352864923506
