12
Coordinates from ORCA-job run
  C   0.55751199656951     -0.30654226059151      0.37972838512136
  C   -0.57171578840478      0.35861464125065     -0.37247228949534
  Cl  0.04447614384822     -0.81680560023430      1.98411300232348
  H   -0.21087547846878      0.74731873516147     -1.32792886113663
  H   0.95874561940123     -1.16536623385256     -0.15068029372163
  H   -1.03915037791870      1.14429800997781      0.21381487187542
  N   1.68531280246731      0.68365721280268      0.51208429361856
  O   1.38403990247150      1.81985883792323      0.86243499026565
  O   2.80921049828873      0.26506978772941      0.25515990309354
  N   -1.61583248933644     -0.66067082338212     -0.69603965091851
  O   -2.78283334773817     -0.34747359791903     -0.48947294771039
  O   -1.21788948117963     -1.72095870886573     -1.17074140331550
