12
Coordinates from ORCA-job run
  C   0.84508934645987     -0.36467043734217     -0.08176398758384
  C   -0.61860726356483     -0.71608193938055     -0.11073016664911
  Cl  1.76080268410154     -1.72342965103925      0.57524046490533
  H   -1.00638316062682     -0.90647983977457      0.88701742767743
  H   1.25030702629318     -0.10405550465871     -1.05503301263046
  H   -0.79164776440238     -1.58483233920320     -0.74749768804213
  N   1.08540171293363      0.84072754764595      0.79739440685319
  O   2.07548322228407      1.50697076795514      0.52805371451944
  O   0.29015846249462      1.03239940453917      1.71059012669340
  N   -1.42806410614070      0.40443638444158     -0.68566479060405
  O   -0.82126189076963      1.30769631097143     -1.25718189631115
  O   -2.64127826906254      0.30831929584519     -0.56042459882806
