12
Coordinates from ORCA-job run
  C   0.85261697125647     -0.31766089457160     -0.15927846510979
  C   -0.60095411774963     -0.70474609703586     -0.22390479053851
  Cl  1.82052634563094     -1.74149662340275      0.23156564674202
  H   -0.76363688450750     -1.45394285238795     -1.00002907531827
  H   1.22780403557633      0.12204975099832     -1.07866424593878
  H   -0.96072058856937     -1.07890753285204      0.73144604902778
  N   1.07953884253439      0.72121723151335      0.91380746524402
  O   2.04392470836111      1.45572047448541      0.74848945005268
  O   0.30105412929966      0.72412213705769      1.86096550065591
  N   -1.45444145820029      0.47276180913406     -0.57926696166567
  O   -0.88621597589042      1.48206859483127     -0.99056695541636
  O   -2.66149600774169      0.31681400223011     -0.45456361773503
