12
Coordinates from ORCA-job run
  C   0.82529189240087     -0.40941854220404      0.06123914888886
  C   -0.65309404113624     -0.69254181490500      0.03529156907899
  Cl  1.63104253007697     -1.59999044407503      1.08636739819285
  H   -0.84587517075298     -1.68547899894480     -0.37336686147068
  H   1.28803652935149     -0.42043537146991     -0.92122429433316
  H   -1.09778899047722     -0.60766682773100      1.02385857216653
  N   1.09516274547661      0.96546048806089      0.62629572070684
  O   0.26879085666531      1.41862206517192      1.41044557312157
  O   2.13697153176033      1.49453025059553      0.26365023638949
  N   -1.37043522637584      0.28085389660598     -0.84780206792338
  O   -2.59194985651485      0.26618735035219     -0.78033660890738
  O   -0.68715280047444      0.98987794854327     -1.58341838591053
