12
Coordinates from ORCA-job run
  C   0.75733164849660     -0.46103834398474      0.30472238067856
  C   -0.38525590710952     -0.55618669582296     -0.67934954843841
  Cl  0.34761742352310     -1.13886943560644      1.86393656865262
  H   -0.65015851380429     -1.59540775209010     -0.86245932036545
  H   1.61323824504680     -1.00540930904458     -0.09733800004330
  H   -0.11543191436751     -0.05584938947698     -1.60985645973403
  N   1.25894773977637      0.97884559970729      0.41094272457553
  O   1.38989019604212      1.49428427831688      1.50461416124087
  O   1.53737912543546      1.46518319457877     -0.67936257393180
  N   -1.61597807364766      0.11813920300233     -0.16693753716535
  O   -2.68602805896907     -0.43389752610014     -0.39639995284855
  O   -1.45355191042240      1.19020617652067      0.40748755737931
