17

C	0.0	0.0	0.0
C	-0.259997	-0.050615	-1.523742
F	1.407439	0.0	0.0
H	0.441206	0.711236	-1.913883
H	-0.307098	0.978987	0.382064
C	-0.643568	-1.08926	0.802628
H	-0.352744	-1.017808	1.856322
H	-1.729399	-0.900019	0.691445
H	-0.385014	-2.073448	0.41102
C	-1.650473	0.289807	-2.028333
H	-2.459706	-0.154466	-1.421448
H	-1.70806	0.033124	-3.095285
H	-1.814408	1.368409	-1.937769
N	0.13831	-1.39247	-1.990525
H	0.037914	-1.414335	-2.999096
H	1.124148	-1.513805	-1.783452
F	-3.382522	0.0	0.0
