17

C	0.0	0.0	0.0
C	-0.522347	-0.142705	-1.412837
F	1.407421	0.0	0.0
H	-1.606034	0.010647	-1.257257
H	-0.306053	0.992539	0.337948
C	-0.530243	-1.036591	0.955826
H	-0.166347	-2.037183	0.702703
H	-0.213949	-0.802925	1.977712
H	-1.626723	-0.946442	0.8496
C	-0.25684	-1.527407	-2.003443
H	-0.555542	-1.547924	-3.057606
H	0.808415	-1.78495	-1.946297
H	-0.83501	-2.294568	-1.482614
N	0.048663	0.949313	-2.21715
H	-0.369973	0.922035	-3.140693
H	1.042418	0.771238	-2.333559
F	-2.977404	0.0	0.0
