17

C	0.0	0.0	0.0
C	-0.505301	-0.009119	-1.434656
F	1.405289	0.0	0.0
H	-1.598875	0.031014	-1.298737
H	-0.307247	0.951557	0.445078
C	-0.521764	-1.131379	0.847456
H	-0.204428	-1.00492	1.888128
H	-1.618437	-1.043075	0.752493
H	-0.146602	-2.093879	0.488523
C	-0.086294	-1.261108	-2.192638
H	-0.562047	-2.15169	-1.776257
H	-0.389113	-1.160731	-3.237342
H	1.000909	-1.400122	-2.161375
N	-0.046315	1.177737	-2.181602
H	0.932468	1.322638	-1.951656
H	-0.548485	1.977909	-1.811628
F	-2.956669	0.0	0.0
