13
Coordinates from ORCA-job run
  C   -0.69917131676024     -0.24147791443318     -0.26812969452826
  C   0.55116881508056      0.44628279396593     -0.77845524631106
  Br  -2.08486441000081     -0.00781608977811     -1.61219112837261
  H   0.88478791519233     -0.00200155330881     -1.71396900257819
  H   0.36951636264070      1.51146552002702     -0.91555969722546
  N   -1.21506680763153      0.45523446045280      1.00448852583313
  O   -1.03459731329275      1.66164023229758      1.05175189769709
  O   -1.79417973089393     -0.25007014865255      1.81255494978812
  C   -0.51335186064623     -1.65852790093972     -0.01200607763206
  N   -0.33876971438848     -2.81350680641715      0.12215235545447
  N   1.68135006420424      0.32078541268746      0.19921397380456
  O   1.41620413963412     -0.10344653798369      1.32119998243728
  O   2.77597385686204      0.68043853208242     -0.21105083836702
