13
Coordinates from ORCA-job run
  C   -0.61052165720965     -0.13511229530966     -0.14585661911097
  C   0.70598895846715      0.51615968817140      0.24990371758467
  Br  -1.34637169260455      0.67756874799840     -1.74204537637876
  H   0.57612308144054      1.58667177013559      0.38463354202950
  H   1.07769114300119      0.07511763206084      1.17901723076376
  N   -1.62590952452133      0.17051628674916      0.98941764288009
  O   -1.48807810583446      1.24839298811738      1.55014319000267
  O   -2.48606169875604     -0.66972912421788      1.19278547759214
  C   -0.53149244165923     -1.57779962086884     -0.29014950396468
  N   -0.46701443656805     -2.75064750932182     -0.35031064915577
  N   1.78920343216121      0.32958717513146     -0.76896947924545
  O   2.74966155473622      1.07742636742857     -0.63198259773097
  O   1.65778138734699     -0.54815210607460     -1.61458657526623
