17

C	-0.470719	0.006208	-1.440555
C	0.0	0.0	0.0
F	-1.787252	0.338938	-1.545826
H	1.092029	0.0	0.0
N	0.318056	1.019337	-2.305242
O	1.515217	0.797898	-2.367169
O	-0.313396	1.919743	-2.833344
C	-0.251004	-1.298244	-2.07865
N	-0.089007	-2.353837	-2.570985
C	-0.588946	-1.137935	0.796716
H	-0.195165	-2.087838	0.42739
H	-1.679829	-1.149971	0.745681
H	-0.299761	-1.036528	1.843689
N	-0.423306	1.325497	0.544264
O	0.136076	2.308828	0.050694
O	-1.196423	1.357077	1.50614
Br	2.743087	0.0	0.0
