19

C	-0.457805	0.031085	-1.458169
C	0.0	0.0	0.0
F	-1.872613	-0.048506	-1.46214
H	1.091505	0.0	0.0
C	-0.065879	1.29352	-2.195854
H	1.007928	1.461529	-2.092276
H	-0.593972	2.161806	-1.803028
H	-0.319627	1.178654	-3.252674
C	0.084079	-1.204302	-2.147934
H	-0.277411	-2.098359	-1.642882
H	1.176168	-1.192619	-2.101064
H	-0.239782	-1.21004	-3.191937
N	-0.491671	-1.152541	0.676524
H	0.03406	-1.289706	1.529275
H	-1.470128	-1.028307	0.901109
N	-0.445942	1.289089	0.688168
O	0.202217	2.308448	0.472134
O	-1.444816	1.235498	1.410117
Br	3.505341	0.0	0.0
