19

C	-0.463588	-0.027991	-1.467189
C	0.0	0.0	0.0
F	-1.850774	-0.307809	-1.484376
H	1.090592	0.0	0.0
C	-0.256053	1.294312	-2.171653
H	-0.518989	1.193356	-3.227331
H	0.787831	1.599664	-2.07857
H	-0.887695	2.067133	-1.731551
C	0.228576	-1.166592	-2.184948
H	-0.121204	-1.208834	-3.22077
H	-0.008576	-2.116088	-1.701279
H	1.311311	-1.018793	-2.160123
N	-0.471634	-1.078497	0.808964
H	-1.340671	-1.459562	0.465397
H	0.241445	-1.786948	0.897346
N	-0.507947	1.293392	0.588965
O	-1.670173	1.299771	0.993472
O	0.233875	2.272953	0.555714
Br	3.529052	0.0	0.0
