19

C	-0.459272	-0.084119	-1.467698
C	0.0	0.0	0.0
F	-0.142435	1.150852	-2.056371
H	1.091141	0.0	0.0
C	0.37046	-1.142967	-2.168992
H	1.432268	-0.942252	-2.007231
H	0.151822	-1.124968	-3.239767
H	0.136432	-2.137205	-1.781346
C	-1.951725	-0.270483	-1.675914
H	-2.30115	-1.227423	-1.281593
H	-2.152103	-0.256595	-2.750091
H	-2.511614	0.532661	-1.198309
N	-0.414353	-1.073395	0.852428
H	-1.287302	-1.50228	0.589707
H	0.326879	-1.753228	0.932329
N	-0.516937	1.293991	0.5697
O	-1.698453	1.296357	0.926853
O	0.235232	2.258773	0.617605
Br	3.557854	0.0	0.0
