19

C	-0.497495	-0.000442	-1.447247
C	0.0	0.0	0.0
F	-1.899599	-0.193253	-1.416776
H	1.091488	0.0	0.0
C	-0.23905	1.299926	-2.177184
H	-0.525093	1.182269	-3.225404
H	-0.830608	2.109454	-1.748052
H	0.818201	1.562671	-2.110963
C	0.116827	-1.183789	-2.165331
H	1.202797	-1.068369	-2.194166
H	-0.280359	-1.236922	-3.183017
H	-0.122033	-2.101595	-1.63028
N	-0.502288	-1.12761	0.709718
H	-1.489296	-1.003737	0.897736
H	0.002901	-1.232148	1.579741
N	-0.434931	1.311076	0.656495
O	0.28137	2.29805	0.507654
O	-1.511931	1.310021	1.261413
Br	3.507528	0.0	0.0
