18

C	0.0	0.0	0.0
C	-0.626264	-0.089171	-1.388709
F	1.39662	0.0	0.0
H	-1.720807	0.069931	-1.168089
C	-0.469932	1.200388	0.789711
H	-0.128755	1.087342	1.824328
H	-1.566833	1.195618	0.758119
H	-0.066593	2.127376	0.386103
N	-0.432966	-1.187498	0.655359
H	-0.087733	-1.202735	1.605027
H	-0.121345	-1.992355	0.12855
N	-0.401756	-1.36359	-2.011213
H	-1.253997	-1.648881	-2.476966
H	0.340829	-1.281733	-2.69316
N	-0.129481	1.03805	-2.258593
O	-0.454927	2.183737	-1.95421
O	0.577724	0.764031	-3.236431
H	-3.325132	0.0	0.0
