13
Coordinates from ORCA-job run
  C   -0.59779848577126      0.15700231183103     -0.16064591207903
  C   0.63872891207305     -0.53997713519010      0.38646893784235
  H   -1.03775259628504     -0.44035118469706     -0.96353069077306
  H   1.14175222576043      0.04825366032893      1.15172541312074
  H   0.37880960316467     -1.52434583920371      0.77361185910675
  C   -0.29679652644679      1.49656148415177     -0.64962416306135
  N   0.00758381267263      2.55762833613788     -1.05015800714290
  N   -1.66857941162278      0.23067042074438      0.92057852598031
  O   -1.69033164865861     -0.69899462475326      1.71859617368854
  O   -2.44891454664915      1.16945533374230      0.86360010938523
  N   1.61809227940431     -0.75155481470164     -0.72596819073544
  O   2.80481085519161     -0.64345999151038     -0.44328900460723
  O   1.15239552716694     -1.05988795688015     -1.82036505072491
