13
Coordinates from ORCA-job run
  C   -0.54215646646029      0.28735415872990     -0.38079050236333
  C   0.93641720102733     -0.00313040800513     -0.25785231849099
  H   -1.04366482332319     -0.43647491660858     -1.02430194834270
  H   1.41212932023516      0.60748421915731      0.50607695892897
  H   1.44076307047868      0.14402369885930     -1.21492580946833
  C   -0.76398302032641      1.64468310123812     -0.86769779183765
  N   -0.90589589807176      2.73890913161274     -1.26984775533151
  N   -1.23643565645875      0.15011979226787      0.96805985276632
  O   -2.45450085552898      0.06516769482576      0.92031801689363
  O   -0.52863479357821      0.15453117623039      1.96670943920669
  N   1.16476048803293     -1.43327405196511      0.13049423277868
  O   0.21634933742094     -2.20824288288144      0.04303342705082
  O   2.30385209655257     -1.71115071346113      0.47972419820940
