13
Coordinates from ORCA-job run
  C   -0.53724816685663      0.54028845965001     -0.32262378195435
  C   0.35808091557846     -0.57790334618619     -0.81416802751546
  H   -1.22717733831856      0.80598550049745     -1.13191047985186
  H   -0.22998233890708     -1.46414366794271     -1.05015838934800
  H   0.93042666850960     -0.26867168350886     -1.68864412101952
  C   0.20108987494530      1.72839762321080      0.08632541581149
  N   0.81196379485508      2.70144577551802      0.32769206987307
  N   -1.45243633722471      0.05890389816071      0.79727421182883
  O   -1.88932423907037     -1.07577505696506      0.66012461582956
  O   -1.72472773537872      0.85568124521298      1.67993131863386
  N   1.34888306341715     -0.98983131319843      0.23039096000985
  O   1.12386603225159     -0.64364091381141      1.38684753788307
  O   2.28658580619888     -1.67173652063731     -0.16208133018055
