17

C	-0.366424	-0.064562	-1.465366
C	0.0	0.0	0.0
Cl	-2.15913	-0.160963	-1.716065
H	1.096988	0.0	0.0
H	-0.36565	0.936628	0.420027
N	0.008043	1.271867	-2.126266
O	0.4777	1.234173	-3.258732
O	-0.232533	2.293786	-1.494611
C	0.308498	-1.193904	-2.201539
H	1.386883	-1.104401	-2.044336
H	-0.036261	-2.140834	-1.7868
H	0.079546	-1.16482	-3.264708
C	-0.479022	-1.192495	0.818703
H	-1.5666	-1.299802	0.80509
H	-0.15957	-1.052532	1.853589
H	-0.026923	-2.124078	0.472814
Cl	3.458091	0.0	0.0
