17

C	-0.530849	0.086831	-1.423074
C	0.0	0.0	0.0
Cl	0.21036	1.440079	-2.294105
H	1.091253	0.0	0.0
H	-0.340438	-0.957867	0.404287
N	-0.15979	-1.222724	-2.136825
O	0.614766	-1.221291	-3.0784
O	-0.729271	-2.213806	-1.680671
C	-2.042794	0.20706	-1.528568
H	-2.51781	-0.585224	-0.949336
H	-2.356269	0.13044	-2.572212
H	-2.355821	1.17804	-1.146608
C	-0.478984	1.143286	0.889039
H	-1.557039	1.11955	1.074521
H	-0.216104	2.110516	0.456385
H	0.033101	1.07129	1.850727
Cl	3.500747	0.0	0.0
