17

C	0.074532	0.020214	0.010474
C	-0.577615	0.165956	-1.385667
Cl	1.746417	-0.674114	-0.189932
H	0.186969	0.605273	-2.038006
C	0.276945	1.343598	0.608892
N	0.506222	2.362829	1.1469
C	-0.72913	-0.888257	0.929856
H	-1.798406	-0.681519	0.808676
H	-0.580121	-1.914297	0.594409
H	-0.395153	-0.785518	1.964345
N	-1.67482	1.115021	-1.228238
H	-1.901164	1.479902	-2.147343
H	-2.481697	0.532438	-0.921321
N	-0.924928	-1.16411	-1.866632
H	-1.862507	-1.339491	-1.455792
H	-1.051811	-1.101191	-2.871303
F	-3.274781	-0.895421	-0.531699
