17

C	0.073853	0.017094	0.012811
C	-0.578598	0.110239	-1.387637
Cl	1.74419	-0.688084	-0.160556
H	0.186679	0.521467	-2.057224
C	0.279483	1.362418	0.558778
N	0.514792	2.403905	1.049464
C	-0.73096	-0.853742	0.967285
H	-1.800685	-0.654126	0.837533
H	-0.580472	-1.892495	0.673988
H	-0.397786	-0.709811	1.997097
N	-1.673039	1.067477	-1.267186
H	-2.480064	0.499772	-0.933357
H	-1.902285	1.391932	-2.200674
N	-0.929545	-1.237189	-1.815834
H	-1.865375	-1.39452	-1.393876
H	-1.062609	-1.211316	-2.821386
F	-3.280066	-0.907703	-0.4947
