17

C	0.075115	0.018818	0.010958
C	-0.579365	0.070446	-1.390868
Cl	1.745327	-0.68982	-0.1441
H	0.185052	0.462743	-2.07273
C	0.279149	1.379549	0.518171
N	0.511394	2.430986	0.988717
C	-0.727676	-0.823923	0.991872
H	-1.797407	-0.625903	0.860684
H	-0.579988	-1.87072	0.727345
H	-0.390919	-0.651217	2.016142
N	-1.67406	1.030231	-1.296999
H	-2.480539	0.472391	-0.945953
H	-1.903767	1.328244	-2.239106
N	-0.929529	-1.288806	-1.779248
H	-1.055205	-1.296154	-2.785972
H	-1.867493	-1.433757	-1.357658
F	-3.277015	-0.923327	-0.463434
