17

C	0.075513	0.017071	0.011791
C	-0.577733	0.156812	-1.384398
Cl	1.746926	-0.678841	-0.185907
H	0.186394	0.592419	-2.039741
C	0.278777	1.343361	0.603232
N	0.512642	2.368327	1.128193
C	-0.727525	-0.887157	0.936311
H	-0.394349	-0.778112	1.970395
H	-0.575347	-1.91509	0.607838
H	-1.797595	-0.684984	0.81408
N	-1.674239	1.10687	-1.23063
H	-2.480231	0.526003	-0.917439
H	-1.90368	1.464113	-2.152
N	-0.925875	-1.175905	-1.858467
H	-1.061594	-1.115001	-2.862161
H	-1.860452	-1.350331	-1.440263
F	-3.277446	-0.89679	-0.528024
