15

C	-0.449197	0.095217	-1.501735
C	0.137827	0.123795	-0.104324
Br	-2.369217	0.251184	-1.495832
H	1.228186	0.192625	-0.193658
H	-0.211667	1.044547	0.377715
N	0.050906	1.214487	-2.409968
O	-0.013154	1.025583	-3.619536
O	0.447551	2.231624	-1.854137
N	-0.002471	-1.186049	-2.195685
O	-0.819626	-2.032123	-2.509137
O	1.209612	-1.225665	-2.36594
N	-0.172689	-1.121106	0.5483
H	-0.961635	-0.99042	1.172177
H	0.696179	-1.295582	1.163363
H	2.013276	-1.148384	1.852922
