15

C	-0.468441	-0.157896	-1.493554
C	0.121788	-0.130693	-0.097362
Br	-2.390837	-0.280038	-1.476628
H	1.212879	-0.222873	-0.185789
H	-0.242164	-1.021763	0.427711
N	-0.001596	1.08106	-2.248332
O	-0.805265	1.92441	-2.601723
O	1.210713	1.092617	-2.421061
N	0.009515	-1.327808	-2.348303
O	0.383873	-2.326238	-1.745077
O	-0.048888	-1.193851	-3.565456
N	-0.165576	1.148388	0.496633
H	0.711837	1.341275	1.094023
H	-0.9494	1.059167	1.133904
H	2.029351	1.209034	1.782931
