12
Coordinates from ORCA-job run
  C   0.58058584034144      0.41142751074829      0.35180408403456
  C   -0.76606536623754      0.30381484505101      0.28153589492145
  H   -1.36299901150987      1.01304767539395      0.84361085628016
  C   1.17384804698556      1.43810952882018      1.16195938670613
  N   1.67667391139254      2.28159302780460      1.80924058117426
  N   1.48266538503422     -0.47750603721064     -0.24268120633796
  H   1.10763691462212     -0.94791899102643     -1.05324779608653
  H   2.38762011615410     -0.07473759797483     -0.43386279825000
  C   -1.43700656306562     -0.77188446333069     -0.51898678191313
  H   -2.51769379378258     -0.74909905871034     -0.38162165699448
  H   -1.24316181062898     -0.66213890460606     -1.59318422068090
  H   -1.08310366930538     -1.76570753495905     -0.22356634285357
