12
Coordinates from ORCA-job run
  C   0.61378512234376      0.45958844939366      0.17187776031224
  C   -0.72477129935638      0.33034040376926      0.32708273480518
  H   -1.23061696741082      1.05513288112424      0.95395184740982
  C   1.27826983523018      1.57114624289226      0.79563549794129
  N   1.82532769562531      2.47281070757376      1.31555672992135
  N   1.41399477772176     -0.36281644584453     -0.62684236472380
  H   2.39879644188776     -0.30167093613965     -0.41808150372927
  H   1.10307396322984     -1.32050484772645     -0.67328907434802
  C   -1.51340868344299     -0.76210846961413     -0.33615683970562
  H   -1.51159386897763     -1.67673123897927      0.26790029465489
  H   -1.09877245280627     -1.00390973915734     -1.31731695365745
  H   -2.55408456404452     -0.46227700729180     -0.46031812888063
