12
Coordinates from ORCA-job run
  C   0.62964308219760      0.48307699963127      0.01701712885104
  C   -0.69126012581535      0.43562853094052      0.30378009652922
  H   -1.14645706232919      1.30878288446991      0.75732105491471
  C   1.38248699746468      1.67275664290110      0.29978768230026
  N   2.02102547140667      2.63173603433946      0.53590391795303
  N   1.33688187001229     -0.52836544082696     -0.64286026343377
  H   0.93453548663966     -1.44562722217393     -0.51564806316502
  H   2.32608092599504     -0.52899729809215     -0.44510670299243
  C   -1.53032793898911     -0.76565884239525     -0.01299584535390
  H   -1.42809127637723     -1.05557330757724     -1.06446927112547
  H   -2.58544799895475     -0.56839918504036      0.17415914238685
  H   -1.25006943125032     -1.63635979617637      0.59311112313549
