12
Coordinates from ORCA-job run
  C   0.74491787461425      0.04967553314547     -0.04985216728262
  C   -0.40902601295188     -0.65270181311888     -0.00148312844531
  H   -0.32832937771788     -1.73950550147464      0.01026673680085
  C   0.71352024983844      1.48824537013669     -0.06102530114388
  N   0.70008075785111      2.66418261733111     -0.04424037854853
  N   2.02988335447227     -0.49585651536084     -0.19617863125587
  H   2.05258821779106     -1.48854711208101     -0.00977721711429
  H   2.73390286644525     -0.01037892244026      0.34134609341254
  C   -1.78457340788002     -0.06390855008292      0.00216131557767
  H   -1.75834023015518      1.02691904721564      0.01851435734376
  H   -2.35033358627835     -0.40341112743560      0.87462409985629
  H   -2.34429070602907     -0.37471302583478     -0.88535577920060
