12
Coordinates from ORCA-job run
  C   0.68089672464587      0.40219824765655     -0.07121940361182
  C   -0.61519586058892      0.41117882566324     -0.45847704769550
  H   -0.96196342958424      1.24661405813877     -1.05606709256392
  C   1.55116113754776      1.47545165804163     -0.46263465362549
  N   2.27453235513239      2.35307854984963     -0.76229247337784
  N   1.29666350557034     -0.64335003150804      0.62550071909683
  H   2.10094625964564     -0.35797295032081      1.16343985635677
  H   0.65406212325861     -1.18887053066979      1.18092579809816
  C   -1.55719137539910     -0.70175695275921     -0.10934450383819
  H   -2.52625545966180     -0.56166366291205     -0.58750784771067
  H   -1.73389381324835     -0.76339823780296      0.97165424806034
  H   -1.16276216731820     -1.67150897337697     -0.43197759918867
