12
Coordinates from ORCA-job run
  C   0.64305031301096      0.46364949684719      0.04461827244803
  C   -0.65158981717249      0.46099428940719     -0.34756273991711
  H   -1.04277738398037      1.35623939151663     -0.81748052594259
  C   1.44910079759852      1.63462652445547     -0.15919016700283
  N   2.12763509977020      2.57982451314186     -0.33089180167604
  N   1.26662618375126     -0.57809640809074      0.74008373929662
  H   2.26761563366609     -0.60880416742930      0.61856675303448
  H   0.84540772312580     -1.48031112293269      0.57392895564574
  C   -1.54739345838376     -0.72053259163873     -0.12529405916636
  H   -2.57220642235087     -0.49868215139521     -0.42175922308780
  H   -1.56138435860073     -1.01509985243689      0.92975303527202
  H   -1.22308431043461     -1.59380792144479     -0.70477223890418
