12
Coordinates from ORCA-job run
  C   0.74519923856686      0.06263205464353      0.01366427958276
  C   -0.39699409933085     -0.58698939494374     -0.30326435946794
  H   -0.29703862686207     -1.57413297071554     -0.75467586559528
  C   0.68878935721438      1.36634916885248      0.62033935066294
  N   0.65377095531971      2.42043001132345      1.14081826370876
  N   2.04573738019579     -0.37273213869249     -0.28564714390030
  H   2.07789969392621     -1.34937106058048     -0.54196756187986
  H   2.71266190470674     -0.16761029827928      0.44473153819722
  C   -1.78113752757555     -0.05059902486577     -0.11746079130761
  H   -2.28931819592917      0.06017363966585     -1.08031775771296
  H   -2.38469996728548     -0.73306123099777      0.48805055906325
  H   -1.77487011294657      0.92391124458977      0.37372948864903
