12
Coordinates from ORCA-job run
  C   0.74538398794189      0.05881419471951      0.03154857360346
  C   -0.40487277753108     -0.64803221067159      0.09695846564986
  H   -0.31891885784893     -1.72556348596265      0.23703928176097
  C   0.70496044213359      1.48475267057415     -0.15844282433850
  N   0.68350822769330      2.64671418623815     -0.33911589558082
  N   2.03552861038822     -0.45466786259393      0.23500303227788
  H   2.72896104522317     -0.04728761558651     -0.37606143225873
  H   2.06279704371161     -1.46359991297900      0.19265077962077
  C   -1.78374224798711     -0.07033012434439      0.03132214068437
  H   -2.35984316756766     -0.53187391853520     -0.77599377069939
  H   -2.32887921257315     -0.25615673853122      0.96191751872962
  H   -1.76388309358385      1.00723081767268     -0.13882586944948
