12
Coordinates from ORCA-job run
  C   0.74174928802137      0.02611447511183      0.09569802729849
  C   -0.39668021020032     -0.59732519464373     -0.28178445227635
  H   -0.29633322391996     -1.58302897458632     -0.73593135586966
  C   0.68361060503989      1.33344712847967      0.69426243754710
  N   0.64934302858447      2.41294448636736      1.15991228027008
  N   2.03109705294412     -0.52740126025271      0.05492266707665
  H   2.07823754608263     -1.35576325992957     -0.52153844596620
  H   2.74293008306862      0.13843283021176     -0.21009160596154
  C   -1.78189718308059     -0.06186348154822     -0.09800347684357
  H   -2.31053277908701     -0.01709443026549     -1.05456888091607
  H   -2.36651843997031     -0.70905752227338      0.56296091285123
  H   -1.77500576748290      0.94059520332879      0.33316189278984
