12
Coordinates from ORCA-job run
  C   0.61534574486681      0.50162336329472      0.02096872705473
  C   -0.62526138677412      0.34774739066054     -0.49587432816860
  H   -0.99568998987744      1.11464275897836     -1.16663991270459
  C   1.39231449378921      1.66063675781173     -0.31908450639813
  N   2.04768519998458      2.59675715921734     -0.59714738616377
  N   1.19611711863878     -0.35207310574176      0.96512873516614
  H   0.83107964935687     -1.29270520064865      0.93380085063173
  H   2.20487368211117     -0.34583196304826      0.95630022975058
  C   -1.49339788150631     -0.82322384290550     -0.14461759971185
  H   -2.48329104068313     -0.72680296796591     -0.58991503403837
  H   -1.62155078626843     -0.91181419086544      0.93979112858480
  H   -1.06722480363797     -1.76895615878718     -0.50171090400266
