12
Coordinates from ORCA-job run
  C   0.74177547876909      0.03496794632367      0.08985954792468
  C   -0.39000559649305     -0.59417594144666     -0.29763380391703
  H   -0.27819764288565     -1.56494543442530     -0.78033502497077
  C   0.66856995227327      1.32308259502570      0.72706652040372
  N   0.62133094639065      2.38761342692006      1.22481532389775
  N   2.03837300712501     -0.49839352634608      0.02486256159912
  H   2.73983005233603      0.18470228157309     -0.22325637543915
  H   2.09406546560998     -1.30962123391977     -0.57467827602001
  C   -1.78134136922986     -0.08567342679170     -0.08720149492941
  H   -2.35013715478424     -0.76231970831492      0.55796026268811
  H   -1.78591514241223      0.90302832756144      0.37473943960436
  H   -2.31934799669899     -0.01926530615952     -1.03719868084136
