12
Coordinates from ORCA-job run
  C   0.74121669547293      0.05699950018305     -0.08059670193714
  C   -0.40054487286429     -0.65763552045795      0.03243034725340
  H   -0.30572659682170     -1.74277619873683      0.06828690458837
  C   0.69127684030565      1.49451720133898     -0.12579653910852
  N   0.66660819665296      2.67020589913333     -0.13791827647556
  N   2.02640974199884     -0.47592961891997     -0.26550485312594
  H   2.07048984947210     -1.46337390566973     -0.05663096122846
  H   2.74472684401572      0.03202161512119      0.23090497051194
  C   -1.78242748120180     -0.08519092601666      0.07527262386715
  H   -2.30923079052959     -0.40830632018717      0.97780730811914
  H   -2.37200650698296     -0.42649023385601     -0.78123054123956
  H   -1.76979191951786      1.00595850806778      0.06197571877515
