12
Coordinates from ORCA-job run
  C   0.73583558234611      0.04155625073714     -0.12473792027750
  C   -0.39752089010817     -0.63773081283546      0.16093588231419
  H   -0.29073070564235     -1.69638423997795      0.39784496891550
  C   0.68241038356938      1.44488766874274     -0.43562215797888
  N   0.65556206749186      2.59600399857382     -0.67557144655515
  N   2.01463216024377     -0.52674369698289     -0.25236466695082
  H   2.06797389174329     -1.45726958882466      0.13532434272726
  H   2.75004536010932      0.06176073245072      0.11296252737127
  C   -1.77849236589154     -0.06319747837731      0.16543443338627
  H   -1.77465482865445      1.00758222923377     -0.04441913703008
  H   -2.41282644408086     -0.55689461429235     -0.57783122811558
  H   -2.25223421112635     -0.21257044844758      1.14004440219353
