12
Coordinates from ORCA-job run
  C   0.74569943023994      0.05766451421429      0.01392526305237
  C   -0.40106510306207     -0.58464654823061     -0.30179939529510
  H   -0.30932504087735     -1.57408070092945     -0.74970670927303
  C   0.69824346792133      1.36336167921358      0.61673050536146
  N   0.67056301970072      2.41920575703730      1.13407319487901
  N   2.04277331367701     -0.38825746735558     -0.28423597448797
  H   2.71210978963348     -0.18685857132181      0.44496449356723
  H   2.06755008766357     -1.36542244254175     -0.53920503993258
  C   -1.78153335359774     -0.03782035179704     -0.11711324646880
  H   -1.76826905164431      0.94084590151035      0.36544194199529
  H   -2.38704197957117     -0.71128290904071      0.49642195285806
  H   -2.29170458008339      0.06729113924144     -1.07949698625593
