12
Coordinates from ORCA-job run
  C   0.74447672257004      0.04316747194250     -0.05546434336583
  C   -0.41058559577150     -0.64991485353531      0.05638982659237
  H   -0.33226684574009     -1.73163199984782      0.16404530779463
  C   0.71651822932556      1.47518297182493     -0.19361123152137
  N   0.70700006662447      2.64819359067018     -0.27881972866823
  N   2.02861686836219     -0.51511655956417     -0.15272622787286
  H   2.73334468584094      0.01521839217841      0.33943710817778
  H   2.05022387680293     -1.48764245415305      0.11986368800147
  C   -1.78491370833915     -0.05983467374677      0.00953291601757
  H   -1.75558657687302      1.02819030213147     -0.06944999900804
  H   -2.35019386387272     -0.32072894077199      0.90892541654249
  H   -2.34663385892965     -0.44508324712841     -0.84712273268996
