12
Coordinates from ORCA-job run
  C   0.74196573302102     -0.01369325907040      0.09300673529173
  C   -0.42494591888497     -0.56024590706041     -0.31525837897835
  H   -0.37117637233666     -1.52097671624671     -0.82706999249447
  C   0.74657594740453      1.25658971244642      0.76892617350739
  N   0.76508452364659      2.30700796022042      1.29761071657113
  N   2.00417577308365     -0.62241483380172      0.01253995130857
  H   2.74586441531049      0.02448269279872     -0.21466890564678
  H   2.01236112907385     -1.41708824414461     -0.61118921403075
  C   -1.78330501634575      0.02639684295946     -0.09192774961273
  H   -2.31172520195151      0.15444044065082     -1.04112175154543
  H   -1.72821491069665      0.99905397224356      0.39988129139634
  H   -2.39566010132460     -0.63255266099554      0.53127112423336
