12
Coordinates from ORCA-job run
  C   0.64155849388014      0.46770789444814      0.01758107246385
  C   -0.69480144120929      0.48791296504730     -0.19132973958713
  H   -1.16635437372597      1.44605380121567     -0.37827262007767
  C   1.38970379209755      1.69294914324586     -0.02203587440175
  N   2.01668928048261      2.68786145948055     -0.03799310874060
  N   1.40425454566329     -0.69327284435658      0.18297244845644
  H   0.87689125628099     -1.47213275182937      0.54917937624728
  H   2.26124887364479     -0.55116308843592      0.69579093929794
  C   -1.51764437540620     -0.76552714691768     -0.20155102564583
  H   -1.11991156483304     -1.49547136435189     -0.91505972167090
  H   -2.54961081480197     -0.55541995293993     -0.48139751546101
  H   -1.54002367207288     -1.24849811460616      0.78311576911939
