12
Coordinates from ORCA-job run
  C   0.53716428768091      0.45153179196883      0.36876659991224
  C   -0.77729294294499      0.39300244507813      0.05390270475534
  H   -1.40378847358345      1.23395006227886      0.32908252353363
  C   1.05687938681068      1.59685073784385      1.06161672218356
  N   1.50290986905752      2.53123943435256      1.61984846369084
  N   1.45135070005723     -0.58631439872861      0.15502038532059
  H   2.41017307593342     -0.27923334426547      0.08977213802381
  H   1.20156540863333     -1.18738011042435     -0.61637751358039
  C   -1.37631856320176     -0.79930871871633     -0.62991360761376
  H   -1.16535006305061     -1.71943798471330     -0.07414058365517
  H   -2.45794869640837     -0.70240723592637     -0.71545173503681
  H   -0.98034398898390     -0.93349267874779     -1.64412609753388
