12
Coordinates from ORCA-job run
  C   0.64302514893208      0.46182811473481     -0.00149496574283
  C   -0.61340392462087      0.37127258161558     -0.49424152778824
  H   -0.99101453595507      1.20007038232954     -1.08236398937247
  C   1.43852263293933      1.62349206197939     -0.28419317236174
  N   2.09804255483264      2.57418893324048     -0.49503249070302
  N   1.29094510223898     -0.55406402893824      0.71149824548071
  H   2.04779053884426     -0.22539590487378      1.29181348934762
  H   0.65763079981984     -1.14180003823970      1.23328062548468
  C   -1.47184550658921     -0.83584532559660     -0.26501546670235
  H   -0.92487564566158     -1.75815000939463     -0.48824101790307
  H   -1.81810880070061     -0.90174505792284      0.77387767937089
  H   -2.35770836407980     -0.81385170893400     -0.89988740911017
