12
Coordinates from ORCA-job run
  C   0.61454488731590      0.50155190017810      0.03947234086411
  C   -0.61325998934431      0.35186814995572     -0.50818289669656
  H   -0.96774114276469      1.12400503978063     -1.18155103210760
  C   1.39913430574615      1.66316802975078     -0.27243025853886
  N   2.06144777755955      2.60075726420350     -0.52871400446791
  N   1.17241137383581     -0.35917619273307      0.99105332946172
  H   0.80607456186223     -1.29864350636055      0.94536341418144
  H   2.18116113508722     -0.35551789260283      1.00372817719895
  C   -1.48925788385586     -0.82174194435291     -0.18679080744001
  H   -1.64357137380926     -0.91795264473320      0.89354960787147
  H   -1.05466252223766     -1.76492176194354     -0.54042375764981
  H   -2.46828112939508     -0.72239644114264     -0.65507411267694
