16

C	-0.52924	-0.005747	-1.438621
C	-0.005644	0.064808	0.004576
Cl	0.134103	1.409013	-2.337738
H	1.088671	0.092777	-0.020377
C	-0.04775	-1.227323	-2.101747
N	0.217496	-2.230749	-2.651618
N	-1.974791	0.028407	-1.618968
H	-2.330818	0.832758	-1.109973
H	-2.365712	-0.809081	-1.198975
C	-0.302985	-1.205721	0.796268
H	-1.363196	-1.480404	0.808385
H	0.034672	-1.05709	1.823918
H	0.306645	-2.011034	0.38036
C	-0.581357	1.23336	0.642848
N	-1.068928	2.166225	1.171271
H	2.571081	-0.480989	0.022101
