13

C	-0.634859	-0.010124	-1.374866
C	0.0	0.0	0.0
Br	-0.083784	1.61807	-2.345986
H	1.086954	0.0	0.0
H	-1.714839	0.12152	-1.269457
H	-0.374014	-0.868451	0.552057
N	-0.240143	-1.170222	-2.1082
H	-0.146942	-1.988104	-1.522135
H	-0.868126	-1.352149	-2.873693
N	-0.537163	1.169446	0.755399
O	0.241156	2.012291	1.17906
O	-1.766358	1.197905	0.891648
Br	3.628739	0.0	0.0
