13

C	-0.490403	-0.042811	-1.419726
C	0.0	0.0	0.0
Br	-2.592969	-0.051052	-1.335043
H	1.092305	0.0	0.0
H	-0.318231	-1.011784	-1.877856
H	-0.375602	0.866545	0.541053
N	0.013161	0.998111	-2.181547
H	-0.079123	1.912252	-1.761467
H	-0.281766	0.990912	-3.146049
N	-0.450133	-1.193824	0.752186
O	-0.82706	-1.024409	1.909396
O	-0.385484	-2.280935	0.179606
Br	3.482978	0.0	0.0
