13

C	-0.341844	-0.004339	-1.474594
C	0.0	0.0	0.0
Br	-2.287102	0.223424	-1.728449
H	1.093482	0.0	0.0
H	-0.115145	-0.981145	-1.897938
H	-0.384803	0.875216	0.521262
N	0.362062	1.014569	-2.212632
H	1.357194	0.799106	-2.127577
H	0.221391	1.911812	-1.759576
N	-0.496807	-1.192222	0.719662
O	-0.930309	-1.02929	1.85956
O	-0.425837	-2.276417	0.142885
Br	3.455356	0.0	0.0
