13

C	-0.546489	0.046392	-1.414489
C	0.0	0.0	0.0
Br	-0.248662	-1.761434	-2.277417
H	1.086182	0.0	0.0
H	0.114307	0.681715	-2.002498
H	-0.361454	0.895404	0.513831
N	-1.886264	0.494533	-1.496502
H	-2.478621	-0.081145	-0.910998
H	-2.221451	0.477911	-2.450181
N	-0.555073	-1.145005	0.769751
O	-1.790185	-1.219875	0.826297
O	0.213539	-1.928631	1.309656
Br	3.555734	0.0	0.0
