13

C	-0.550284	-0.028878	-1.408893
C	0.0	0.0	0.0
Br	-0.10809	-1.778212	-2.165644
H	1.090933	0.0	0.0
H	-0.007146	0.68476	-2.03656
H	-0.389622	-0.820096	0.601083
N	-1.997936	0.113208	-1.422241
H	-2.202394	1.07589	-1.167685
H	-2.334476	-0.02948	-2.366755
N	-0.410832	1.255537	0.689838
O	-0.629659	2.255271	-0.004047
O	-0.471432	1.233596	1.914458
Br	3.492657	0.0	0.0
