13

C	-0.494899	-0.010603	-1.419918
C	0.0	0.0	0.0
Br	-2.594091	0.010723	-1.323492
H	1.092281	0.0	0.0
H	-0.333924	-0.972278	-1.899286
H	-0.374425	0.855052	0.561342
N	0.022005	1.042173	-2.159194
H	-0.284208	1.066995	-3.118116
H	-0.054463	1.944352	-1.715552
N	-0.442399	-1.210224	0.733527
O	-0.397124	-2.285399	0.137845
O	-0.790927	-1.063758	1.902532
Br	3.482471	0.0	0.0
