13

C	-0.543758	-0.01722	-1.414103
C	0.0	0.0	0.0
Br	-0.15668	-1.833466	-2.221691
H	1.086945	0.0	0.0
H	0.093544	0.631819	-2.013487
H	-0.360048	0.916377	0.477668
N	-1.900528	0.371553	-1.522615
H	-2.477106	-0.232467	-0.950625
H	-2.212932	0.339579	-2.483798
N	-0.53727	-1.111137	0.83269
O	0.235347	-1.740757	1.541566
O	-1.758947	-1.303227	0.784889
Br	3.555282	0.0	0.0
