13

C	-0.491896	-0.031593	-1.422837
C	0.0	0.0	0.0
Br	-2.627539	-0.152638	-1.284651
H	1.093111	0.0	0.0
H	-0.312725	-1.018458	-1.843188
H	-0.369026	-0.857545	0.55583
N	-0.04819	0.971524	-2.247359
H	-0.345693	0.90645	-3.20697
H	-0.109186	1.89542	-1.850131
N	-0.449166	1.192376	0.756454
O	-0.418902	2.287632	0.18883
O	-0.785952	1.02578	1.925321
Br	3.466757	0.0	0.0
