13

C	-0.557742	0.014394	-1.405405
C	0.0	0.0	0.0
Br	0.0213	-1.707622	-2.267406
H	1.08883	0.0	0.0
H	-0.061407	0.773791	-2.005534
H	-0.39246	-0.829113	0.587668
N	-1.962532	0.206509	-1.412266
H	-2.433681	-0.538747	-0.914365
H	-2.325802	0.254357	-2.354842
N	-0.444509	1.250446	0.675659
O	-1.062281	1.143634	1.736165
O	-0.163338	2.311504	0.126283
Br	3.51114	0.0	0.0
