13

C	-0.441108	-0.273685	-1.425663
C	0.0	0.0	0.0
Br	-0.267337	1.446993	-2.517283
H	1.090614	0.0	0.0
H	-1.507452	-0.470081	-1.5175
H	-0.363197	-0.824778	0.618291
N	0.345668	-1.333016	-1.905405
H	1.338141	-1.158328	-1.75249
H	0.167149	-1.547622	-2.875796
N	-0.61584	1.223972	0.556382
O	0.105985	2.118183	0.98055
O	-1.850294	1.240262	0.567833
Br	3.535811	0.0	0.0
