14

C	-0.497556	-0.028176	-1.411436
C	0.0	0.0	0.0
Cl	-0.120429	1.548377	-2.15658
H	1.089702	0.0	0.0
H	-0.316623	0.900399	0.519271
C	0.069287	-1.081313	-2.248141
N	0.54885	-1.888088	-2.954636
N	-2.042482	-0.144192	-1.480483
O	-2.658587	0.408304	-0.581145
O	-2.522074	-0.719733	-2.447742
N	-0.47065	-1.142621	0.737551
O	-0.366811	-1.100594	1.967626
O	-0.862844	-2.133721	0.09344
H	2.491827	0.0	0.0
