14

C	-0.49738	-0.004216	-1.427849
C	0.0	0.0	0.0
Cl	0.276972	-1.206515	-2.45121
H	1.089415	0.0	0.0
H	-0.308663	0.91222	0.505268
C	-1.950501	-0.10282	-1.554795
N	-3.118129	-0.126095	-1.695049
N	-0.148971	1.427171	-1.973507
O	0.613169	1.530899	-2.916042
O	-0.709593	2.337039	-1.375012
N	-0.484079	-1.117912	0.772062
O	-0.349241	-1.022313	1.998107
O	-0.892349	-2.134393	0.187086
H	2.502073	0.0	0.0
