14

C	-0.470166	-0.130411	-1.414289
C	0.0	0.0	0.0
Cl	-0.143209	1.415467	-2.243018
H	1.089907	0.0	0.0
H	-0.334898	0.924326	0.458848
C	0.161347	-1.200844	-2.181721
N	0.654495	-2.009925	-2.876229
N	-2.006067	-0.320552	-1.496607
O	-2.449854	-1.051757	-2.372432
O	-2.658242	0.329514	-0.689981
N	-0.459517	-1.101971	0.797549
O	-0.38398	-0.985626	2.025191
O	-0.8066	-2.141346	0.208737
H	2.493347	0.0	0.0
