14

C	-0.493336	-0.156614	-1.415435
C	0.0	0.0	0.0
Cl	-2.286745	-0.359233	-1.499876
H	1.09008	0.0	0.0
H	-0.372709	0.939798	0.395608
C	-0.141434	1.0559	-2.155038
N	-0.014327	2.100469	-2.684499
N	0.143025	-1.351212	-2.142959
O	1.03194	-1.085051	-2.949804
O	-0.291589	-2.457295	-1.857024
N	-0.473537	-1.037714	0.907896
O	0.079253	-2.141283	0.829693
O	-1.334238	-0.730179	1.737253
H	2.570819	0.0	0.0
