14

C	-0.498758	0.069871	-1.416116
C	0.0	0.0	0.0
Cl	0.334432	1.256707	-2.412365
H	1.088448	0.0	0.0
H	-0.302636	-0.92374	0.486708
C	-0.350443	-1.245212	-2.038953
N	-0.24704	-2.302743	-2.541179
N	-2.044789	0.33876	-1.452529
O	-2.678975	-0.374211	-0.685019
O	-2.494463	1.160762	-2.22881
N	-0.465997	1.10115	0.809632
O	-0.314216	0.983601	2.031309
O	-0.886295	2.124376	0.245638
H	2.49495	0.0	0.0
