18
Coordinates from ORCA-job run
  C   0.56075528922688     -0.18345279279424     -0.13891411461539
  C   -0.85702646820044      0.28044153274257      0.21281207638261
  F   0.52505778313102     -0.45952991168819     -1.53332631973899
  H   -0.87525614243024      0.50539119312254      1.28506638204697
  C   1.59392440006515      0.90255087983184      0.07029243030990
  H   1.63656076033208      1.18094325932780      1.12628482976146
  H   2.57682962430132      0.53605770964126     -0.23376679900858
  H   1.33914584526869      1.78952370712266     -0.50547191701663
  C   0.93742755510091     -1.47330792254805      0.55749582739889
  H   0.94350928897051     -1.32662556436943      1.64049474258338
  H   0.22089905235495     -2.25776054183986      0.32434514523055
  H   1.93647907514927     -1.78152680157480      0.24163430658819
  N   -1.77928961300198     -0.82953622811917     -0.00959959025784
  H   -1.75806221054678     -1.07571835046185     -0.99347037235919
  H   -2.72377240271690     -0.54119824002754      0.21686452337269
  N   -1.12745511459364      1.52951563657438     -0.49341814105204
  H   -1.08723716843741      1.35223498636210     -1.49142157814651
  H   -2.06248955397340      1.85199744869796     -0.27390143147949
