18
Coordinates from ORCA-job run
  C   0.52595091120302     -0.43435325765731     -0.16297216899504
  C   -0.96249087472448     -0.08305404283340     -0.06194586658449
  F   0.63470240305257     -1.30807347642230     -1.27301228929035
  H   -1.48163739989795     -1.01230555694815      0.22039635562242
  C   1.39062048660988      0.77160299752754     -0.46157306942091
  H   2.41193136555804      0.44191705072895     -0.66338165894405
  H   1.40889767293796      1.44685697462962      0.39577854130201
  H   1.00999623616771      1.30712346515070     -1.33134780248701
  C   0.99443013866196     -1.20369148761336      1.05120743032567
  H   0.86171049520032     -0.60059215511418      1.94876498204215
  H   0.41681572974662     -2.12536832641586      1.15553097162699
  H   2.04812858222461     -1.46909026261446      0.94106282344632
  N   -1.41405102251881      0.45106102602126     -1.34472583999318
  H   -1.14500204707711     -0.18826931035876     -2.08408042689679
  H   -2.42576118972600      0.51380210407631     -1.34493256684136
  N   -1.15852243954414      0.86668131847165      1.01927627787984
  H   -2.11458314365899      0.82883198071176      1.34983138020289
  H   -1.00313590421522      1.79692095865999      0.64512292700488
