18
Coordinates from ORCA-job run
  C   0.58664077413602     -0.25426108163499     -0.28875642054415
  C   -0.80998598312714      0.37060767647687     -0.37884511312601
  F   0.72163559289202     -1.04924098968259     -1.45370863360026
  H   -0.78311869022643      1.06670593019718     -1.23174074582976
  C   1.66746186867098      0.80122053984451     -0.34746975593421
  H   2.65183358033708      0.32909028923478     -0.31667857324291
  H   1.58684571286029      1.36769968079394     -1.27839389377919
  H   1.56473714947665      1.48713539004918      0.49272383612492
  C   0.73587259654174     -1.17983451083227      0.89948225000456
  H   -0.06807236706312     -1.91580141898107      0.91200719351773
  H   0.71438839757816     -0.60924312993574      1.82973011479538
  H   1.69467374435732     -1.69854159523918      0.83494853693062
  N   -1.06054060085799      1.15951901455763      0.81462162905986
  H   -1.42419194561814      0.53485601289205      1.52672515317587
  H   -1.77188196737647      1.85600141909392      0.63093280263395
  N   -1.79794411432400     -0.69290634954414     -0.54594928370129
  H   -2.69348474430678     -0.28355958857631     -0.78678172854967
  H   -1.51586900395020     -1.29044728871377     -1.31484736793545
