18
Coordinates from ORCA-job run
  C   0.62730679805987     -0.26508396662421     -0.32429713606249
  C   -0.81682127661892      0.22244377181513     -0.50234777037929
  F   0.97397366871612     -0.88380236029162     -1.53511925220258
  H   -0.84418361122649      0.70288875104705     -1.49249489754286
  C   1.59387390748811      0.89114913153192     -0.14485048972500
  H   2.61513016263746      0.51808736855428     -0.24247941411765
  H   1.48698342240750      1.34867640179444      0.83992312153008
  H   1.43871616928397      1.64935770956219     -0.91832579295568
  C   0.76033305858184     -1.29886261888420      0.77177640966742
  H   0.19234226392593     -2.18880251818673      0.50066229642602
  H   0.38742062194810     -0.89742209301573      1.71603247558269
  H   1.80823538453571     -1.58107225654187      0.89449118022981
  N   -1.15749147907646      1.13326943906167      0.59772044821258
  H   -0.64123592088066      2.00234875770730      0.51576363001336
  H   -2.14124580936330      1.36745306673700      0.52291729818264
  N   -1.72962751170897     -0.89932796746187     -0.55288381873095
  H   -1.97131482687158     -1.17547833588521      0.39221908655661
  H   -2.58039502183824     -0.64482228091952     -1.03770737468470
