18
Coordinates from ORCA-job run
  C   0.54688086889882     -0.50056211227799     -0.17159368574879
  C   -0.95975443905538     -0.20693889442887     -0.14166964313283
  F   0.72913514090913     -1.48902970957932     -1.14948451079904
  H   -1.44121950904214     -1.18417622564361     -0.03247081429846
  C   1.37304751275524      0.69495677905970     -0.60570249599121
  H   1.08908863607024      0.99534050520306     -1.61486446807063
  H   2.43015805739104      0.42207776747794     -0.61883217063015
  H   1.25411665461218      1.53895151347361      0.07948135576566
  C   1.02798889309622     -1.09310969635580      1.13750345386861
  H   1.00001379703036     -0.35846188291270      1.94032792507341
  H   2.04939969134277     -1.45858773114689      1.00820432629645
  H   0.39266130894267     -1.93412021909942      1.42442482765537
  N   -1.39354344491628      0.33343601612411     -1.42535309203730
  H   -2.39189904070138      0.20410684630409     -1.53505560263236
  H   -1.20950756720115      1.32955632590177     -1.46518088190812
  N   -1.27974787829421      0.56519113281225      1.05814976648626
  H   -2.28631792725097      0.62903263186742      1.15713437694914
  H   -0.93250075458713      1.51333695322060      0.95598133315398
