18
Coordinates from ORCA-job run
  C   0.55862511065376     -0.22643509707569     -0.29849375252346
  C   -0.81875032771649      0.43978301753733     -0.45959158376964
  F   0.71515218055384     -1.03455263865679     -1.44780730279847
  H   -0.72729342442942      1.11129450531315     -1.32102460442196
  C   1.67557677260363      0.79391876014220     -0.31884458025942
  H   1.57626990517820      1.47910052745485      0.52231173386231
  H   1.63229232066178      1.37081822995539     -1.24563078541056
  H   2.64504355585386      0.29238597102032     -0.27251491039951
  C   0.64923303393401     -1.15231834303083      0.89750370663496
  H   1.59191654712795     -1.70133139675268      0.85590757936065
  H   0.62514477327244     -0.58978557620741      1.83284957234231
  H   -0.15969439280228     -1.88600887510056      0.89350542255782
  N   -1.08823745046395      1.25797051414606      0.70716520116242
  H   -1.29654841280791      0.65784358652875      1.49878009091236
  H   -1.92845657689378      1.79519391244556      0.52563953657610
  N   -1.91663728886242     -0.47020622182753     -0.77390696987448
  H   -1.67182124034701     -1.02127845232297     -1.58931621077252
  H   -2.06181508551621     -1.11639242356916     -0.00553214317890
