18
Coordinates from ORCA-job run
  C   0.59039141651939     -0.22340309819320     -0.22049193055790
  C   -0.85802689940621      0.25063107684650     -0.01529972070354
  F   0.76919294839322     -0.57078296363025     -1.55570190534426
  H   -0.93488645499974      0.51066216042838      1.06095915603863
  C   1.57185909378916      0.89546113957691      0.07882854887843
  H   1.44230561807778      1.69998101081597     -0.64641649029926
  H   2.59481855253751      0.52495723159775     -0.01221460752715
  H   1.43608481712318      1.28850965599349      1.09033428025815
  C   0.87195457954800     -1.46911280625751      0.60028972332876
  H   1.91976162456155     -1.75570012529866      0.49085500773155
  H   0.66843826136203     -1.30457015569756      1.66216019033696
  H   0.26001560776978     -2.29477767146606      0.23446008128896
  N   -1.78299273440474     -0.81555603949547     -0.37947343968366
  H   -1.84183231711045     -1.48731973596712      0.37528083977011
  H   -2.71420052383816     -0.43672875202644     -0.50509250632534
  N   -1.12648269333428      1.40185122702474     -0.86829593852542
  H   -0.74051802245917      2.23621910367239     -0.44492169337362
  H   -2.12588287412884      1.54967874207616     -0.94425959529143
