18
Coordinates from ORCA-job run
  C   0.54464187996851     -0.23460561499705     -0.28855133253617
  C   -0.88993855099985      0.29999866519215     -0.44125794171662
  F   0.77205206965129     -0.99997229036254     -1.45883441377512
  H   -0.87917618316191      0.92599190379016     -1.34933809199920
  C   1.56860255652994      0.88140922979631     -0.30558564160797
  H   2.57224627494041      0.45503012700710     -0.35981824495367
  H   1.42128388175309      1.52288509653804     -1.17799119916579
  H   1.50690699211452      1.49102382736555      0.59801562096510
  C   0.72079974195688     -1.16756101904853      0.89004098840473
  H   0.62961238808841     -0.62604359609914      1.83411663580009
  H   -0.03227009858086     -1.95378205880396      0.86312260174894
  H   1.71581981859124     -1.61606558676021      0.85132250557797
  N   -1.37667241532155      1.13457471497375      0.63948706043124
  H   -1.37480491965714      0.60985697222079      1.50551858286948
  H   -0.82095998604836      1.97237247888564      0.74672545246204
  N   -1.80220059103248     -0.82624108118696     -0.53342273610334
  H   -2.73469660404145     -0.46338519808835     -0.69044246957679
  H   -1.54224625475070     -1.40548657042275     -1.32210737682492
