18
Coordinates from ORCA-job run
  C   0.50144266368555     -0.48828169317036     -0.17578920315602
  C   -1.01252567688594     -0.20973997089146     -0.22971377217796
  F   0.73547035788173     -1.55591357874139     -1.05514757580264
  H   -1.48700899380018     -1.19294810375381     -0.13738155910116
  C   1.34327677759703      0.67436965222199     -0.66399145949582
  H   1.14130481666244      1.58674808784200     -0.09546659196176
  H   2.40364344913367      0.43836415130221     -0.55373060601804
  H   1.14192083168870      0.85181270441774     -1.72045848311009
  C   0.93298071376075     -0.97190444534584      1.19675547162202
  H   1.94932229460509     -1.36502784456714      1.13090940729006
  H   0.92313925236079     -0.16709340348565      1.93342868255565
  H   0.28052489403831     -1.77885779316089      1.54171183392835
  N   -1.37165669790206      0.32154009618512     -1.53001676908143
  H   -2.38319168053856      0.31593993822399     -1.59591945007946
  H   -1.08973431561850      1.29486897124911     -1.58620905598528
  N   -1.53536561491854      0.61421676709099      0.86223312162504
  H   -1.44753943728672      0.14003371359073      1.75303839771244
  H   -1.02700363446356      1.48987275099264      0.92374761123611
