18
Coordinates from ORCA-job run
  C   0.59121806455288     -0.25661195935803     -0.32441607747369
  C   -0.84222577279628      0.23689733328885     -0.59695903601603
  F   1.00562103529225     -0.92033922410159     -1.48872809222461
  H   -0.79911029337297      0.70655637025883     -1.58585698429127
  C   1.55495135229929      0.90062826627036     -0.13467032727454
  H   1.40608132468291      1.40124094408021      0.82331360439800
  H   2.57751151720552      0.51972329003077     -0.16803728165472
  H   1.44033024559752      1.63124886530629     -0.94022667216418
  C   0.67463610942855     -1.26256922653636      0.80690130989196
  H   0.26746071051534     -0.85850402397835      1.73823662875992
  H   1.71659489547638     -1.53498730395667      0.98673917286435
  H   0.12900733770726     -2.16547861046670      0.53267913108475
  N   -1.33953660748773      1.25469749429335      0.33114924075629
  H   -1.26404282720190      0.93128479777188      1.28963577840701
  H   -0.80974797923433      2.11425351169151      0.24999808144011
  N   -1.74416549462708     -0.89391009053006     -0.69602141573598
  H   -2.62759938336873     -0.55205071567996     -1.05693035976893
  H   -1.93798423466888     -1.25307971838438      0.23319329900154
