16

C	-0.393211	-0.127123	-1.486445
C	0.0	0.0	0.0
F	-0.185753	1.193867	-1.997495
H	1.1	0.0	0.0
N	0.456837	-1.047397	-2.136825
H	0.475643	-0.831544	-3.126758
H	1.403741	-0.969413	-1.769336
N	-1.764564	-0.476108	-1.643827
H	-2.349528	0.335836	-1.494715
H	-1.927179	-0.855054	-2.567364
N	-0.469135	-1.217367	0.738541
O	0.135008	-2.25532	0.504678
O	-1.423413	-1.097529	1.504604
C	-0.567038	1.194535	0.601146
N	-1.024863	2.171819	1.064097
Cl	3.222792	0.0	0.0
