16

C	-0.304518	-0.012313	-1.515704
C	0.0	0.0	0.0
F	-1.680516	0.082335	-1.691209
H	1.09968	0.0	0.0
N	0.257117	1.142043	-2.16496
H	-0.157561	1.992527	-1.799983
H	1.25705	1.157834	-1.976151
N	0.165661	-1.227764	-2.076766
H	1.007458	-1.547221	-1.608893
H	0.364098	-1.061501	-3.05572
N	-0.517495	-1.220187	0.690001
O	-1.58466	-1.129794	1.295862
O	0.158123	-2.238069	0.578559
C	-0.540731	1.195301	0.621733
N	-0.944855	2.201479	1.072738
Cl	3.199723	0.0	0.0
