16

C	-0.303677	0.057502	-1.506927
C	0.0	0.0	0.0
F	-1.667449	0.214157	-1.720634
H	1.102767	0.0	0.0
N	0.302839	1.285525	-1.952581
H	1.309418	1.217967	-1.822371
H	0.088844	1.428628	-2.932854
N	0.102106	-1.160151	-2.144707
H	0.475535	-0.950294	-3.058915
H	0.814456	-1.636309	-1.607538
N	-0.495032	-1.266993	0.626383
O	0.158923	-2.280934	0.402504
O	-1.515125	-1.218216	1.309119
C	-0.557831	1.144946	0.696954
N	-0.997181	2.064716	1.279622
Cl	3.206534	0.0	0.0
