10
Coordinates from ORCA-job run
  C   0.20952681355759     -0.02483531082697      0.39813465790610
  C   -0.99217596093210     -0.41373088421485     -0.44722100905366
  F   0.06528039682529     -0.57465746266551      1.65956153202678
  H   -0.90735518943810      0.00756896558505     -1.44962155092631
  H   -1.04017490545853     -1.50136634098498     -0.51046362695824
  H   -1.89541088634599     -0.03569776631184      0.03304325984237
  C   1.46240628587217     -0.53795872215585     -0.18718897811006
  N   2.43988894180859     -0.96635282809558     -0.67647805554684
  C   0.30695647551062      1.43992570903678      0.54223543501392
  N   0.35105802860046      2.60910464063375      0.63899833580595
