10
Coordinates from ORCA-job run
  C   0.19122993718805     -0.06595880997290      0.40358006474364
  C   -0.99034111593317     -0.32849243225681     -0.51569005684203
  F   -0.03164559720179     -0.70215657331405      1.61150683514068
  H   -1.89464394227205      0.05770788396360     -0.04413922138465
  H   -0.84187716625715      0.16194010867306     -1.47843815983673
  H   -1.08709908924922     -1.40449652029811     -0.66448282485920
  C   1.44161583027817     -0.59543549362843     -0.17282744145537
  N   2.41583093963529     -1.03381202026197     -0.65964149241215
  C   0.35143930608065      1.37698257366002      0.66494913908667
  N   0.44449089773122      2.53172128343558      0.85518315781914
