10
Coordinates from ORCA-job run
  C   0.20941695307029     -0.05255837062615      0.39674164759163
  C   -1.01377242068700     -0.34335541270467     -0.45727660646870
  F   0.04182528488105     -0.64510904415586      1.63517258690607
  H   -0.91019553307229      0.11467479907130     -1.44166657266957
  H   -1.89485376051415      0.06025587694977      0.04289019970878
  H   -1.11808808625589     -1.42351426955277     -0.56560274668522
  C   1.43123068563898     -0.60520862549266     -0.21809825965489
  N   2.38169314497582     -1.06220176331473     -0.73382528219020
  C   0.38380332779256      1.39823819283095      0.59906226073877
  N   0.48794040417063      2.55877861699482      0.74260277272334
