10
Coordinates from ORCA-job run
  C   0.20970859278510     -0.05305686585422      0.39659929679265
  C   -0.99701753368688     -0.37379110865785     -0.47002623753139
  F   0.06166491046118     -0.68079431767555      1.62010101415138
  H   -1.05784724441872     -1.45482764324039     -0.60050392516747
  H   -0.90643066378452      0.10758557321814     -1.44450377539683
  H   -1.89601613768108     -0.01550955255516      0.03275066039338
  C   1.45534632610694     -0.54122758238474     -0.22488147734480
  N   2.42515458672424     -0.94752519520520     -0.74708181921020
  C   0.32417210948331      1.39856523296662      0.63318497161805
  N   0.38126505401043      2.55858145938835      0.80436129169524
