14

C	-0.342603	0.168598	-1.479111
C	0.0	0.0	0.0
F	-1.676619	-0.283873	-1.702973
H	1.09075	0.0	0.0
H	-0.368867	0.827081	0.613376
N	-0.208516	1.527668	-1.856358
H	-0.878788	2.099425	-1.362942
H	-0.364434	1.589605	-2.854876
N	0.489871	-0.619302	-2.347887
H	0.300559	-1.598315	-2.150489
H	1.451416	-0.449165	-2.037219
C	-0.486246	-1.264676	0.526041
N	-0.846547	-2.298801	0.953383
H	2.81367	0.0	0.0
