14

C	-0.222288	-0.02202	-1.499365
C	0.0	0.0	0.0
F	-1.567673	0.007358	-1.872676
H	1.094251	0.0	0.0
H	-0.359664	0.943499	0.41299
N	0.362835	1.204327	-1.999928
H	1.321594	1.227924	-1.642445
H	0.406383	1.160892	-3.015367
N	0.31033	-1.264947	-1.999653
H	0.305525	-1.246252	-3.016037
H	1.277869	-1.317361	-1.681665
C	-0.565301	-1.129583	0.707381
N	-1.002982	-2.025716	1.327264
H	2.78693	0.0	0.0
