14

C	-0.317205	0.020466	-1.497537
C	0.0	0.0	0.0
F	-1.62417	0.552814	-1.696169
H	1.090743	0.0	0.0
H	-0.372583	-0.899175	0.498452
N	0.569844	0.863353	-2.252584
H	0.389735	1.821012	-1.971455
H	1.516252	0.639471	-1.923143
N	-0.232251	-1.295224	-2.022211
H	-0.349226	-1.237043	-3.026253
H	-0.951454	-1.880922	-1.618292
C	-0.488597	1.187277	0.679469
N	-0.867708	2.152211	1.231924
H	2.81427	0.0	0.0
