14

C	-0.234651	-0.032938	-1.507075
C	0.0	0.0	0.0
F	-1.59984	-0.108421	-1.797476
H	1.094411	0.0	0.0
H	-0.369968	-0.914068	0.468706
N	0.239509	1.154613	-2.187065
H	1.221105	1.254058	-1.927067
H	-0.255359	1.965149	-1.827417
N	0.413296	-1.210611	-1.996475
H	1.342354	-1.242851	-1.570566
H	0.53543	-1.091168	-2.99609
C	-0.55482	1.178242	0.630332
N	-1.000003	2.147946	1.123696
H	2.782546	0.0	0.0
