17

C	-0.34527	0.002088	-1.484947
C	0.0	0.0	0.0
Cl	-2.155932	0.086186	-1.768497
H	1.098199	0.0	0.0
C	0.326744	1.173203	-2.181987
H	0.163028	1.134453	-3.26044
H	1.396315	1.107876	-1.944158
H	-0.073601	2.108726	-1.787903
C	0.082622	-1.259808	-2.096056
N	0.399598	-2.278668	-2.589042
C	-0.462979	-1.224365	0.778268
H	-0.0847	-1.151792	1.800706
H	-0.028226	-2.121478	0.331607
H	-1.551798	-1.319129	0.803309
C	-0.455234	1.231749	0.618786
N	-0.802782	2.222805	1.149261
H	2.672453	0.0	0.0
