17

C	-0.330279	0.00677	-1.489583
C	0.0	0.0	0.0
Cl	-2.133843	0.138078	-1.794342
H	1.098171	0.0	0.0
C	0.382315	1.158414	-2.180043
H	0.234964	1.119732	-3.260881
H	-0.001245	2.104918	-1.795212
H	1.446052	1.067151	-1.923314
C	0.069476	-1.268315	-2.092854
N	0.355216	-2.298559	-2.580396
C	-0.480295	-1.222151	0.770287
H	-0.153567	-1.136056	1.809138
H	-0.014923	-2.117958	0.352396
H	-1.568192	-1.329586	0.744742
C	-0.453289	1.235066	0.614305
N	-0.798864	2.228135	1.142035
H	2.677624	0.0	0.0
