17

C	-0.499685	0.024631	-1.453485
C	0.0	0.0	0.0
Cl	0.18184	-1.391565	-2.345958
H	1.095851	0.0	0.0
C	-2.019245	-0.036058	-1.587498
H	-2.465228	0.814164	-1.065483
H	-2.387734	-0.964007	-1.14945
H	-2.30862	-0.00502	-2.639695
C	-0.015222	1.22819	-2.14021
N	0.273081	2.205404	-2.726358
C	-0.408827	-1.238587	0.795545
H	0.126472	-1.204497	1.747233
H	-1.481184	-1.304221	0.995782
H	-0.076212	-2.134655	0.270653
C	-0.473693	1.20297	0.662774
N	-0.872789	2.168573	1.205011
H	2.674044	0.0	0.0
