17

C	-0.391909	-0.05389	-1.486284
C	0.0	0.0	0.0
Cl	0.017323	1.523358	-2.261346
H	1.096489	0.0	0.0
C	0.405539	-1.14507	-2.196317
H	0.260786	-1.076453	-3.276043
H	0.07552	-2.130375	-1.860275
H	1.458271	-1.001394	-1.930715
C	-1.834677	-0.250397	-1.664271
N	-2.98373	-0.468729	-1.788229
C	-0.402358	-1.269201	0.756911
H	0.180261	-2.114867	0.387723
H	-1.471549	-1.491551	0.686202
H	-0.140758	-1.139569	1.809151
C	-0.545812	1.171659	0.662255
N	-0.997315	2.089731	1.243027
H	2.730782	0.0	0.0
