17

C	-0.398076	-0.050866	-1.484156
C	0.0	0.0	0.0
Cl	0.027325	1.520441	-2.261996
H	1.096453	0.0	0.0
C	0.381648	-1.152375	-2.197261
H	1.437216	-1.022094	-1.937711
H	0.232334	-1.081937	-3.276206
H	0.040111	-2.13289	-1.85935
C	-1.844167	-0.228862	-1.656271
N	-2.996637	-0.428519	-1.781668
C	-0.402694	-1.268508	0.757632
H	-0.141186	-1.137991	1.809882
H	0.179678	-2.114571	0.389211
H	-1.471892	-1.490476	0.68673
C	-0.542222	1.172723	0.663787
N	-0.990039	2.093783	1.242485
H	2.729283	0.0	0.0
