17

C	-0.335999	0.007872	-1.488032
C	0.0	0.0	0.0
Cl	-2.142955	0.124524	-1.784499
H	1.098217	0.0	0.0
C	0.362888	1.167216	-2.17898
H	-0.02757	2.10956	-1.791027
H	0.211817	1.129416	-3.259227
H	1.428502	1.085362	-1.927203
C	0.071738	-1.262346	-2.095648
N	0.36833	-2.288887	-2.584974
C	-0.476052	-1.223648	0.770891
H	-0.133916	-1.143403	1.805264
H	-0.020554	-2.119425	0.342943
H	-1.564535	-1.326194	0.760558
C	-0.453359	1.233535	0.617371
N	-0.799099	2.225667	1.14687
H	2.676288	0.0	0.0
