15

C	-0.457474	-0.043257	-1.449464
C	0.0	0.0	0.0
F	-1.861452	-0.173565	-1.471385
H	1.093429	0.0	0.0
H	-0.354513	0.934116	0.45582
C	-0.174344	1.239214	-2.121934
N	0.009515	2.26234	-2.665437
C	0.145647	-1.201159	-2.208816
H	-0.240636	-1.226638	-3.229356
H	-0.120205	-2.115235	-1.679366
H	1.23154	-1.096418	-2.216596
N	-0.456537	-1.206668	0.683342
H	-1.359399	-1.054298	1.109317
H	0.209743	-1.43807	1.406403
Br	3.63592	0.0	0.0
