15

C	-0.460854	-0.063629	-1.442593
C	0.0	0.0	0.0
F	-1.845917	-0.336493	-1.468031
H	1.093522	0.0	0.0
H	-0.31932	-0.946961	0.45693
C	-0.297701	1.236392	-2.118662
N	-0.181538	2.235677	-2.721851
C	0.256469	-1.157564	-2.205203
H	0.063977	-2.113231	-1.713577
H	-0.103896	-1.206125	-3.234781
H	1.331625	-0.967704	-2.184283
N	-0.521416	1.176607	0.683785
H	0.220966	1.591304	1.232258
H	-1.282618	0.931992	1.301827
Br	3.605849	0.0	0.0
