15

C	-0.54749	0.024207	-1.41842
C	0.0	0.0	0.0
F	-0.091717	1.186501	-2.048751
H	1.099088	0.0	0.0
H	-0.349743	-0.921193	0.478005
C	-0.047314	-1.133107	-2.183589
N	0.325305	-2.085259	-2.759448
C	-2.065659	0.049081	-1.473432
H	-2.414614	0.885769	-0.871807
H	-2.470562	-0.879441	-1.064285
H	-2.396156	0.157792	-2.508019
N	-0.54095	1.159144	0.732339
H	-0.276247	1.040887	1.70323
H	-0.012451	1.964262	0.41002
Br	3.653266	0.0	0.0
