13

C	-0.633112	-0.010952	-1.358486
C	0.0	0.0	0.0
Cl	-0.21275	-1.525146	-2.190961
H	1.087244	0.0	0.0
H	-1.718722	0.071162	-1.363423
H	-0.281491	-0.908243	0.535944
N	-0.190127	1.125578	-2.256925
O	-0.984135	1.416716	-3.15154
O	0.89737	1.64001	-2.057027
N	-0.530898	1.114664	0.781898
O	-0.406268	1.069214	2.004705
O	-1.05615	2.058614	0.173997
F	2.493621	0.0	0.0
