13

C	-0.649355	-0.005895	-1.351952
C	0.0	0.0	0.0
Cl	-0.266398	-1.529043	-2.184437
H	1.087146	0.0	0.0
H	-1.7334	0.093498	-1.338725
H	-0.288346	-0.90369	0.54047
N	-0.205563	1.119132	-2.263468
O	-1.043019	1.470892	-3.09577
O	0.924277	1.56156	-2.13931
N	-0.51304	1.12334	0.783025
O	-0.980508	2.095041	0.17189
O	-0.423751	1.060461	2.008127
F	2.493108	0.0	0.0
