13

C	-0.343163	-0.015587	-1.448722
C	0.0	0.0	0.0
Cl	-2.095971	-0.15084	-1.820818
H	1.092683	0.0	0.0
H	0.031798	0.860181	-1.964421
H	-0.402564	-0.84678	0.547934
N	0.315268	-1.203202	-2.094675
O	0.189202	-2.288724	-1.537556
O	0.896348	-0.997439	-3.155658
N	-0.468543	1.22831	0.631142
O	-0.746736	1.180811	1.831163
O	-0.504156	2.26183	-0.043614
F	2.490185	0.0	0.0
