13

C	-0.361654	0.012985	-1.444469
C	0.0	0.0	0.0
Cl	-2.122505	-0.092751	-1.794742
H	1.092649	0.0	0.0
H	0.017168	0.892984	-1.951288
H	-0.400844	-0.855523	0.535615
N	0.275757	-1.171938	-2.117654
O	0.148833	-2.263841	-1.574734
O	0.84408	-0.955729	-3.184908
N	-0.463216	1.217587	0.656695
O	-0.724675	1.150926	1.858792
O	-0.510134	2.26091	-0.002101
F	2.492223	0.0	0.0
