16

C	0.0	0.0	0.0
C	-0.293786	-0.141508	-1.510409
Br	2.043613	0.0	0.0
H	-0.116878	-1.211366	-1.742814
H	0.473499	0.41648	-2.058614
C	-0.547926	1.272924	0.594805
H	-0.246564	2.140919	0.008671
H	-1.640515	1.138033	0.554875
H	-0.205372	1.394791	1.627701
N	-0.474853	-1.110463	0.706754
H	-0.032774	-1.980103	0.452872
H	-0.521465	-0.977928	1.704992
N	-1.607542	0.36522	-1.849791
H	-1.892953	-0.062703	-2.724015
H	-2.342682	0.126192	-1.109008
F	-3.342345	0.0	0.0
