16

C	0.0	0.0	0.0
C	-0.392802	-0.026101	-1.470995
Br	2.085813	0.0	0.0
H	-1.488336	0.017717	-1.378229
H	-0.011276	0.870596	-1.981854
C	-0.426744	1.295666	0.648868
H	-1.522718	1.260713	0.572915
H	-0.114524	1.310455	1.694707
H	-0.014603	2.162689	0.128294
N	-0.513692	-1.108381	0.7238
H	-0.423482	-1.908631	0.100519
H	-1.533561	-0.861115	0.708568
N	-0.002417	-1.282429	-2.109601
H	-0.561453	-1.419027	-2.941507
H	0.971141	-1.231566	-2.382828
F	-2.893252	0.0	0.0
