16
Coordinates from ORCA-job run
  C   -0.35340489724260      0.06918285247262     -0.28542112294385
  C   1.05700728879001     -0.24297464387137      0.28401530850698
  F   -0.24282301467111     -0.04490585762157     -1.66937287170894
  H   1.00999130450362     -0.16365884840566      1.37738972298704
  C   -1.36339670845097     -0.95584354793025      0.18754347202298
  H   -2.33715417281857     -0.72166279009435     -0.24597092064898
  H   -1.07691428113439     -1.95785253328451     -0.13513310658266
  H   -1.45604751895488     -0.94322475450773      1.27619194437251
  C   -0.75932507869192      1.49319824361391      0.03386792315929
  H   -0.81256971824167      1.65427153460151      1.11334924509062
  H   -1.74424840315749      1.68693363381156     -0.39454994919157
  H   -0.05203493881087      2.20230801407940     -0.39880372330177
  C   2.04928164002814      0.72226413767097     -0.20085316379922
  N   2.82590512858479      1.51907630306787     -0.57424404039597
  C   1.47504133496116     -1.60687690232092     -0.05703097045358
  N   1.78169203530676     -2.71023484128147     -0.31397774711288
