16
Coordinates from ORCA-job run
  C   -0.35477826408410      0.06960623603435     -0.28428411593528
  C   1.05977149106566     -0.23399855402427      0.27888523764430
  F   -0.24314600933427     -0.01659077787607     -1.67024141742276
  H   1.01193883345421     -0.17656718934743      1.37362111506028
  C   -1.35061691824750     -0.97783314789872      0.16911672474470
  H   -1.44533593881145     -0.98514419456686      1.25761178666177
  H   -1.04941646884412     -1.97001327790095     -0.17002123164419
  H   -2.32686675070560     -0.75015700274570     -0.26222016935793
  C   -0.77984029554553      1.48166268440890      0.06211774567079
  H   -1.76778092446820      1.67007028459658     -0.36153055039263
  H   -0.08287400119572      2.20833418664474     -0.35777148797258
  H   -0.83389129730421      1.62181366959164      1.14440316319831
  C   2.03881269645458      0.75424126011373     -0.18633287317568
  N   2.80450809325930      1.56950230647436     -0.54197767144568
  C   1.49740758268189     -1.58512823451564     -0.08774748312490
  N   1.82210817162504     -2.67879824898866     -0.36362877250851
