16
Coordinates from ORCA-job run
  C   -0.36983315283301      0.07326618475813     -0.26327885529282
  C   1.06074569111638     -0.28715904356879      0.22036145214057
  F   -0.37250715252090     -0.13178647792843     -1.64119965197817
  H   1.10296085651224     -0.13795145687721      1.30656829934420
  C   -1.39553570857055     -0.85856207185693      0.34848819488604
  H   -1.19082831850560     -1.89368306010186      0.07134518343172
  H   -1.40276044720743     -0.77461821751045      1.43790259003883
  H   -2.38549952476486     -0.59293693006236     -0.02620736855453
  C   -0.67120541341810      1.53581789851733     -0.00909123934727
  H   -1.67258083263655      1.76194545542524     -0.37935868280565
  H   -0.63613893116833      1.76464845126802      1.05876870218818
  H   0.04047424557152      2.17404070224901     -0.53485169021329
  C   2.06423082606191      0.58485573249130     -0.39978271815217
  N   2.85432672064448      1.30395074344852     -0.88567277994906
  C   1.37591330834714     -1.69236104034419     -0.05831158948136
  N   1.59723783337172     -2.82946686990731     -0.24667984625517
