16
Coordinates from ORCA-job run
  C   -0.34424045725785      0.33653162114845     -0.32448944132478
  C   1.16827967727173     -0.00189080977142     -0.21434247453309
  F   -0.48347023555374      0.87376452850934     -1.60575934381014
  H   1.72066110879257      0.93081385424636     -0.38121318249381
  C   -1.21446778883001     -0.89687974113818     -0.23339495080936
  H   -0.95337132202646     -1.60942548710707     -1.01767484672753
  H   -1.10687357342776     -1.38086708444957      0.73962097054428
  H   -2.25859411541125     -0.60764779916181     -0.36548896189087
  C   -0.72063770220033      1.41299987209655      0.67167176222881
  H   -0.08288916713164      2.29098832555762      0.54533559903100
  H   -1.75466452733854      1.71367931064451      0.49353330342584
  H   -0.63377870235079      1.05295970394294      1.69830377902590
  C   1.57427151111922     -0.96179857477480     -1.24572485480578
  N   1.88273199014085     -1.72718712482304     -2.08041765156212
  C   1.49241478935416     -0.51221281982223      1.11950325875655
  N   1.71362851484984     -0.91282777509762      2.20053703494510
