16
Coordinates from ORCA-job run
  C   -0.32814740566440      0.26981515593007     -0.17477779535525
  C   1.03413177673394     -0.41919570665590      0.10888412954882
  F   -0.08896457778531      1.18876456151235     -1.19400390513573
  H   0.88666632615370     -1.15187618559826      0.91228375051184
  C   -1.34389352540464     -0.73342590460204     -0.68078576943006
  H   -2.28148051478102     -0.21533757707721     -0.88935614753614
  H   -1.53447813556901     -1.50992224681984      0.06391933568003
  H   -0.99826086686071     -1.20091363914905     -1.60390536439839
  C   -0.80630032378042      1.03625973895633      1.04117905750676
  H   -1.75233578929666      1.52570855130121      0.80354048242664
  H   -0.96531198566645      0.36705455469334      1.89020536437242
  H   -0.08431363548013      1.80445847588494      1.32206869317162
  C   2.03609370948255      0.55373998510279      0.55702092273799
  N   2.81747316030102      1.34089281537956      0.94084513142485
  C   1.52274028820727     -1.13359727101040     -1.07536121016899
  N   1.88538149941026     -1.72542530784788     -2.02175667535640
