16
Coordinates from ORCA-job run
  C   -0.37196010008101      0.07718988785632     -0.25943641870456
  C   1.06092559620362     -0.29819399352017      0.20561506162539
  F   -0.39172196149204     -0.11798790189127     -1.63857800163514
  H   1.11704814716371     -0.15696001753082      1.29223043652983
  C   -1.39814407095706     -0.85076094300568      0.35740957038558
  H   -2.39044668253412     -0.57324773610279     -0.00214030793267
  H   -1.20605387401767     -1.88514678902082      0.06870965718363
  H   -1.39071395879605     -0.77646820684823      1.44752958012728
  C   -0.65845923938040      1.54034370060943      0.00841740470309
  H   0.05031469761737      2.17619511797784     -0.52406042655699
  H   -1.66351491495109      1.77663344525433     -0.34511425162368
  H   -0.60532536000421      1.76238265442780      1.07697347003720
  C   2.06455829538138      0.57057649191108     -0.41871676938683
  N   2.85188939374615      1.30053917865859     -0.89280119142961
  C   1.36091341369253     -1.70402957076670     -0.08672816633860
  N   1.57069061840886     -2.84106531800894     -0.28830964698394
