16
Coordinates from ORCA-job run
  C   -0.42380824258473      0.06284971023347     -0.39198276722507
  C   1.00791699198136     -0.53763968470379     -0.32459618152050
  F   -0.65590599653477      0.24432077158445     -1.75690256592962
  H   0.99953010041882     -1.45674961897672     -0.92307785580726
  C   -1.44123823357476     -0.93391367406820      0.12187311122828
  H   -1.35397731567368     -1.88132980166820     -0.41502038330213
  H   -1.31523875903701     -1.11590390111542      1.19052962723845
  H   -2.44318010250377     -0.53595835222395     -0.04845293655172
  C   -0.51051443661511      1.41273269752802      0.28400802791591
  H   -0.28871535995813      1.33173058418425      1.35023370431477
  H   -1.52168368431576      1.80661722438382      0.16692797836333
  H   0.18719080189062      2.11598894665842     -0.17381091164934
  C   1.36834136059694     -0.87197225151027      1.05476765786483
  N   1.62273572761682     -1.12218658871872      2.17323474849488
  C   1.99591960807812      0.37453832884135     -0.90915549515863
  N   2.77162754021501      1.10687560957145     -1.39857575827622
