16
Coordinates from ORCA-job run
  C   -0.47843790453991     -0.15989525672456      0.28868620127475
  C   0.98053194787019     -0.66237684862410      0.10576914447389
  F   -0.91428726018102     -0.78954538165375      1.45631636962514
  H   0.94040289956403     -1.75726550494360      0.05466135616223
  C   -0.54579451640539      1.33505319756545      0.50636634137767
  H   -0.16833285442084      1.87496515497469     -0.36463039505413
  H   0.03627610877876      1.62123275465394      1.38398907916389
  H   -1.58464647281716      1.62522313484997      0.67334437828443
  C   -1.35191605810611     -0.64160013229352     -0.85056211951243
  H   -1.28808591739042     -1.72772244067250     -0.94923184480981
  H   -2.38925894624182     -0.37849321712711     -0.63625987445234
  H   -1.06293239598699     -0.17958225234662     -1.79610092373239
  C   1.81874567864169     -0.28968455938209      1.24960044244428
  N   2.47592179256555      0.01724046116346      2.17236182618991
  C   1.55514078089292     -0.15244124101301     -1.14108487148142
  N   1.97567311777654      0.26589213157330     -2.15422510995368
