16
Coordinates from ORCA-job run
  C   0.57020839762905      0.34971117978790      0.38986878751964
  C   -0.57021445189197     -0.34964355030332     -0.38988409739738
  H   0.22250091452902      1.35320597605635      0.66491288726057
  H   -0.22246202548735     -1.35306459871508     -0.66507081519047
  C   1.86264809838541      0.46476061489138     -0.42409362811176
  H   2.64544072969779      0.94299563267069      0.16706606448130
  H   1.69040101497491      1.06294633943494     -1.32058989793074
  H   2.21512479677405     -0.52508229656569     -0.72338204409153
  C   0.81426510297743     -0.38909123643388      1.63141091610141
  N   1.01783165301625     -1.00360131895639      2.61129358494918
  C   -0.81437304153372      0.38927621658029     -1.63131243866630
  N   -1.01790542269899      1.00376849731672     -2.61122327230230
  C   -1.86261769824312     -0.46486507358403      0.42409565531308
  H   -1.69035970419120     -1.06325551543316      1.32036041303218
  H   -2.64543389741560     -0.94289425515327     -0.16711170054500
  H   -2.21505446652196      0.52483338840657      0.72365958557815
