16
Coordinates from ORCA-job run
  C   0.68014873489355      0.61643522853133      0.05065180245424
  C   -0.59263177508729      0.12124101068071     -0.68147800424008
  H   1.01988759128357      1.52770531241339     -0.45496383431822
  H   -0.28395245242151     -0.15298206077043     -1.69791457112259
  C   1.81211175142812     -0.41596015532009      0.01961958022263
  H   1.55707942403208     -1.30582069594882      0.59567711991314
  H   2.72140929322513      0.01050796602770      0.44629573861808
  H   2.02148975398689     -0.70949150850100     -1.01186962441121
  C   0.35569422093684      0.97956620892963      1.43306887718995
  N   0.10115805037399      1.23437456956786      2.55092366265801
  C   -1.54754505053465      1.22684322501542     -0.80246788440000
  N   -2.31417127711121      2.11225847698689     -0.88949166430206
  C   -1.25604755430109     -1.08531220586343     -0.01144865741523
  H   -0.57712581701425     -1.93907811081726      0.00376968260931
  H   -1.54640964972330     -0.84511572611655      1.01320512556587
  H   -2.15209524396688     -1.37517153481535     -0.56257734902183
