16
Coordinates from ORCA-job run
  C   0.81873179363746      0.37309194450087     -0.14908621817877
  C   -0.67541020483184      0.29131476281845     -0.55137337075153
  H   1.39782783752696      0.03782964794197     -1.01855987959854
  H   -0.83904434385843      1.00742946666090     -1.36489388575457
  C   1.17646178923324     -0.49332534471650      1.06197336342424
  H   0.59097840081127     -0.19569646009929      1.93416621092374
  H   0.98785467573847     -1.54696138715681      0.85155521648724
  H   2.23432762557766     -0.38072833721833      1.30477514502910
  C   1.18102438509529      1.77175990784998      0.09923137287813
  N   1.46253765584494      2.89331252873494      0.30419018109446
  C   -1.52171608178410      0.70535178489286      0.57112695604017
  N   -2.19934674560638      1.00098306458807      1.48359062759852
  C   -1.07540664240528     -1.10611269402626     -1.03633009618817
  H   -0.41233678866145     -1.42550461687873     -1.84382421832918
  H   -1.02756630717694     -1.83760062087157     -0.22949384639624
  H   -2.09791704914087     -1.09314364702052     -1.41704755827863
