16
Coordinates from ORCA-job run
  C   0.63826628249843      0.55761128367051     -0.32978062535830
  C   -0.86371026572193      0.18235758548523     -0.25110278199981
  H   0.93704278950186      0.44077011777380     -1.37886580710107
  H   -1.42173397556990      0.92676320814431     -0.83081308243467
  C   1.53642095639582     -0.31411163108010      0.55203197700164
  H   1.24498662438649     -0.22984619596997      1.60056683462994
  H   1.47356137878168     -1.36051542161497      0.25047609976389
  H   2.57628864275651      0.00306157296675      0.45868494061770
  C   0.80445163301617      1.97340662327290      0.01143293805326
  N   0.93180491129161      3.10722580178028      0.28988435454512
  C   -1.32977994405141      0.27042365213652      1.13554284275857
  N   -1.68877147192197      0.30450093153999      2.25326662821454
  C   -1.15099831667648     -1.20730031758260     -0.82899044538858
  H   -0.77657101555332     -1.26867216739467     -1.85392174506462
  H   -0.68401839480560     -1.99294859906777     -0.23417025069193
  H   -2.22623983432796     -1.39272644406022     -0.84524187754569
