17

C	-0.393555	0.050285	-1.483884
C	0.0	0.0	0.0
F	-0.13698	-1.197178	-2.045273
H	1.096647	0.0	0.0
C	-1.843195	0.296841	-1.646044
N	-2.986638	0.533577	-1.770416
C	0.427274	1.075261	-2.244659
H	0.23127	0.964444	-3.313047
H	0.170013	2.091443	-1.942389
H	1.482355	0.888133	-2.029136
C	-0.526706	-1.211956	0.619032
N	-0.973835	-2.154543	1.158671
C	-0.456334	1.237205	0.779084
H	-0.113284	1.149383	1.81086
H	-1.543994	1.347525	0.776251
H	0.00275	2.133661	0.359509
Cl	3.332061	0.0	0.0
