17

C	-0.396419	0.02787	-1.480268
C	0.0	0.0	0.0
F	-0.019749	-1.1825	-2.053062
H	1.096713	0.0	0.0
C	-1.865217	0.128167	-1.638812
N	-3.028382	0.237766	-1.759408
C	0.312303	1.139699	-2.231983
H	1.379189	1.073247	-2.003956
H	-0.068525	2.119556	-1.940425
H	0.146818	1.001915	-3.302346
C	-0.510693	-1.215543	0.628164
N	-0.931933	-2.170004	1.167973
C	-0.468996	1.238781	0.767948
H	-0.163989	1.145306	1.811156
H	0.014986	2.129961	0.366626
H	-1.555047	1.360717	0.728776
Cl	3.325691	0.0	0.0
