17

C	-0.486822	-0.016824	-1.458016
C	0.0	0.0	0.0
F	0.020886	1.115822	-2.086373
H	1.096315	0.0	0.0
C	0.035009	-1.198594	-2.173561
N	0.34738	-2.151087	-2.785318
C	-1.999959	0.021974	-1.611865
H	-2.256468	0.017607	-2.672815
H	-2.458141	-0.84269	-1.128824
H	-2.385909	0.937506	-1.161707
C	-0.49053	-1.196409	0.676201
N	-0.940828	-2.130083	1.230234
C	-0.437597	1.262941	0.749169
H	0.090713	1.295111	1.703263
H	-1.512792	1.294864	0.942075
H	-0.138668	2.138929	0.172629
Cl	3.293558	0.0	0.0
