12

C	0.0	0.0	0.0
C	-0.465224	-0.364542	-1.401287
F	1.381617	0.0	0.0
H	0.407348	-0.621078	-2.0156
H	-0.361751	0.981256	0.279082
H	-1.213069	-1.143102	-1.397153
C	-0.442452	-0.999453	0.982437
N	-0.521217	-1.842922	1.797691
N	-1.099843	0.784	-2.105426
O	-0.740198	1.922302	-1.818239
O	-1.863054	0.506449	-3.024685
F	-2.346858	0.0	0.0
