12

C	0.0	0.0	0.0
C	-0.463628	-0.205269	-1.435673
F	1.381729	0.0	0.0
H	0.416312	-0.299005	-2.082789
H	-0.361045	0.945949	0.383859
H	-1.13481	-1.044905	-1.544562
C	-0.443141	-1.093798	0.876016
N	-0.513355	-2.003382	1.617458
N	-1.207349	0.970015	-1.968888
O	-2.021504	0.753788	-2.858641
O	-0.86387	2.087975	-1.593025
F	-2.335975	0.0	0.0
