12

C	0.0	0.0	0.0
C	-0.297787	-0.118406	-1.512065
F	1.381598	0.0	0.0
H	0.544219	0.392067	-2.004716
H	-0.34538	0.943671	0.417905
H	-0.32111	-1.164576	-1.821005
C	-0.466032	-1.155027	0.774986
N	-0.495702	-2.132616	1.431611
N	-1.525042	0.516062	-2.072545
O	-2.293939	-0.204303	-2.703882
O	-1.554312	1.743788	-2.014208
F	-2.295324	0.0	0.0
