12

C	0.0	0.0	0.0
C	-0.463287	-0.087392	-1.446224
F	1.382654	0.0	0.0
H	0.413315	-0.209232	-2.096913
H	-0.363116	0.909125	0.461165
H	-1.201926	-0.860128	-1.597822
C	-0.441449	-1.16919	0.772451
N	-0.525412	-2.15127	1.412827
N	-1.110029	1.169626	-1.914845
O	-0.765585	2.233342	-1.408868
O	-1.86372	1.066003	-2.87793
F	-2.347915	0.0	0.0
