12

C	0.0	0.0	0.0
C	-0.235392	0.351961	-1.481628
F	1.382656	0.0	0.0
H	0.412811	1.208404	-1.689439
H	-0.367711	0.763415	0.673314
H	0.085969	-0.496507	-2.085524
C	-0.481896	-1.329231	0.3789
N	-0.563117	-2.464833	0.675543
N	-1.566099	0.756968	-2.000172
O	-2.148337	-0.039356	-2.731144
O	-1.881792	1.931999	-1.842192
F	-2.279474	0.0	0.0
