12

C	0.0	0.0	0.0
C	-0.500219	0.057095	-1.425611
F	1.377849	0.0	0.0
H	-1.610661	-0.089809	-1.272626
H	-0.38085	0.881429	0.510935
H	-0.272007	1.020256	-1.879655
C	-0.45935	-1.187988	0.743121
N	-0.634821	-2.140837	1.405777
N	0.128723	-0.957788	-2.293095
O	0.288042	-0.660368	-3.481117
O	0.422509	-2.051208	-1.811724
F	-2.557906	0.0	0.0
