15

C	0.0	0.0	0.0
C	-0.52085	-0.044141	-1.435836
Cl	1.778443	0.0	0.0
H	-1.588399	0.210745	-1.371433
H	-0.288412	0.959212	0.430523
N	-0.506714	-1.159859	0.689516
H	-0.242976	-1.100731	1.666643
H	-1.529252	-1.076743	0.641309
N	-0.230647	-1.287983	-2.066564
H	-0.993651	-1.553881	-2.673671
H	-0.139775	-1.982121	-1.332648
N	0.074181	1.113556	-2.217789
O	0.439425	0.919848	-3.371455
O	0.072218	2.206316	-1.651941
Br	-3.713581	0.0	0.0
