15

C	0.0	0.0	0.0
C	-0.526647	-0.01241	-1.438057
Cl	1.83234	0.0	0.0
H	-1.588803	0.246973	-1.321301
H	-0.306774	0.931545	0.471693
N	-0.517307	-1.122666	0.689558
H	-0.859801	-0.910597	1.612197
H	0.091592	-1.925624	0.67384
N	-0.411366	-1.229977	-2.165184
H	-1.119933	-1.854243	-1.803374
H	0.508977	-1.64028	-2.064232
N	0.128467	1.117282	-2.181068
O	0.851442	0.866131	-3.140346
O	-0.078265	2.242244	-1.725876
Br	-3.770707	0.0	0.0
