15

C	0.0	0.0	0.0
C	-0.513746	0.426502	-1.372723
Cl	1.806913	0.0	0.0
H	-1.581971	0.646345	-1.229455
H	-0.273795	0.770604	0.721232
N	-0.504872	-1.317775	0.273552
H	-0.255529	-1.57667	1.221466
H	-1.528142	-1.233352	0.234076
N	-0.227669	-0.543579	-2.375809
H	-0.10427	-1.434084	-1.908346
H	-1.002831	-0.618752	-3.017809
N	0.078375	1.776926	-1.738605
O	0.114407	2.617638	-0.840636
O	0.394955	1.977826	-2.905119
Br	-3.701199	0.0	0.0
