16

C	-0.621161	-0.02133	-1.410301
C	0.0	0.0	0.0
Cl	0.085358	1.268023	-2.389741
H	1.093723	0.0	0.0
N	-0.223448	-1.353445	-2.083656
O	0.762555	-1.922467	-1.62844
O	-0.903008	-1.72249	-3.033503
N	-2.040032	0.060105	-1.457207
H	-2.326732	1.010883	-1.260974
H	-2.393498	-0.558473	-0.73289
N	-0.54622	-1.161889	0.724643
H	-0.713134	-0.913636	1.691283
H	0.184896	-1.865228	0.716886
C	-0.469606	1.2326	0.632666
N	-0.889667	2.191847	1.164875
Br	3.495088	0.0	0.0
