16

C	-0.296067	0.007199	-1.503425
C	0.0	0.0	0.0
Cl	-0.018936	-1.650874	-2.18689
H	1.096965	0.0	0.0
N	-1.771973	0.263728	-1.79994
O	-2.576581	0.034825	-0.901525
O	-2.051075	0.661054	-2.927756
N	0.448892	1.02745	-2.105791
H	0.348332	1.026144	-3.112177
H	1.429601	0.951518	-1.828439
N	-0.47623	-1.154554	0.722789
H	-1.394739	-0.989404	1.106682
H	0.181092	-1.364583	1.461657
C	-0.420473	1.290444	0.567103
N	-0.767088	2.281907	1.095084
Br	3.410481	0.0	0.0
