16

C	-0.646548	-0.033935	-1.40137
C	0.0	0.0	0.0
Cl	0.012479	1.2809	-2.381567
H	1.091932	0.0	0.0
N	-0.229567	-1.373029	-2.027226
O	0.952902	-1.501981	-2.302371
O	-1.106462	-2.221308	-2.15316
N	-2.071611	0.016885	-1.43477
H	-2.428872	-0.78375	-0.926028
H	-2.379058	0.878033	-0.998671
N	-0.438071	-1.199199	0.721931
H	-1.047314	-0.974283	1.496388
H	0.390325	-1.65442	1.088018
C	-0.460542	1.221918	0.663794
N	-0.913024	2.154977	1.217535
Br	3.422307	0.0	0.0
