16

C	-0.233751	0.000705	-1.531332
C	0.0	0.0	0.0
Cl	-0.039133	-1.725827	-2.156559
H	1.097916	0.0	0.0
N	-1.680515	0.305413	-1.913144
O	-2.548615	-0.059193	-1.125124
O	-1.875058	0.85709	-2.989206
N	0.6007	0.936625	-2.11654
H	0.531571	0.969158	-3.123656
H	1.562433	0.831686	-1.785817
N	-0.482902	-1.088056	0.806277
H	-1.416512	-1.354404	0.525796
H	0.146912	-1.872191	0.707886
C	-0.476547	1.286188	0.520196
N	-0.889056	2.299261	0.948073
Br	3.422554	0.0	0.0
