16

C	-0.574097	-0.030865	-1.416414
C	0.0	0.0	0.0
Cl	0.085409	1.292303	-2.390595
H	1.093686	0.0	0.0
N	-0.081	-1.330648	-2.119067
O	-0.678824	-1.620809	-3.153562
O	0.825297	-1.972625	-1.606881
N	-1.982964	0.011612	-1.39515
H	-2.289535	-0.694305	-0.731689
H	-2.351197	-0.181626	-2.318234
N	-0.533334	-1.174277	0.720315
H	0.21609	-1.858494	0.737326
H	-0.728644	-0.918367	1.680095
C	-0.45659	1.228641	0.650252
N	-0.814152	2.178827	1.240335
Br	3.459659	0.0	0.0
