15

C	0.0	0.0	0.0
C	-0.534213	0.383404	-1.38175
Cl	1.804726	0.0	0.0
H	-0.180777	1.394374	-1.620757
H	-1.623507	0.415625	-1.258873
C	-0.364499	1.045464	0.963696
N	-0.594596	1.889822	1.747278
C	-0.502089	-1.360003	0.449815
H	-1.594954	-1.311997	0.482164
H	-0.106661	-1.608181	1.436422
H	-0.182669	-2.10276	-0.281056
N	-0.170034	-0.61601	-2.375341
H	-0.945796	-0.762127	-3.00597
H	0.633786	-0.316789	-2.909715
Br	-3.970378	0.0	0.0
