15

C	0.0	0.0	0.0
C	-0.550305	0.323134	-1.390029
Cl	1.793021	0.0	0.0
H	0.04749	-0.240928	-2.111568
H	-1.582578	-0.045541	-1.398624
C	-0.385176	1.028473	0.973194
N	-0.626501	1.863593	1.762664
C	-0.482761	-1.3704	0.4557
H	-0.058474	-1.622697	1.429381
H	-1.574921	-1.341929	0.513356
H	-0.166264	-2.121523	-0.273215
N	-0.451203	1.74981	-1.683971
H	-0.560677	1.879754	-2.682605
H	-1.251225	2.197907	-1.246839
Br	-3.894049	0.0	0.0
