15

C	0.0	0.0	0.0
C	-0.498926	0.344311	-1.414268
Cl	1.801424	0.0	0.0
H	-0.031024	-0.374202	-2.095886
H	-1.579516	0.170187	-1.400453
C	-0.383525	1.050603	0.947261
N	-0.614084	1.911456	1.712768
C	-0.499227	-1.361703	0.448152
H	-1.592569	-1.321508	0.478957
H	-0.172409	-2.117767	-0.270837
H	-0.102993	-1.61539	1.433489
N	-0.250472	1.695308	-1.8759
H	-0.878211	2.325947	-1.392479
H	0.701002	1.973633	-1.669359
Br	-3.894496	0.0	0.0
