15

C	0.0	0.0	0.0
C	-0.50395	0.407567	-1.394817
Cl	1.801275	0.0	0.0
H	-1.579607	0.209514	-1.391538
H	-0.01961	-0.261538	-2.113277
C	-0.39438	0.994507	1.001078
N	-0.625365	1.804468	1.820123
C	-0.495894	-1.387126	0.378374
H	-0.17955	-2.100345	-0.387813
H	-1.588215	-1.346482	0.417377
H	-0.092185	-1.695653	1.344855
N	-0.287999	1.787636	-1.782824
H	-0.941321	2.36897	-1.273712
H	0.649314	2.08144	-1.539969
Br	-3.878999	0.0	0.0
