15

C	0.0	0.0	0.0
C	-0.509838	0.346289	-1.414149
Cl	1.802371	0.0	0.0
H	-0.035211	1.283174	-1.72076
H	-1.587016	0.511515	-1.306693
C	-0.368274	1.081508	0.91974
N	-0.588266	1.963511	1.663987
C	-0.509632	-1.335941	0.508254
H	-0.153214	-1.520521	1.523304
H	-1.603912	-1.295861	0.496735
H	-0.152209	-2.13684	-0.141484
N	-0.293151	-0.667078	-2.427162
H	0.649219	-1.035024	-2.378793
H	-0.950425	-1.424118	-2.293504
Br	-3.909893	0.0	0.0
