16

C	-0.441608	0.132404	-1.466237
C	0.0	0.0	0.0
Br	-0.328384	-1.623435	-2.335929
H	1.090797	0.0	0.0
H	-1.501256	0.399601	-1.553938
C	0.485265	1.097061	-2.194539
H	0.261407	2.122794	-1.89289
H	1.506455	0.864208	-1.876119
H	0.373086	1.018337	-3.277412
N	-0.543732	-1.108673	0.703482
H	-1.488775	-0.921533	1.013288
H	0.045941	-1.300006	1.502307
N	-0.460823	1.319159	0.63162
O	-1.557909	1.326745	1.208405
O	0.256879	2.310972	0.528017
F	2.620615	0.0	0.0
