16

C	-0.252551	-0.044859	-1.489067
C	0.0	0.0	0.0
Br	-2.185115	-0.31857	-1.917282
H	1.094085	0.0	0.0
H	-0.024215	0.927044	-1.918868
C	0.592406	-1.136394	-2.110871
H	0.252077	-2.124648	-1.79461
H	1.603506	-0.964188	-1.723504
H	0.569252	-1.090339	-3.200649
N	-0.43175	-1.111852	0.771518
H	0.339103	-1.751177	0.888454
H	-1.247594	-1.57332	0.393186
N	-0.513473	1.297166	0.554804
O	-1.127292	1.305293	1.617942
O	-0.255275	2.312662	-0.098121
F	2.591482	0.0	0.0
