16

C	-0.310672	-0.046753	-1.469871
C	0.0	0.0	0.0
Br	-2.270408	-0.223453	-1.812103
H	1.09946	0.0	0.0
H	-0.057966	0.911608	-1.917109
C	0.457027	-1.183318	-2.107331
H	1.493077	-1.045677	-1.775667
H	0.38315	-1.158518	-3.196758
H	0.094642	-2.14095	-1.733592
N	-0.459586	-1.133174	0.727316
H	0.110338	-1.236128	1.556132
H	-1.426295	-1.024899	1.008342
N	-0.449817	1.311674	0.583775
O	-0.256961	2.334821	-0.072908
O	-0.94635	1.305472	1.714321
F	2.575902	0.0	0.0
