16

C	-0.611966	-0.06835	-1.395991
C	0.0	0.0	0.0
Br	0.323175	1.008523	-2.752106
H	1.091274	0.0	0.0
H	-0.431574	-1.094083	-1.714677
C	-2.098773	0.251857	-1.447347
H	-2.62698	-0.364247	-0.709462
H	-2.270942	1.307583	-1.22317
H	-2.511669	0.04218	-2.43616
N	-0.410034	-1.173545	0.737269
H	-1.159827	-0.941303	1.38042
H	0.393611	-1.455355	1.286643
N	-0.439221	1.255377	0.685214
O	-0.975285	1.180515	1.8014
O	-0.234696	2.318217	0.102263
F	2.549269	0.0	0.0
