16

C	-0.565433	-0.059234	-1.419119
C	0.0	0.0	0.0
Br	0.315771	1.172035	-2.67013
H	1.090789	0.0	0.0
H	-0.285264	-1.043081	-1.798349
C	-2.067556	0.159845	-1.519286
H	-2.316668	1.193474	-1.273482
H	-2.424223	-0.048383	-2.530309
H	-2.599729	-0.488283	-0.815778
N	-0.351292	-1.160092	0.772931
H	0.450953	-1.775213	0.761408
H	-1.186805	-1.642752	0.473532
N	-0.568944	1.221645	0.655846
O	-0.064338	2.303615	0.355185
O	-1.548102	1.100428	1.398938
F	2.572337	0.0	0.0
