13
Coordinates from ORCA-job run
  C   -0.21633745681615     -0.33010800566488      0.99926474270179
  C   0.82278020193664      0.15359645071431     -0.00993454205557
  F   -0.30428387169431      0.51146791841588      2.04502925481021
  H   1.63281174280567      0.62068407623663      0.56153410728718
  H   0.03606285303596     -1.33198614414191      1.35665465713954
  N   -1.57421344282724     -0.46459398706156      0.33919856396745
  O   -1.53988730380290     -0.92424623054736     -0.79640738815986
  O   -2.55112148963869     -0.16433396049875      1.00135342401959
  N   0.28115631512021      1.27587828608300     -0.88576393592538
  O   0.83302267813844      1.44071352538251     -1.96202239667050
  O   -0.61092291738537      1.94989949371046     -0.38964727765181
  C   1.35996384913002     -0.92135650800887     -0.83034294976395
  N   1.82996884199774     -1.81461491461945     -1.42991625969870
