13
Coordinates from ORCA-job run
  C   -0.85569372667262      0.12957878099692      0.32482153423162
  C   0.61282066324557      0.07122150765541     -0.08902801422891
  F   -1.66405017738578      0.41945881617622     -0.70111213488196
  H   1.19408769477574     -0.42023033277046      0.69220949800487
  H   -1.01241286194998      0.82926707857353      1.14840643949100
  N   -1.21535536777203     -1.24539112387254      0.87087985461043
  O   -0.57803006564436     -1.57042620906261      1.86645787652570
  O   -2.08382220863325     -1.87815279177369      0.29358482884179
  N   1.16829658415063      1.47927320833654     -0.19319352356979
  O   2.25041275677309      1.66746011840908      0.34862636743203
  O   0.48688828237208      2.29185581856282     -0.80453008079343
  C   0.77811530862840     -0.60614482147871     -1.36808869805015
  N   0.91874311811253     -1.16877004975250     -2.38903394761318
