13
Coordinates from ORCA-job run
  C   -0.42648672417390     -0.79045272604406      0.35446599863702
  C   0.70630408402881      0.17022596821632      0.03051746268366
  F   -0.02208296612095     -1.59748443108528      1.36973194160060
  H   0.91914917975157      0.79058811346806      0.90308555288796
  H   -0.76303785827022     -1.38408446616735     -0.49226513097201
  N   -1.62252991859774     -0.02034614962268      0.85622471137788
  O   -1.40095235617662      1.04396318849394      1.42720031103579
  O   -2.70810273638718     -0.56297672810554      0.69276803883165
  N   0.29033580406140      1.12628043814759     -1.06823878610677
  O   1.04780995354876      2.06185428689732     -1.27151875781590
  O   -0.75610052340003      0.86984626642947     -1.65470386013929
  C   1.89468491606395     -0.55332898138222     -0.39947783658569
  N   2.84100914567213     -1.15508477924557     -0.74778964543488
