13
Coordinates from ORCA-job run
  C   -0.43676959990653     -0.82677712385913      0.24087120863339
  C   0.64986853511044      0.23729224104918      0.07867761415444
  F   0.01299008561663     -1.82996031155103      1.01873521776688
  H   0.73080333932963      0.85968533588023      0.97186250067119
  H   -0.77110092905182     -1.20671046627441     -0.72532102582003
  N   -1.63857457955108     -0.19510717468016      0.90923871768251
  O   -2.21314412154930     -0.83893051209662      1.77105911713675
  O   -1.93362700429663      0.91511001552480      0.47674971378489
  N   0.30902455224295      1.17694756395334     -1.06548857237742
  O   -0.09817370539888      0.64836239288323     -2.09116391986445
  O   0.51216911589399      2.36380289891582     -0.86409670539137
  C   1.92571690770985     -0.39638364862587     -0.23271696095209
  N   2.95181740385074     -0.90633121111938     -0.48940690542470
