13
Coordinates from ORCA-job run
  C   -0.25119161070020     -0.34773124217754      0.98561761699858
  C   0.82442355738505      0.13276597011646      0.01459786759462
  F   -0.34778229505729      0.47629062621244      2.04480790908299
  H   1.63350941870806      0.56056945721551      0.61736744738462
  H   -0.02894763991906     -1.36134303905985      1.32976243602625
  N   -1.59416947728822     -0.44078471569985      0.28919284080987
  O   -1.54080500483120     -0.88772616560404     -0.85076867956909
  O   -2.58064799154198     -0.12413227906215      0.92888258427403
  N   0.33871299664226      1.29396908802348     -0.84345178277438
  O   -0.57361135098588      1.95882595329365     -0.37250815994494
  O   0.95104669762674      1.49303653339179     -1.88066328372584
  C   1.35302725914542     -0.93313951953107     -0.82310985560571
  N   1.81443544081629     -1.82060066711883     -1.43772694055100
