13
Coordinates from ORCA-job run
  C   -0.80696536165691      0.17076786900791      0.40006152642750
  C   0.63378519142095      0.09496616175311     -0.08292177552402
  F   -1.62603021705768      0.50613610892351     -0.61143966630618
  H   1.27313632856881     -0.20311964904911      0.75189533543349
  H   -0.91031791049993      0.87029968200628      1.22904927701523
  N   -1.17960841430077     -1.19815588232841      0.92997691671978
  O   -0.50249174613316     -1.55792789570781      1.88738741048899
  O   -2.08865465791817     -1.79888089942552      0.38200767364848
  N   1.07500627613135      1.50497998926277     -0.45710799398480
  O   1.61306551165874      1.66916596848866     -1.54065318008944
  O   0.86621457108551      2.34707356036948      0.40711587529397
  C   0.77899902026685     -0.81494608037730     -1.20885042277345
  N   0.87386140843439     -1.59135893292357     -2.08452097634955
