13
Coordinates from ORCA-job run
  C   -0.89546293052359      0.01213692462889      0.20143513342219
  C   0.59231616462319      0.25571591216846     -0.00376812119633
  F   -1.51569290761733     -0.14013106915446     -0.98114287788539
  H   1.07373566203068      0.35313992309635      0.97253253618656
  H   -1.35222067906734      0.81689136760441      0.77678501967000
  N   -1.03787372123911     -1.25267589922706      1.02225359699180
  O   -1.62129718041923     -2.20004006053129      0.52260243010818
  O   -0.53284155284631     -1.17685880757242      2.13751104460922
  N   0.75242818273316      1.61175352934140     -0.67991449635555
  O   1.45835944548403      1.67871264924552     -1.67373374647576
  O   0.16220633932015      2.52783240178383     -0.12108862671492
  C   1.21022941554293     -0.79946242387790     -0.79217551987337
  N   1.70511376197876     -1.68701444750572     -1.38029637248664
