13
Coordinates from ORCA-job run
  C   -0.27249780798941     -0.31541214361454      0.98377214040099
  C   0.83888905555219      0.16173448653214      0.05099360693612
  F   -0.56992489570729      0.68128252486585      1.84083152722543
  H   1.66843302319384      0.50342318507242      0.67480467466001
  H   0.02678654522634     -1.21451014137782      1.52440287541735
  N   -1.51544632698028     -0.69167540229033      0.20355505711938
  O   -2.46936112937211      0.06714720722005      0.25605952051852
  O   -1.41599940286988     -1.74966006825906     -0.40523133635573
  N   0.35507264534977      1.39367201386486     -0.69381872308623
  O   -0.44965504361154      1.19436487408826     -1.59487760647716
  O   0.79977966852924      2.46546502186268     -0.30538344248396
  C   1.28713715863680     -0.84763687482047     -0.89554538082165
  N   1.71478651004232     -1.64919468314405     -1.63956291305307
