13
Coordinates from ORCA-job run
  C   -0.85675432156329      0.07752516233854      0.31688165978146
  C   0.61886543829343      0.18307962859944     -0.03862623956763
  F   -1.61693610803160      0.21157497635898     -0.78340969375709
  H   1.21359389537562      0.04684183744405      0.86818964009106
  H   -1.13590688143862      0.81260364482917      1.07118930870664
  N   -1.07834855572480     -1.28916012849832      0.93051112194190
  O   -0.44812968348874     -1.47314497458092      1.96664305547375
  O   -1.83851667138304     -2.05701572229067      0.36476288147957
  N   0.88718688158058      1.61091592259024     -0.49771184319736
  O   0.48078454434898      2.47446515292706      0.26961286385861
  O   1.49492783150824      1.77234159439836     -1.54422129767213
  C   0.99678712034815     -0.77680073001788     -1.06474701377011
  N   1.28144651017509     -1.59422636409805     -1.85807444336867
