13
Coordinates from ORCA-job run
  C   -0.29540151799780     -0.31861975743011      0.97841310972924
  C   0.84138815795954      0.15412908695330      0.07376647247468
  F   -0.59922675066137      0.66779078824492      1.84419027655857
  H   1.65522187235089      0.49680529095042      0.71736153895639
  H   -0.02340492133257     -1.23153436831218      1.50997945377818
  N   -1.52283715942362     -0.65960479284838      0.15871718892537
  O   -2.44417266061447      0.14081942072057      0.16151006735878
  O   -1.44512681868993     -1.72927516195527     -0.43279563025020
  N   0.37734252708455      1.38407409037276     -0.68727073233884
  O   -0.33619029959140      1.17904157439615     -1.66105992253804
  O   0.73889843762325      2.46113974025378     -0.23253880855225
  C   1.30789761372638     -0.86425481855040     -0.85395720142396
  N   1.74661151956657     -1.67951109279558     -1.57631581267792
