13
Coordinates from ORCA-job run
  C   -0.33535146851100     -0.33809166232741      0.95689731756899
  C   0.84251381200024      0.11735172576695      0.09770601884436
  F   -0.62645253770517      0.63938111965882      1.83811124853848
  H   1.65564164273450      0.39420937025549      0.77297502475684
  H   -0.10730032923975     -1.27070312900322      1.47503641318530
  N   -1.55492124867529     -0.62141431398133      0.10334785828139
  O   -2.47136603915497      0.18311169659927      0.14002637634886
  O   -1.47760395329129     -1.65972397718709     -0.54120028208879
  N   0.45567878068137      1.39863019160484     -0.62054800531080
  O   0.93114700432003      2.43197438409806     -0.16931133200304
  O   -0.31141106069308      1.27298623818307     -1.56662833757537
  C   1.28758503927420     -0.87742202864190     -0.86562574172253
  N   1.71184035826021     -1.67028961502557     -1.62078655882370
