13
Coordinates from ORCA-job run
  C   -0.90564192921571      0.02689633073451      0.13620098824324
  C   0.59415998798473      0.25639584664974      0.01805553453408
  F   -1.43954708244213     -0.22779299007090     -1.07062869649696
  H   1.00485696466774      0.43683286167460      1.01472763830668
  H   -1.40095878804686      0.87534098010834      0.60733801732464
  N   -1.10924340445947     -1.16373346032964      1.04990914378424
  O   -0.70635632768029     -0.98108547892791      2.19407576684326
  O   -1.63531708708746     -2.16154387724842      0.58631138797390
  N   0.80448473578831      1.55121855686409     -0.75674052049488
  O   1.56523444381421      1.53262958050135     -1.71162819310211
  O   0.19065691088631      2.51227488786791     -0.31047224139118
  C   1.26049701035362     -0.85981228325541     -0.63507837592311
  N   1.77617456543699     -1.79562095456826     -1.12207044960181
