13
Coordinates from ORCA-job run
  C   -0.20283717174486     -0.34368307099960      0.99739420176167
  C   0.82346830878109      0.14608101432035     -0.02150323935266
  F   -0.26628564905398      0.48377718524546      2.05615150919497
  H   1.64933254335976      0.59327677432552      0.54317908037305
  H   0.04733176222280     -1.35247818018740      1.33628497957706
  N   -1.57284751769478     -0.45852074655010      0.35893418610007
  O   -2.53590418538006     -0.16245796450773      1.04308689442989
  O   -1.56183389227842     -0.90076859722475     -0.78405481594788
  N   0.28055378708135      1.28978825340654     -0.86843189007275
  O   -0.60663668474842      1.95589377542734     -0.35338576750770
  O   0.82750762369389      1.47582342461532     -1.94380379421058
  C   1.33403659615825     -0.92008541934594     -0.87012739465321
  N   1.78311447960337     -1.80764644852501     -1.49372394969194
