13
Coordinates from ORCA-job run
  C   -0.37078994466847     -0.79403737215107      0.43207357887026
  C   0.69300286817370      0.24865241130450      0.10055714073247
  F   -0.02737890306133     -1.41367743380146      1.58066991458484
  H   0.72881850118488      0.99121073764054      0.90045829981220
  H   -0.53257796786488     -1.51227143269191     -0.37071035385366
  N   -1.66843734074872     -0.05541700806819      0.65055584643070
  O   -2.51777033337402     -0.18513307491784     -0.22622899821615
  O   -1.73541730257161      0.62156103429942      1.66886964004806
  N   0.25355583122107      0.96291322648117     -1.15943712077781
  O   0.27118214663747      0.29603226669338     -2.18678402690353
  O   -0.11090606368311      2.12460635945843     -1.02383394032931
  C   1.98610571026118     -0.38377085136851     -0.10785284789802
  N   3.03061279849384     -0.89866886287845     -0.25733713250006
