13
Coordinates from ORCA-job run
  C   -0.43720701131228     -0.71596689903182      0.47601329153165
  C   0.65264988514049      0.24488210692581      0.00147157413424
  F   0.01342510916677     -1.44693176856775      1.51436223898877
  H   0.74708346624201      1.09959278727355      0.67367304831884
  H   -0.78034926039706     -1.36376767329929     -0.33158983416345
  N   -1.63384853102038      0.08887392728262      0.93638817059282
  O   -1.88227556596620      1.07794476429840      0.25300339415909
  O   -2.25508223997133     -0.32887952078980      1.89940772490303
  N   0.30602414847282      0.81552089966200     -1.36325026922270
  O   -0.15879438331886      0.02674954202737     -2.17512251159550
  O   0.56341830570314      1.99702411685855     -1.53032354485803
  C   1.92195504283134     -0.46209533934168     -0.12412128062023
  N   2.94300103442955     -1.03194694329795     -0.23191200216853
