13
Coordinates from ORCA-job run
  C   -0.37117621782567     -0.75163983139933      0.49816360181930
  C   0.69829289100533      0.24713738319503      0.06983646083666
  F   -0.01645310339995     -1.28216025603641      1.68857219887046
  H   0.76094748893697      1.04662040105669      0.81058760119211
  H   -0.55566199157102     -1.52976686270276     -0.24082329984424
  N   -1.65834859669853      0.01308903474126      0.68297160751628
  O   -2.57528113429417     -0.26687488885234     -0.08349993059212
  O   -1.65714165359895      0.84992285875282      1.57858073232331
  N   0.24527800157261      0.87339716176683     -1.23224697320288
  O   -0.00449491350388      2.07226227336234     -1.20258502859517
  O   0.14651661302056      0.10891741076720     -2.18481287157408
  C   1.97728529099770     -0.41909517746042     -0.12112364405577
  N   3.00823732535899     -0.96280950719091     -0.26362045469386
