13
Coordinates from ORCA-job run
  C   -0.39496138023890     -0.79234015108213      0.40348253404827
  C   0.69874634882930      0.22746049359880      0.10982503157785
  F   -0.07578425298018     -1.45323041993291      1.53891040717187
  H   0.75637119029776      0.94130279217191      0.93332951248206
  H   -0.57408154527259     -1.48431162734666     -0.41748210113925
  N   -1.67711294877031     -0.03484443825244      0.64568657727567
  O   -2.61512341305009     -0.28813263092067     -0.10432632604703
  O   -1.65543704329741      0.76471087647186      1.57556714452070
  N   0.29290999160180      1.00085600160560     -1.12630744980105
  O   0.15194443123650      2.21023622803866     -0.99389259687756
  O   0.12581390918238      0.33237384300452     -2.14007741672385
  C   1.97123745794148     -0.43805388427099     -0.12352965861192
  N   2.99547725452027     -0.98402708308556     -0.30118565787577
