13
Coordinates from ORCA-job run
  C   -0.86475587734787      0.01001450991719      0.30348310429589
  C   0.59305936643699      0.25082571090128     -0.05917130071527
  F   -1.61735547247120     -0.08119473242037     -0.80642659556484
  H   1.18483567043500      0.29756728070480      0.85847963878642
  H   -1.24289326412883      0.79015409824472      0.96358789376685
  N   -0.93039966664181     -1.29086718523378      1.07652672995373
  O   -1.58215799187550     -2.20759839125481      0.60497850600879
  O   -0.30025346231652     -1.27207684329831      2.12875229629743
  N   0.69452377458878      1.63602349671254     -0.68642599329918
  O   1.29401632016808      1.74415684205737     -1.74443694079244
  O   0.17575779942769      2.52907842187754     -0.02848489359262
  C   1.10094316569675     -0.77104702465569     -0.96175606328573
  N   1.49667963802842     -1.63603618355248     -1.65010638185903
