13
Coordinates from ORCA-job run
  C   -0.84872978261977      0.05915047397552      0.34116286194621
  C   0.61398225885365      0.19543319597461     -0.05496783373147
  F   -1.64213189117998      0.18371468744432     -0.73650690036277
  H   1.23626297770226      0.06665163340281      0.83422528790754
  H   -1.12087928020000      0.78465494903516      1.10720406290438
  N   -1.02604827731428     -1.31479571964686      0.95322408423101
  O   -1.78625120688190     -2.09485973712954      0.40455338052066
  O   -0.36357698547549     -1.49130537968681      1.97032180559615
  N   0.84121496002548      1.63079003596923     -0.51334628875033
  O   1.41546872891406      1.80961863235237     -1.57581916894879
  O   0.44028251467851      2.48215093090755      0.27027463504769
  C   0.98142241824483     -0.75140472215840     -1.09682174708667
  N   1.25998356525263     -1.55879898043995     -1.90250417927358
