13
Coordinates from ORCA-job run
  C   -0.42767332001497     -0.71970466866515      0.47775892570495
  C   0.64869675492132      0.25850056712113      0.00935670353620
  F   0.02146189629601     -1.42702676156767      1.53350403488251
  H   0.71738606475912      1.12080731901802      0.67491961004375
  H   -0.74251892178373     -1.38588290380634     -0.32629624478793
  N   -1.65019134870020      0.06222851038244      0.90892654512280
  O   -2.29279782621056     -0.37784244838692      1.84778125919565
  O   -1.89517094779562      1.05568912571614      0.23067019258031
  N   0.30790778210986      0.81057647685883     -1.36455198027797
  O   -0.14132187436513      0.00840955109984     -2.17216077799288
  O   0.55395383167652      1.99293460203047     -1.54205525958347
  C   1.93324609423471     -0.42401553837000     -0.09432661394554
  N   2.96702181487266     -0.97367383143081     -0.18452639447837
