13
Coordinates from ORCA-job run
  C   -0.34173531321643     -0.34491153948359      0.95250128329719
  C   0.83990660337454      0.12785066291269      0.10769019439448
  F   -0.65522821805690      0.62614403206134      1.83296469565720
  H   1.64128127921817      0.41466627628208      0.79273910065689
  H   -0.10777342077441     -1.27623560708830      1.47030066045360
  N   -1.54739473178161     -0.64072323951278      0.08394637418907
  O   -2.47236860398447      0.15446235916023      0.10893261321018
  O   -1.45073571130431     -1.67735735258236     -0.56072831830684
  N   0.44342948842407      1.40476168700044     -0.61225601606751
  O   0.89269450729919      2.44438387839449     -0.14843844369198
  O   -0.30565549787666      1.27020221085138     -1.57152502145724
  C   1.30940387398197     -0.85921163797141     -0.85191331689146
  N   1.75317574469685     -1.64503173002422     -1.60321380544358
