13
Coordinates from ORCA-job run
  C   -0.29782402194400     -0.32311067940892      0.97234203734932
  C   0.84238821391539      0.16307505880824      0.07865506352419
  F   -0.61526721774477      0.66077562254035      1.83675972022809
  H   1.64853916659605      0.50643842081967      0.73140339671492
  H   -0.01893434827296     -1.23287937005619      1.50584834419656
  N   -1.51867700335590     -0.67664857891523      0.14829581707409
  O   -2.45482039598584      0.10605744493104      0.16090151697998
  O   -1.42163089254396     -1.73873297089589     -0.45351284625061
  N   0.37839870055821      1.39560944327927     -0.67773014801607
  O   0.77173854756946      2.47021240236799     -0.24400032911800
  O   -0.36308042912100      1.19429758330553     -1.63112243734164
  C   1.32177929150087     -0.84505469276547     -0.85348893326200
  N   1.72839038882845     -1.67803968401040     -1.57435120207884
