13
Coordinates from ORCA-job run
  C   -0.89790088288264     -0.00348237371934      0.18282456075839
  C   0.58493605251697      0.27574345020609     -0.01288360247536
  F   -1.48611454622664     -0.27310507933357     -0.99510756851332
  H   1.04183114506465      0.46724546321969      0.96133968124049
  H   -1.39509078982599      0.82770287125630      0.68184957341083
  N   -1.01568788811034     -1.20196300983779      1.10166111735372
  O   -0.53796085043204     -1.01826413331548      2.21634737527370
  O   -1.55804577724624     -2.20572607553823      0.67063350627834
  N   0.71476951442259      1.57838905845889     -0.79279489591073
  O   1.44827516634385      1.59219228218170     -1.76868943017106
  O   0.07447330868446      2.51307129052621     -0.32792813241393
  C   1.25369249634431     -0.81679958328922     -0.70272067017466
  N   1.77482305134706     -1.73500416081524     -1.21653151465640
