13
Coordinates from ORCA-job run
  C   -0.90909144166540     -0.09057366614093      0.07773398504416
  C   0.55282504666543      0.33075349165923      0.05373681456997
  F   -1.32851648596071     -0.40747658435923     -1.15917056796360
  H   0.87312489959260      0.55972625349881      1.07328479020812
  H   -1.53792788170443      0.68625479605173      0.51176770239028
  N   -1.01664928894936     -1.30072999534749      0.98202484239943
  O   -1.40843115715998     -2.34855056358506      0.49614245643714
  O   -0.68848498946914     -1.08007557513996      2.14315311338957
  N   0.64683119638696      1.64403366734676     -0.71320056407530
  O   -0.13030484525961      2.51005485048788     -0.33155329889837
  O   1.48486605770336      1.73388920041894     -1.59651256875050
  C   1.39882732370136     -0.68900888713338     -0.54726557626471
  N   2.06193156611891     -1.55029698775730     -0.99114112848620
