13
Coordinates from ORCA-job run
  C   -0.42255604048166     -0.73032890861209      0.47029195807298
  C   0.70551385917382      0.17412312916872      0.00135730622426
  F   -0.01097134322186     -1.37570415631101      1.59287141545755
  H   0.92210782988987      0.91781512336446      0.77066003251110
  H   -0.76109755390951     -1.44449358842426     -0.27678014125846
  N   -1.61850332033699      0.10372548437762      0.85750551725875
  O   -1.39575174519874      1.23896592045052      1.26974262149394
  O   -2.70451810367348     -0.45641811891327      0.77552759040980
  N   0.28166526676988      0.95631666478755     -1.22493673334109
  O   -0.76606157881376      0.61353044551352     -1.76291314736104
  O   1.03613228037982      1.85261536351495     -1.56785979217576
  C   1.89406958442502     -0.60239178800805     -0.32315052081885
  N   2.84097086499760     -1.24675557090866     -0.58231610647318
