13
Coordinates from ORCA-job run
  C   -0.27149199242363     -0.32601696393420      0.98129670950737
  C   0.84008174124240      0.15474924203995      0.05073010564118
  F   -0.55825162171635      0.66136005127586      1.85274075466171
  H   1.67416333849677      0.48382066112847      0.67509420334644
  H   0.02260274539724     -1.23453319151257      1.50884486439985
  N   -1.51981570162204     -0.68181034214522      0.20001127873792
  O   -2.46644777808303      0.08514621791179      0.26469872274826
  O   -1.43150224759639     -1.73262294717028     -0.42244284910551
  N   0.36289732488789      1.39866378992968     -0.67853187604118
  O   0.81540220415779      2.46279557175868     -0.27802838584794
  O   -0.44466228844785      1.21560952144085     -1.58053237489086
  C   1.27849019254770     -0.84664435982787     -0.90898004013873
  N   1.69753408315950     -1.64151725089514     -1.66490111301852
