13
Coordinates from ORCA-job run
  C   -0.39510703493224     -0.76234722175277      0.46748087007500
  C   0.71564550334811      0.19784145383100      0.04937463397617
  F   -0.01545384738853     -1.39913468844878      1.59441490573595
  H   0.86406318041402      0.93992434842252      0.83678513340478
  H   -0.66576438741696     -1.47095382329676     -0.31437720631210
  N   -1.61651685578058      0.07144877345895      0.76728364380461
  O   -1.58303246442501      0.72225748035311      1.80362173369625
  O   -2.50760334885425      0.03988258591453     -0.07635420255957
  N   0.23895824182705      0.93565032000509     -1.18365814481346
  O   -0.07105126477269      2.10988720369553     -1.02260018729236
  O   0.16918779193289      0.27412437474488     -2.21178333854585
  C   1.93972532436803     -0.53094699251963     -0.24379951080906
  N   2.92694916168016     -1.12663381440768     -0.46538833036038
