13

C	0.0	0.0	0.0
C	-0.444312	0.201108	-1.453182
Br	1.927389	0.0	0.0
H	0.203066	0.950176	-1.91125
H	-0.38209	-0.905436	0.463076
H	-1.467366	0.570468	-1.428638
N	-0.390521	1.144574	0.894681
O	-0.535134	0.89057	2.084471
O	-0.46338	2.252945	0.374795
N	-0.416939	-1.025539	-2.233017
H	0.443544	-1.535532	-2.073556
H	-1.197226	-1.59827	-1.933609
Br	-3.489438	0.0	0.0
