13

C	0.0	0.0	0.0
C	-0.566453	0.032907	-1.422342
Br	1.922998	0.0	0.0
H	-1.652766	0.120795	-1.296793
H	-0.346024	-0.873322	0.548554
H	-0.369138	-0.960734	-1.838315
N	-0.415653	1.178759	0.842023
O	-0.655039	0.947288	2.021015
O	-0.442858	2.282332	0.304002
N	-0.086009	1.040497	-2.34492
H	-0.352295	1.949607	-1.991911
H	0.925722	1.016787	-2.398011
Br	-3.821773	0.0	0.0
