13

C	0.0	0.0	0.0
C	-0.598779	0.247793	-1.363356
Br	1.927317	0.0	0.0
H	-1.682396	0.29412	-1.186079
H	-0.343253	-0.944772	0.415295
H	-0.393388	-0.655313	-1.947451
N	-0.410142	1.034751	1.021955
O	-0.468441	0.656165	2.185775
O	-0.608284	2.180301	0.628739
N	-0.029871	1.394353	-2.069326
H	-0.376178	2.231418	-1.617788
H	-0.40891	1.388065	-3.008768
Br	-3.867119	0.0	0.0
