14

C	0.0	0.0	0.0
C	-0.238447	-0.174406	-1.534371
Br	1.965214	0.0	0.0
H	0.218406	0.701971	-2.007694
H	0.357518	-1.036458	-1.84344
C	-0.567448	1.279487	0.56894
H	-1.657563	1.194665	0.502355
H	-0.212469	2.131854	-0.016367
H	-0.267996	1.406512	1.609691
C	-0.395256	-1.189754	0.747425
N	-0.61352	-2.167801	1.362528
C	-1.540908	-0.377902	-2.177363
N	-2.303666	-0.605403	-3.04335
Br	-3.828354	0.0	0.0
