14

C	0.0	0.0	0.0
C	-0.531111	-0.304971	-1.404556
Br	1.961589	0.0	0.0
H	-1.633393	-0.28825	-1.321276
H	-0.213148	0.49677	-2.078434
C	-0.489532	1.364303	0.467032
H	-0.139185	2.130748	-0.228939
H	-1.584294	1.335611	0.481816
H	-0.105023	1.587136	1.463157
C	-0.382398	-1.055291	0.93975
N	-0.632571	-1.916459	1.699818
C	-0.080736	-1.586589	-1.934802
N	0.276503	-2.613725	-2.376926
Br	-3.801057	0.0	0.0
