14

C	0.0	0.0	0.0
C	-0.241175	-0.419281	-1.483028
Br	1.96529	0.0	0.0
H	0.269883	0.340936	-2.082681
H	0.307446	-1.352163	-1.640998
C	-0.543691	1.366641	0.354643
H	-0.231558	1.653964	1.360413
H	-0.175535	2.104173	-0.362875
H	-1.638266	1.298686	0.309198
C	-0.402941	-1.042747	0.939785
N	-0.621917	-1.911529	1.700697
C	-1.552149	-0.620348	-2.11153
N	-2.323357	-0.917229	-2.94919
Br	-3.808392	0.0	0.0
