14

C	0.0	0.0	0.0
C	-0.547665	0.143962	-1.426069
Br	1.962605	0.0	0.0
H	-0.230097	-0.699505	-2.044624
H	-1.648872	0.119297	-1.322877
C	-0.490963	1.116292	0.911435
H	-1.585348	1.084432	0.906894
H	-0.138807	2.078592	0.53345
H	-0.116961	0.970743	1.926195
C	-0.371608	-1.31775	0.520989
N	-0.592396	-2.389447	0.950188
C	-0.128704	1.391935	-2.053182
N	0.200351	2.394096	-2.569103
Br	-3.813731	0.0	0.0
