18

C	0.0	0.0	0.0
C	-0.393286	0.301002	-1.470034
Cl	1.894998	0.0	0.0
H	0.396093	-0.126131	-2.096294
N	-0.536438	0.915424	0.903844
H	-0.343813	0.648071	1.858008
H	-0.317201	1.880727	0.722921
N	-0.333806	-1.310363	0.486789
H	0.015982	-2.003282	-0.164935
H	-1.350591	-1.372437	0.460687
C	-0.465881	1.804679	-1.744364
H	-1.322815	2.231556	-1.218835
H	-0.61631	1.9755	-2.813008
H	0.455187	2.322695	-1.452558
N	-1.611062	-0.435076	-1.77629
H	-2.398269	-0.159172	-1.18345
H	-1.883894	-0.241	-2.73318
Br	-4.526227	0.0	0.0
