18

C	0.0	0.0	0.0
C	-0.464032	0.111649	-1.476298
Cl	1.798438	0.0	0.0
H	-1.557058	0.143455	-1.409241
N	-0.429559	1.207419	0.682244
H	-0.14312	1.157446	1.655187
H	-1.452762	1.173328	0.663128
N	-0.445913	-1.260779	0.546372
H	-1.466003	-1.246951	0.459236
H	-0.233138	-1.282295	1.539307
C	-0.065466	-1.089468	-2.316889
H	-0.402618	-2.018771	-1.859892
H	1.021248	-1.139135	-2.436924
H	-0.516718	-0.982039	-3.305703
N	-0.031808	1.337497	-2.137778
H	-0.294359	2.112515	-1.537257
H	0.983924	1.337	-2.164393
Br	-3.795767	0.0	0.0
