18

C	0.0	0.0	0.0
C	-0.342408	-0.00974	-1.512014
Cl	1.93685	0.0	0.0
H	0.384655	-0.692602	-1.959399
N	-0.489685	1.13187	0.666735
H	-0.140203	2.007219	0.305656
H	-0.386084	1.080699	1.670825
N	-0.396645	-1.238018	0.606409
H	-1.411374	-1.186634	0.705942
H	0.012767	-1.317999	1.529548
C	-0.184818	1.368939	-2.139653
H	-0.297406	1.270543	-3.220004
H	-0.979266	2.029958	-1.785679
H	0.791324	1.811807	-1.926279
N	-1.656482	-0.519388	-1.824555
H	-2.409875	-0.028744	-1.341231
H	-1.730797	-1.490878	-1.551171
Br	-4.493831	0.0	0.0
