18

C	0.0	0.0	0.0
C	-0.360777	-0.282163	-1.494405
Cl	1.851369	0.0	0.0
H	0.411513	-0.974525	-1.84239
N	-0.514449	1.237966	0.452589
H	-0.127723	2.034291	-0.033202
H	-0.417865	1.351352	1.45264
N	-0.425997	-1.105734	0.813547
H	-1.443883	-1.039708	0.857655
H	-0.059319	-1.001362	1.753707
C	-0.302997	0.989479	-2.329997
H	0.642183	1.527088	-2.206469
H	-1.136943	1.642092	-2.059699
H	-0.418291	0.72006	-3.380913
N	-1.63191	-0.927828	-1.714582
H	-2.420108	-0.407485	-1.324719
H	-1.633978	-1.837624	-1.270253
Br	-4.434434	0.0	0.0
