18

C	-0.360158	-0.013148	-1.495607
C	0.0	0.0	0.0
Cl	-2.159067	-0.059626	-1.69282
H	1.093833	0.0	0.0
C	0.1665	1.280333	-2.101876
H	1.246288	1.326446	-1.926301
H	-0.309224	2.154867	-1.654451
H	-0.031946	1.285299	-3.176272
C	0.243897	-1.213313	-2.207833
H	1.315896	-1.240058	-1.99277
H	-0.204211	-2.149569	-1.880787
H	0.081888	-1.101467	-3.282777
N	-0.475778	-1.229005	0.713379
O	0.133827	-2.267422	0.475308
O	-1.439778	-1.126338	1.471438
C	-0.511263	1.17776	0.68512
N	-0.877685	2.156718	1.220853
Cl	3.219535	0.0	0.0
