18

C	-0.494831	-0.043014	-1.466988
C	0.0	0.0	0.0
Cl	0.017951	1.535542	-2.17675
H	1.091254	0.0	0.0
C	0.215766	-1.143901	-2.241309
H	1.293923	-1.080841	-2.074114
H	-0.00212	-1.02854	-3.305662
H	-0.133368	-2.126541	-1.916418
C	-2.010893	-0.124595	-1.567306
H	-2.372723	-1.065015	-1.140697
H	-2.310577	-0.081363	-2.617029
H	-2.484885	0.704467	-1.036877
N	-0.453697	-1.257548	0.697532
O	0.204134	-2.270804	0.47959
O	-1.463421	-1.202038	1.403869
C	-0.530511	1.144483	0.72999
N	-0.94992	2.084084	1.29662
Cl	3.230366	0.0	0.0
