18

C	-0.504053	0.008072	-1.460286
C	0.0	0.0	0.0
Cl	0.113762	-1.479266	-2.26116
H	1.092127	0.0	0.0
C	-2.019273	0.004621	-1.589657
H	-2.287085	0.054418	-2.647639
H	-2.441646	0.871703	-1.07425
H	-2.455749	-0.897965	-1.161594
C	0.136077	1.205929	-2.151656
H	-0.092648	1.177234	-3.219435
H	-0.265464	2.133577	-1.732738
H	1.219667	1.183895	-2.00796
N	-0.486229	-1.215472	0.744072
O	-1.645368	-1.188167	1.170308
O	0.292438	-2.152919	0.851947
C	-0.499721	1.178879	0.698321
N	-0.886374	2.155707	1.224197
Cl	3.248607	0.0	0.0
