18

C	-0.492298	0.020995	-1.465109
C	0.0	0.0	0.0
Cl	0.089869	-1.485689	-2.256184
H	1.092091	0.0	0.0
C	-2.005169	0.064683	-1.607402
H	-2.47127	-0.819406	-1.173607
H	-2.261866	0.11187	-2.668173
H	-2.404801	0.949684	-1.105135
C	0.188761	1.198435	-2.150519
H	-0.185952	2.138071	-1.735024
H	1.26893	1.143879	-1.99872
H	-0.034515	1.174003	-3.2196
N	-0.502667	-1.215409	0.730466
O	-1.664068	-1.177557	1.147175
O	0.263013	-2.164448	0.836849
C	-0.494924	1.178257	0.701587
N	-0.87812	2.154341	1.231378
Cl	3.251617	0.0	0.0
