18

C	-0.507707	-0.002978	-1.46019
C	0.0	0.0	0.0
Cl	0.216708	1.467167	-2.206075
H	1.091276	0.0	0.0
C	0.035004	-1.219125	-2.194028
H	-0.451882	-2.128243	-1.832621
H	1.111265	-1.303698	-2.031668
H	-0.170615	-1.117963	-3.261946
C	-2.017855	0.128061	-1.571141
H	-2.512017	-0.723479	-1.098267
H	-2.36481	1.042808	-1.087767
H	-2.301146	0.163874	-2.625586
N	-0.46846	-1.265338	0.671475
O	-1.583494	-1.256862	1.19988
O	0.277544	-2.236758	0.606115
C	-0.510657	1.133868	0.759473
N	-0.913757	2.060313	1.35857
Cl	3.240345	0.0	0.0
