18

C	-0.488258	0.211395	-1.453226
C	0.0	0.0	0.0
Cl	-0.00856	-1.236233	-2.40704
H	1.096742	0.0	0.0
C	-1.994459	0.371864	-1.579308
H	-2.250624	0.528623	-2.629465
H	-2.521627	-0.510562	-1.21757
H	-2.327313	1.237567	-1.000799
C	0.272374	1.408407	-2.008452
H	0.038823	1.529178	-3.068638
H	1.346834	1.259949	-1.880706
H	-0.026718	2.317124	-1.477875
N	-0.51727	-1.285365	0.578886
O	0.238284	-2.247672	0.580347
O	-1.682278	-1.284826	0.986746
C	-0.476003	1.09596	0.837213
N	-0.819926	2.024897	1.46914
Cl	3.251122	0.0	0.0
