15

C	0.0	0.0	0.0
C	-0.462498	0.220601	-1.438649
Cl	1.851134	0.0	0.0
H	-0.199653	1.254746	-1.694286
H	0.135626	-0.425663	-2.086109
N	-0.561246	0.945422	0.871684
H	-0.434769	1.896048	0.556664
H	-0.303261	0.827384	1.83989
C	-0.32531	-1.357921	0.464723
N	-0.542112	-2.455256	0.82183
C	-1.953534	-0.04705	-1.621197
H	-2.594131	0.488869	-0.921327
H	-2.254765	0.228999	-2.635013
H	-2.18346	-1.105175	-1.486242
Cl	-5.186922	0.0	0.0
