15

C	0.0	0.0	0.0
C	-0.466692	0.428642	-1.39419
Cl	1.798917	0.0	0.0
H	0.061107	-0.194528	-2.121788
H	-1.534841	0.201283	-1.452767
N	-0.519299	0.876945	1.006889
H	-1.541287	0.853309	0.879612
H	-0.318993	0.487634	1.922224
C	-0.331846	-1.427915	0.216262
N	-0.546274	-2.571112	0.390811
C	-0.230544	1.908108	-1.668893
H	-0.893429	2.523133	-1.059968
H	-0.438523	2.123713	-2.720994
H	0.79723	2.202117	-1.45634
Cl	-3.555234	0.0	0.0
