15

C	0.0	0.0	0.0
C	-0.461548	-0.074683	-1.458643
Cl	1.802209	0.0	0.0
H	-1.550482	0.022627	-1.409996
H	-0.054547	0.813967	-1.956691
N	-0.495628	1.134996	0.732366
H	-0.347666	1.959265	0.156955
H	-1.512319	0.990485	0.789176
C	-0.365374	-1.230129	0.72653
N	-0.581068	-2.224812	1.311709
C	-0.077792	-1.342597	-2.208179
H	1.004635	-1.474672	-2.268605
H	-0.509596	-2.21908	-1.720043
H	-0.475872	-1.303069	-3.225604
Cl	-3.583514	0.0	0.0
