15

C	0.0	0.0	0.0
C	-0.342713	0.407616	-1.450711
Cl	1.805827	0.0	0.0
H	0.227619	1.323539	-1.646091
H	0.071146	-0.360307	-2.11115
N	-0.522979	0.840083	1.037971
H	-0.446684	1.809557	0.749971
H	-1.513941	0.62958	1.155392
C	-0.404443	-1.38818	0.250753
N	-0.716866	-2.504539	0.437587
C	-1.820065	0.632014	-1.718272
H	-1.988615	0.648876	-2.799741
H	-2.473364	-0.128971	-1.291501
H	-2.170258	1.579928	-1.309638
Cl	-4.605442	0.0	0.0
