15

C	0.0	0.0	0.0
C	-0.463174	-0.153117	-1.456956
Cl	1.802047	0.0	0.0
H	0.043877	-1.020498	-1.891027
H	-1.535341	-0.361247	-1.393437
N	-0.501306	1.134195	0.723981
H	-1.521108	1.008741	0.754288
H	-0.307582	1.971816	0.186173
C	-0.35306	-1.2258	0.742965
N	-0.561922	-2.217895	1.334817
C	-0.234481	1.090964	-2.303977
H	-0.491737	0.877942	-3.344138
H	0.805597	1.426583	-2.275337
H	-0.88383	1.905659	-1.977189
Cl	-3.574799	0.0	0.0
