12

C	0.0	0.0	0.0
C	-0.466614	-0.054776	-1.480325
Cl	1.776481	0.0	0.0
H	0.388648	0.17531	-2.126136
H	-0.377253	-0.860329	0.541363
C	-0.428504	1.225973	0.674583
N	-0.517036	2.253556	1.240305
C	-1.546266	0.869845	-1.842375
N	-2.143956	1.666243	-2.46996
C	-0.853245	-1.430041	-1.793932
N	-1.029546	-2.555269	-2.073311
F	-2.326436	0.0	0.0
