12

C	0.0	0.0	0.0
C	-0.496087	0.329142	-1.440051
Cl	1.777056	0.0	0.0
H	0.385927	0.503357	-2.07443
H	-0.341169	-0.988825	0.283366
C	-0.452139	0.95966	1.004291
N	-0.561169	1.750988	1.867047
C	-1.318253	1.538578	-1.531178
N	-1.802548	2.580322	-1.777699
C	-1.200223	-0.824291	-2.006726
N	-1.586554	-1.766733	-2.591209
F	-2.313762	0.0	0.0
