12

C	0.0	0.0	0.0
C	-0.465514	0.096172	-1.471974
Cl	1.776605	0.0	0.0
H	0.23681	-0.503401	-2.064438
H	-0.33801	-0.948958	0.404728
C	-0.459626	1.088829	0.858361
N	-0.597029	1.991714	1.597614
C	-0.339391	1.471973	-1.962051
N	-0.203446	2.55907	-2.386058
C	-1.824543	-0.44667	-1.745044
N	-2.510409	-0.985708	-2.54788
F	-2.40306	0.0	0.0
