15
Coordinates from ORCA-job run
  C   0.65957859071932     -0.56370582104757      0.29344669540986
  C   -0.41238794650063      0.07167076446648     -0.59351236957386
  F   0.91801288155760     -1.83378598673501     -0.13621445730969
  H   0.02521424358055      0.09166764744364     -1.60077622985267
  C   0.27849223075657     -0.57892285781415      1.70468792623361
  N   -0.07341007864535     -0.60538125946464      2.82454957254028
  N   1.94629958963406      0.23455044378910      0.11530027650903
  O   2.43458863464084      0.16030302468622     -1.00484608745987
  O   2.36109943735010      0.87745285159128      1.06837068117350
  N   -0.58543239784105      1.42533761684613     -0.14483342091232
  H   -0.91526799173624      2.02981389284097     -0.88331375144992
  H   -1.23320748344349      1.45658822086472      0.63432640447392
  N   -1.60711215757744     -0.74515620499125     -0.46093540615914
  H   -1.44128228272541     -1.68406252522263     -0.80580330416664
  H   -2.35418526976944     -0.33636980725328     -1.00944652945611
