15
Coordinates from ORCA-job run
  C   0.66624642822993     -0.55860400543207      0.28865213542667
  C   -0.41779254671756      0.06747488559585     -0.59008940050039
  F   0.93051422111380     -1.82746391635806     -0.14108670498065
  H   0.01085869916188      0.08909615298383     -1.60115345419230
  C   0.29706981585368     -0.57435177675403      1.70305077208144
  N   -0.04582905836128     -0.60117983880024      2.82567751487961
  N   1.94551346418479      0.24886138512794      0.09826781298286
  O   2.36434513842628      0.89540891244888      1.04702428978203
  O   2.42404145929293      0.17711261315868     -1.02623545322449
  N   -0.59695563829061      1.42052550198295     -0.14180064862822
  H   -0.93701859595812      2.02169770047774     -0.87836100051278
  H   -1.23815083463265      1.44820933940025      0.64283154245780
  N   -1.60552343606178     -0.75762577193826     -0.44602266560401
  H   -1.43683871669133     -1.69546335545563     -0.79236504439220
  H   -2.36048039954993     -0.35369782643784     -0.98738969557535
