15
Coordinates from ORCA-job run
  C   0.67366278619763     -0.54595660499268      0.29430663435521
  C   -0.41859975958575      0.05610697977662     -0.59086856117504
  F   0.95624579685889     -1.81494331483587     -0.12338134989146
  H   0.01017442743536      0.07413974007483     -1.60194991409649
  C   0.30357519789782     -0.55383539445957      1.70855738279386
  N   -0.04042746013921     -0.57445638924288      2.83100122890259
  N   1.94132250484452      0.27760583613406      0.09715470643208
  O   2.35050218347006      0.93888800452689      1.03999763866044
  O   2.42172372709072      0.20183658906566     -1.02631392453169
  N   -0.61703146466958      1.41110319220417     -0.15634772844458
  H   -0.96580200660380      1.99922134385463     -0.89942095676920
  H   -1.25904689490608      1.43730041443781      0.62773741365776
  N   -1.59469648773098     -0.78414918819289     -0.43929670095561
  H   -2.35301951504678     -0.39957228448072     -0.98992796644711
  H   -1.41058303511282     -1.72428892387006     -0.77124790249076
