18

C	0.0	0.0	0.0
C	-0.35738	0.303236	-1.481108
Cl	1.855252	0.0	0.0
H	0.251203	-0.389478	-2.076353
N	-0.439625	1.048405	0.873691
H	-0.146976	0.84863	1.824232
H	-1.458992	1.025681	0.856015
N	-0.476877	-1.282176	0.37201
H	-0.164846	-2.004785	-0.264164
H	-0.221774	-1.526911	1.320266
N	0.001064	1.652095	-1.896628
H	-0.598469	2.294527	-1.391367
H	0.948277	1.850025	-1.59377
C	-1.824256	0.048631	-1.787269
H	-2.104883	-0.991459	-1.635154
H	-1.994772	0.322977	-2.831354
H	-2.513903	0.622835	-1.16727
Br	-4.946013	0.0	0.0
