18

C	0.0	0.0	0.0
C	-0.312247	0.160519	-1.539868
Cl	1.808619	0.0	0.0
H	0.452991	0.857321	-1.900747
N	-0.401953	1.124248	0.8203
H	-0.070522	1.995631	0.419057
H	-1.421198	1.132318	0.833716
N	-0.527693	-1.220308	0.518258
H	-1.521541	-1.239808	0.28257
H	-0.469683	-1.173645	1.530712
N	-1.584589	0.74313	-1.90511
H	-2.373878	0.201357	-1.560695
H	-1.691877	1.658048	-1.484755
C	-0.147784	-1.161341	-2.279423
H	-0.964981	-1.839695	-2.02354
H	0.790906	-1.654847	-2.027263
H	-0.188548	-0.969547	-3.354047
Br	-4.177834	0.0	0.0
