18

C	0.0	0.0	0.0
C	-0.437421	-0.087271	-1.467861
Cl	1.872577	0.0	0.0
H	-1.526703	-0.177776	-1.373763
N	-0.467422	1.183559	0.605282
H	-0.35603	1.123345	1.608501
H	-0.021475	2.012747	0.243322
N	-0.440487	-1.106371	0.790374
H	-1.458643	-0.994295	0.847755
H	-0.255841	-1.944306	0.24873
N	0.071498	-1.337997	-2.033224
H	1.017002	-1.200772	-2.372095
H	-0.510365	-1.602324	-2.817807
C	-0.12217	1.15221	-2.295866
H	0.954	1.349648	-2.321888
H	-0.469486	0.999688	-3.322229
H	-0.646103	2.02738	-1.904683
Br	-3.949255	0.0	0.0
