18

C	0.0	0.0	0.0
C	-0.470086	0.072469	-1.467641
Cl	1.793761	0.0	0.0
H	-1.56449	0.049762	-1.380694
N	-0.437154	1.09937	0.832677
H	-1.458315	1.071587	0.816885
H	-0.133707	1.983492	0.440837
N	-0.462456	-1.257117	0.540357
H	-1.481929	-1.236874	0.447657
H	-0.254556	-1.246569	1.534155
N	0.048428	-1.077692	-2.221638
H	0.05651	-1.866824	-1.583159
H	-0.627676	-1.296859	-2.946606
C	-0.078733	1.356261	-2.18334
H	-0.539045	2.234423	-1.724119
H	1.006882	1.469409	-2.20815
H	-0.43652	1.306591	-3.215971
Br	-3.827558	0.0	0.0
