18

C	0.0	0.0	0.0
C	-0.348484	0.355144	-1.457769
Cl	1.881608	0.0	0.0
H	0.162189	-0.382476	-2.098168
N	-0.436873	0.934978	0.979894
H	-0.317467	1.863474	0.588462
H	-1.43011	0.767247	1.126861
N	-0.476898	-1.278987	0.347842
H	-0.238451	-1.493916	1.307133
H	-0.128205	-1.996605	-0.272291
N	0.115888	1.719801	-1.71143
H	1.107398	1.724667	-1.915604
H	-0.380883	2.094616	-2.509296
C	-1.846043	0.282755	-1.697828
H	-2.052413	0.475049	-2.756798
H	-2.269046	-0.682211	-1.430963
H	-2.393264	1.016306	-1.107304
Br	-5.019989	0.0	0.0
