18

C	0.0	0.0	0.0
C	-0.362123	-0.154332	-1.493066
Cl	1.871509	0.0	0.0
H	0.241457	-0.989474	-1.876327
N	-0.54913	1.178365	0.494861
H	-0.390266	1.94869	-0.140778
H	-0.281249	1.369822	1.448665
N	-0.36524	-1.077669	0.875196
H	-1.372528	-1.044404	1.001879
H	-0.099464	-1.969013	0.475206
N	-0.035961	1.103891	-2.174812
H	0.860905	1.049268	-2.633881
H	-0.742194	1.313824	-2.864839
C	-1.838086	-0.474626	-1.662718
H	-2.079434	-0.553799	-2.728842
H	-2.492367	0.270223	-1.208005
H	-2.109696	-1.423533	-1.202481
Br	-5.042354	0.0	0.0
