17
Coordinates from ORCA-job run
  C   -0.70629822357673      0.36381832116867     -0.08649756317366
  C   0.81468685377617      0.28890926565628     -0.30078771390838
  Cl  -1.45712163999504      1.26924298703429     -1.43198277484448
  H   1.16474036728153      1.32364666176512     -0.38312746715779
  C   -1.37312711896874     -0.97550080569430      0.07392355441882
  H   -0.96262002654381     -1.48110061504813      0.94767391155595
  H   -2.44546983243437     -0.85415901772036      0.21651877397248
  H   -1.18048144227954     -1.56954592348321     -0.81807641468641
  N   -0.90993973341808      1.22020714758519      1.16041478451130
  O   -0.32142952722493      2.29438904517699      1.18766080020829
  O   -1.63938410924025      0.77815776785241      2.03944057386074
  N   1.09109077634627     -0.53034625271972     -1.47453750007102
  H   2.09430293943319     -0.55291332331192     -1.61789689246547
  H   0.67568989135512     -0.11691449651046     -2.30207364218910
  N   1.38420968863625     -0.29082047850249      0.89530542011206
  H   1.49354699076611     -1.29008494737607      0.77355420593738
  H   2.27760414608686      0.12201466412771      1.12148794391927
