17
Coordinates from ORCA-job run
  C   -0.65984141273816      0.12668127167254     -0.14755114929974
  C   0.88228120184293     -0.06064177431993     -0.03044010745866
  Cl  -1.16006167847995      0.22859314910809     -1.83352430929956
  H   1.09347985446198      0.03991422655192      1.04456255460444
  C   -1.44605663487833     -0.95914916151487      0.55579120661234
  H   -2.50791740598977     -0.70880703874758      0.57906047604628
  H   -1.32376218505003     -1.88843565749911      0.00001512693381
  H   -1.09110010903688     -1.08345900966405      1.57929433592025
  N   -0.93376114979108      1.45972923049807      0.54082037579367
  O   -1.11858952912360      2.46783775190103     -0.12829223713613
  O   -0.85969927001976      1.41694516249060      1.76833201729764
  N   1.67387759682817      0.92557984013229     -0.71774647424817
  H   1.61352064771164      1.83306726464236     -0.27603440038329
  H   1.37088301886015      1.00882429268081     -1.68109194395060
  N   1.22054837168887     -1.35909926015438     -0.57808137238469
  H   2.21586105302154     -1.35115831219982     -0.76446476418646
  H   1.02933763069230     -2.09642197557795      0.08835066513887
