17
Coordinates from ORCA-job run
  C   -0.75249255756559      0.10876522041095     -0.23514803665698
  C   0.72140403569153     -0.27580929742115     -0.48554034115406
  Cl  -1.49840425144408      0.51118849405957     -1.79677897936532
  H   0.68091946778292     -1.02821290200221     -1.28676718913260
  C   -1.56083769156745     -0.96825113000472      0.45045478371243
  H   -1.12269507378698     -1.19281768107920      1.41881918308748
  H   -2.59592828958780     -0.64086535929531      0.56416457995101
  H   -1.54140128663749     -1.86985923127001     -0.16336948602987
  N   -0.74423388819989      1.35889437869492      0.64562109557113
  O   -1.07588847650057      2.43917384507227      0.18713729954992
  O   -0.35663962421273      1.14855634730059      1.79244818372707
  N   1.28211911526200     -0.93169034464788      0.67033860107381
  H   2.13777257054337     -1.40809402682468      0.41486322915633
  H   1.48889915922340     -0.24039139436123      1.38204318287223
  N   1.44904942234789      0.93534429854216     -0.84698299157246
  H   1.07033768799530      1.35466560083875     -1.68924679537543
  H   2.41801968065616      0.70040318198717     -1.02405631941468
