17
Coordinates from ORCA-job run
  C   -0.76598383840289      0.14712106960456     -0.26740321401058
  C   0.68550567931299     -0.28141449478132     -0.57221991140401
  Cl  -1.57134395188436      0.54715730669605     -1.79163243776136
  H   0.58292263367860     -0.97487783823952     -1.41162619601199
  C   -1.57846664336666     -0.88875970421414      0.48250499325935
  H   -2.60636460303710     -0.53966821239160      0.59288843969804
  H   -1.13032685230181     -1.07769470890489      1.45674775705930
  H   -1.57354176370320     -1.82151378121168     -0.08227236481953
  N   -0.75241421855077      1.39771040988436      0.60891388609226
  O   0.17418957404061      1.45479923243043      1.42008393145466
  O   -1.67124751361360      2.19547846867150      0.52682720067829
  N   1.23562274543331     -1.05247362199305      0.53210989717195
  H   1.47545763688593     -0.42943819457005      1.29339318041243
  H   2.07915584656317     -1.51975884902881      0.22303853798453
  N   1.42339226369244      0.87074983887548     -1.06378143859750
  H   1.80405194161833      1.39851358473484     -0.28847579479962
  H   2.18639106363501      0.57406949443785     -1.65709646640622
