17
Coordinates from ORCA-job run
  C   -0.63967216476449      0.28795657759187      0.09473174571010
  C   0.78845570768087     -0.24033416595010     -0.09618325987355
  Cl  -0.85732554442444      1.77537111195778     -0.85002154286899
  H   0.84236483284025     -1.14663486769397      0.51278039493001
  C   -1.71630438581770     -0.71005673374940     -0.26865510426969
  H   -2.70227958454964     -0.29018176496703     -0.06061054347685
  H   -1.63283420567090     -0.94986741764405     -1.32626639382670
  H   -1.57910712275597     -1.61807418877710      0.31915377313106
  N   -0.77048573692956      0.61010211230287      1.58418989595077
  O   -0.64262535515329     -0.37449054697127      2.30599716643223
  O   -0.99092924931943      1.75152765667571      1.95180235074545
  N   1.71070872023786      0.71479755590048      0.48726951183137
  H   1.76936666977997      1.55358369349799     -0.07804788507850
  H   2.63579637959312      0.31223792393544      0.56434565823262
  N   0.94955489933293     -0.64320226052983     -1.48367777691162
  H   1.05054552303355      0.17389345463762     -2.07500925995921
  H   1.78577061688687     -1.20562814021701     -1.58079873069850
