17
Coordinates from ORCA-job run
  C   -0.65587347310840      0.24285173690400      0.10928293912504
  C   0.80073225902204     -0.18510525581108     -0.11552075805651
  Cl  -1.00426680704285      1.69950521403496     -0.84377819212328
  H   0.93522283978591     -1.07748163472349      0.50150469243328
  C   -1.66786276492165     -0.83359613130144     -0.21394999127404
  H   -1.59660534134983     -1.07905385398881     -1.27116287831948
  H   -2.67539848407279     -0.48312442042144      0.01797147572642
  H   -1.44983438852305     -1.72278855808715      0.37817140538919
  N   -0.76902006252967      0.57267969328311      1.59847544783145
  O   -0.55046023998589     -0.39133087917283      2.32627472350791
  O   -1.06182656617322      1.69945411440705      1.96066757547799
  N   1.66778809447012      0.84040429235570      0.43177263831270
  H   1.65331150784385      1.67355511800903     -0.14450742658403
  H   2.62047070702258      0.50498725502137      0.49138205521060
  N   0.95291974045826     -0.59329136012178     -1.50246279102762
  H   0.97243673253306      0.22124976112465     -2.10560202904335
  H   1.82826624657153     -1.08891509151184     -1.61751888658627
