17
Coordinates from ORCA-job run
  C   -0.68031240562358      0.13178725756742     -0.14383408196895
  C   0.82039861592430     -0.07874094545826      0.09855891888970
  Cl  -0.99592590461487      0.22927135817456     -1.88806526867662
  H   0.93095435852873     -0.12497324343396      1.18515222912998
  C   -1.55668280380660     -0.93381789307486      0.47547887519325
  H   -2.60940806735097     -0.69513047852710      0.31247074519395
  H   -1.35971036625459     -0.98488440219878      1.54666861330860
  H   -1.32117784496603     -1.89320746856642      0.02033285332480
  N   -1.02486219749804      1.47155302016638      0.50887694322722
  O   -1.44639772422543      2.39612344996534     -0.16496570337025
  O   -0.84170452981940      1.48080296571083      1.72263221659808
  N   1.52611881115983      1.10733196189945     -0.34683118320921
  H   1.53289434638853      1.16678486941582     -1.35823130658746
  H   2.48270323676530      1.09497915400963     -0.01739755752103
  N   1.19446785798915     -1.38077985432741     -0.42884969600644
  H   1.24138406821704     -1.34701911398140     -1.44087879586485
  H   2.10926054918661     -1.64008063734123     -0.08111780166077
