17
Coordinates from ORCA-job run
  C   -0.67947717171320      0.42178269331617     -0.09118031612426
  C   0.83280574370187      0.35799198759271     -0.42741215048219
  Cl  -1.49932550414894      1.53959129020493     -1.19765092627002
  H   1.14798267827780      1.39041183602946     -0.59046217154699
  C   -1.38312426659495     -0.91197014758955     -0.10832081791205
  H   -1.38241338843045     -1.28240740797043     -1.13262513571002
  H   -2.41295425094469     -0.80557847668379      0.22864868378649
  H   -0.88752238489402     -1.62739830366871      0.55060488095302
  N   -0.75694761091113      1.04860849874162      1.29520348518211
  O   -0.23440881448076      2.15059112123246      1.42552907716646
  O   -1.26819711950279      0.38889936448091      2.19596413979223
  N   0.97321556108342     -0.36855731592480     -1.66995455524071
  H   1.89248211400849     -0.17182819802488     -2.04692851694338
  H   0.94765329751293     -1.36553228813189     -1.48345747947165
  N   1.65778034977008     -0.17137514096233      0.64515379006363
  H   1.32437326901005     -1.06630026372651      0.98285763142456
  H   1.72707749825629      0.47107075108462      1.42403038133278
