17
Coordinates from ORCA-job run
  C   -0.66704377041661      0.42331923581165     -0.11656854038938
  C   0.85462848918690      0.23418179067333     -0.23020919276596
  Cl  -1.24747551180967      1.44329298735197     -1.46472509417911
  H   1.28961671557546      1.23959903692704     -0.23690584809380
  C   -1.44651179586743     -0.86283735646507     -0.06633262029201
  H   -1.23721694758025     -1.43226619895578     -0.97061271394834
  H   -1.14107527482645     -1.43691735193390      0.80814317631099
  H   -2.51355845069074     -0.66069297958654      0.00788773666401
  N   -0.89245806798984      1.23990475591536      1.15318064610325
  O   -1.71680929939953      0.82248784386155      1.95715274823561
  O   -0.22448159885649      2.25993919799852      1.27281308933597
  N   1.14991961288603     -0.55323858403733     -1.42074297475561
  H   0.82543012987748     -0.07369122238488     -2.25323116235574
  H   2.15608018428079     -0.64857609835539     -1.49860670444490
  N   1.28905665637360     -0.44118766250567      0.97283139071674
  H   1.32846342106392     -1.43978653797333      0.80932516798578
  H   2.19443550819285     -0.11353085634153      1.27760089587249
