17
Coordinates from ORCA-job run
  C   -0.68384033196277      0.47943849950623     -0.11498614720637
  C   0.83658142860909      0.30776325319996     -0.27468021434019
  Cl  -1.30371176361879      1.64310859096891     -1.30469835422152
  H   1.25547591504861      1.31482310589315     -0.28866807108139
  C   -1.45654166321282     -0.81091577803307     -0.19671944870382
  H   -1.35180495314538     -1.21889061245471     -1.20260579496533
  H   -2.51266702258131     -0.63660128442735     -0.00150734210535
  H   -1.08113380783756     -1.51473479129352      0.54747512197822
  N   -0.88374982207424      1.13208934540865      1.25087737355667
  O   -0.17776897995497      2.10273348638135      1.49700519965624
  O   -1.72954464222288      0.65291339100619      1.99609924455093
  N   1.11153316708063     -0.31093372707991     -1.55205031013719
  H   0.92532906776867     -1.30632428859345     -1.52147069116268
  H   2.08328126409459     -0.17998230435900     -1.80065452168204
  N   1.30502223746170     -0.38606164290891      0.92605395157803
  H   2.11094280667155      0.07429989865804      1.32570345399720
  H   1.55259709987589     -1.34372514187256      0.71582655028858
