17
Coordinates from ORCA-job run
  C   -0.63833972976328      0.42044704241898     -0.05846011876888
  C   0.89001240220543      0.31855772973922     -0.27826686384106
  Cl  -1.35484507370234      1.42242963636223     -1.34712134432955
  H   1.25596084215775      1.34681945401936     -0.27233893734351
  C   -1.35731888157319     -0.90198318798490      0.01599225537627
  H   -0.97149528398327     -1.49389215982211      0.84566109293263
  H   -2.42266804745896     -0.74779184760358      0.17842120624943
  H   -1.22881614663305     -1.43761025739273     -0.92571677600149
  N   -0.82543151567214      1.19766679586274      1.24135362644478
  O   -1.51705176857632      0.68714051161124      2.11465633319041
  O   -0.25165728456198      2.27676268764405      1.31539881819919
  N   1.30635504742413     -0.28523328957978     -1.52743825075555
  H   0.93543408364304     -1.22300192133950     -1.62632527533394
  H   1.00290823275556      0.26393496761315     -2.32215758577844
  N   1.41822102383017     -0.35419741125046      0.89110787935321
  H   1.35528009288093     -1.35966259573614      0.77529318704927
  H   2.40145200702753     -0.13038615456177      0.98094075335724
