17
Coordinates from ORCA-job run
  C   -0.65564847736580      0.48974279983269     -0.09890435891142
  C   0.85230956139816      0.24311641595909     -0.30073004580165
  Cl  -1.20533785016344      1.73638475438659     -1.23967575563911
  H   1.32953696657230      1.22466388569862     -0.38808421384294
  C   -1.49983821685086     -0.74958477430639     -0.22911786149848
  H   -2.54418071391107     -0.52325228902525     -0.02644893989765
  H   -1.40800462296638     -1.11865533609205     -1.25006383497428
  H   -1.14677052920999     -1.50071432878971      0.47857356387944
  N   -0.83938104165182      1.10676027135012      1.28582434780989
  O   0.02891898335134      1.89665708038289      1.65215085950841
  O   -1.83997715377932      0.80459390560431      1.92457466492722
  N   1.03044446753182     -0.45679646728942     -1.54936982914986
  H   0.92178238309478     -1.45395725058343     -1.40672609845037
  H   1.94687068009490     -0.27753096574631     -1.93555346974485
  N   1.32902265684120     -0.53875430922785      0.84123258821155
  H   2.22324171086157     -0.94805236039537      0.59896720075554
  H   1.47701119615260      0.06437896824149      1.64235118281858
