17
Coordinates from ORCA-job run
  C   -0.64456844723806      0.12231571212973     -0.01756469380300
  C   0.89641577362895      0.02512527661520     -0.09954486488441
  Cl  -1.34315238842793      0.11541889401910     -1.64761706962531
  H   1.23331571135869      0.05000470323673      0.94113748905545
  C   -1.28170065613337     -0.97516486233509      0.80797475864306
  H   -1.13359636782243     -1.93661605099274      0.31672764791973
  H   -0.83498825180628     -0.99440449639974      1.80248206054746
  H   -2.35509366034806     -0.80170161460049      0.90202059460229
  N   -0.94505160415277      1.45657250564979      0.66171582360976
  O   -1.52160948949568      2.34332373742058      0.05527777377697
  O   -0.54568083559524      1.50702741421705      1.82223979051119
  N   1.38182253844616      1.22215389755443     -0.74212372127748
  H   2.39421669637841      1.20018725384316     -0.73202356045748
  H   1.08491775294242      1.24762474523622     -1.71120262052361
  N   1.39880928794469     -1.20232543267032     -0.68446633866299
  H   0.97864989591951     -1.37584974192648     -1.59002872405703
  H   1.23729404440098     -2.00269194099714     -0.08600434537458
