17
Coordinates from ORCA-job run
  C   -0.74596100864774      0.11700129124846     -0.25144690929927
  C   0.72930059567804     -0.28176848949752     -0.47030233697200
  Cl  -1.45274028425427      0.53230561162831     -1.82784431195616
  H   0.69926712394881     -1.03097899303074     -1.27494066297224
  C   -1.58018802510461     -0.95390179668711      0.41220677500988
  H   -1.16623233098050     -1.18578144703752      1.38943934041664
  H   -1.55556864280863     -1.85389262123107     -0.20381593448687
  H   -2.61433260395108     -0.61671634739615      0.50360216790527
  N   -0.74427033079926      1.36428727822610      0.63369004430314
  O   -1.05321156755561      2.44958403376465      0.17108222301962
  O   -0.38640649296328      1.14615513682014      1.78869961190246
  N   1.25696011478231     -0.94746705074001      0.69563577360883
  H   2.11321690160827     -1.43178256413684      0.45758876517378
  H   1.45504230791327     -0.26062418101775      1.41411277758163
  N   1.47713095677093      0.92322231482977     -0.81029517544357
  H   2.44715298191622      0.67895377717635     -0.96801629306871
  H   1.12084030444713      1.35040404708093     -1.65839585472243
