17
Coordinates from ORCA-job run
  C   -0.65792194619502      0.43580538230599     -0.12449870744169
  C   0.86127055190739      0.21889016627424     -0.21905052916206
  Cl  -1.20162262708058      1.46873912099306     -1.47773146935507
  H   1.31513730908334      1.21582241765081     -0.21981099453523
  C   -1.46156139985104     -0.83576817599947     -0.08669084569735
  H   -1.17911624136286     -1.41582756923717      0.79154792846027
  H   -2.52554517010147     -0.61364057295417     -0.02726764825334
  H   -1.25006856506453     -1.40828455007288     -0.98846994686368
  N   -0.88397438334559      1.25409143569155      1.14415261317857
  O   -0.19845265096375      2.26104598466504      1.27445674966160
  O   -1.72681439491994      0.85151516412368      1.93647792611377
  N   1.15741382107235     -0.57303403990971     -1.40656784423456
  H   2.16264048334241     -0.68667892400836     -1.47091459406861
  H   0.85334715856125     -0.08661336522937     -2.24278607071832
  N   1.26786747355114     -0.46567700219592      0.98877043812129
  H   2.17529684047086     -0.15488525749203      1.30489948468713
  H   1.29110374089603     -1.46450021460528      0.82348351010728
