17
Coordinates from ORCA-job run
  C   -0.62220465507668      0.20436679506493      0.09173749008612
  C   0.83912803182224     -0.19320861844516     -0.22555583907074
  Cl  -1.02896586469170      1.71595314371634     -0.73814387300450
  H   0.99470384162484     -1.14034339151965      0.29794782763423
  C   -1.63651536213049     -0.86478664353137     -0.24840248283423
  H   -1.38013734978740     -1.78644795245188      0.27503871707507
  H   -1.60710716953359     -1.04276361672760     -1.32111427778194
  H   -2.63840789670058     -0.54692140522385      0.04695575447885
  N   -0.66181532476351      0.43953719891440      1.60073576337307
  O   -0.92135659263662      1.54495865934564      2.05281971808088
  O   -0.38363255225058     -0.56053416273227      2.26035859405217
  N   1.84317370686491      0.73014765576530      0.26478643095568
  H   1.93841723614805      0.68282247511715      1.27177051381499
  H   1.62797594326302      1.68462592926669      0.00046165710914
  N   0.92655854400257     -0.45403611568116     -1.64561332700333
  H   0.86212953476021      0.42060400037551     -2.15531616769554
  H   1.84805592908530     -0.83397395125304     -1.82846649926992
