17
Coordinates from ORCA-job run
  C   -0.69787215551192      0.38969045524784     -0.09897521177843
  C   0.81596803011142      0.38846336761989     -0.43412196291028
  Cl  -1.56690672843615      1.44913808407425     -1.22506856784027
  H   1.08416585240653      1.43088653626124     -0.61653071421748
  C   -1.34051184884988     -0.97473277480732     -0.09246597622475
  H   -1.32373720096981     -1.36235718069721     -1.11024598746050
  H   -0.81257880450564     -1.65569163114134      0.57781426133680
  H   -2.37378610151118     -0.90938704840470      0.24432567727632
  N   -0.80440002057168      1.03673455856262      1.27611047714236
  O   -1.28579222941363      0.37062979834998      2.18842558431500
  O   -0.33325727263791      2.16378392473965      1.38596640500746
  N   0.99072843837939     -0.35387154177002     -1.66288629976807
  H   1.00228092994784     -1.34768556645049     -1.45868561955235
  H   1.90445781532329     -0.12875994722873     -2.03763204506409
  N   1.66372386211308     -0.08249622221885      0.64785194358626
  H   1.37365705057983     -0.98678239644545      1.00025190735317
  H   1.70186038354643      0.57543758430864      1.41586612879886
