17
Coordinates from ORCA-job run
  C   -0.69773851786175      0.38999477495781     -0.09559653008122
  C   0.81196891737813      0.38066661260549     -0.44847084386797
  Cl  -1.57762471786814      1.43752455523663     -1.22468392313739
  H   1.08042831248018      1.42020064979180     -0.64647515499085
  C   -1.34360510736941     -0.97259613320112     -0.06453971114605
  H   -2.37242534403029     -0.90049975919854      0.28427075671122
  H   -0.80908314913435     -1.64656230534711      0.60761532799649
  H   -1.34031094179353     -1.37302050016223     -1.07747043658751
  N   -0.78672415235518      1.05467173276671      1.27231328122634
  O   -0.31167292916780      2.18170505232696      1.36260451052251
  O   -1.25907801346317      0.40115509627755      2.19831796155176
  N   0.97056571209236     -0.37664902200047     -1.67009348587495
  H   1.88096367179118     -0.15951680488174     -2.05741796322522
  H   0.98042873638251     -1.36807632112239     -1.45457966460291
  N   1.67091568571953     -0.07913955379248      0.62934884029810
  H   1.72055006919658      0.58841630434983      1.38827839307259
  H   1.38344176800314     -0.97827437860668      0.99657864213506
