17
Coordinates from ORCA-job run
  C   -0.70055691959644      0.12932244473208     -0.21170725689275
  C   0.78562743125682     -0.25410301121512     -0.47959559325861
  Cl  -1.45339983783461      0.68231732242073     -1.72437260908982
  H   0.72518275225781     -1.14674037734332     -1.12186507988861
  C   -1.50660964700603     -1.01988658865784      0.34810543426626
  H   -2.54464879800382     -0.72485147111594      0.49762153927815
  H   -1.10654615063050     -1.33795173178240      1.30959536441973
  H   -1.47557155892382     -1.84720535804958     -0.36345902865458
  N   -0.71448292530103      1.29649600354991      0.76323483777322
  O   -0.19692354942559      2.34237788481968      0.38470249618638
  O   -1.19999131265118      1.10174224370815      1.87109592719122
  N   1.38957148462278     -0.48496304589450      0.82174770351193
  H   1.12978376280090     -1.38473511163215      1.20375877416275
  H   2.39362914390947     -0.47106975384009      0.69228402616551
  N   1.61460526490640      0.70174141399507     -1.16358683826852
  H   1.31370514608145      0.81408167173139     -2.12210961133321
  H   1.54562571353739      1.60242746457394     -0.70445008556905
