17
Coordinates from ORCA-job run
  C   -0.75913887087663      0.15487230768128     -0.28436230458253
  C   0.69422683866470     -0.28876735357330     -0.55933718538151
  Cl  -1.52874607909512      0.56204252723410     -1.82495961481051
  H   0.60338960863201     -0.97511955113457     -1.40585350965948
  C   -1.59845716502568     -0.87030665782660      0.45028179210093
  H   -1.17015831928338     -1.06599455832505      1.43199869442738
  H   -2.62342452566022     -0.50734329417172      0.54259711244952
  H   -1.59685722306276     -1.80244866676367     -0.11551001569072
  N   -0.74640690531853      1.40642021899597      0.59059089800195
  O   -1.63722212020845      2.23106357144761      0.47325486785485
  O   0.15066277787260      1.43779681100751      1.43589821070943
  N   1.21056404237829     -1.07351998776565      0.55175325423957
  H   2.05841449099756     -1.54388609867218      0.25939888976921
  H   1.43607412122148     -0.45855644306948      1.32397956082660
  N   1.45513979480845      0.85875015280734     -1.02496557098263
  H   1.82600096059196      1.37576181208963     -0.23774367021281
  H   2.22593857336371      0.56023521003878     -1.60702140905924
