17
Coordinates from ORCA-job run
  C   -0.66443342712999      0.26360121178837      0.04152852656064
  C   0.80403437478729     -0.15046042612457     -0.16318100586486
  Cl  -1.04347565058716      1.69296100022512     -0.92045065612369
  H   0.91503879283630     -1.11058438214311      0.35534975566138
  C   -1.63637329333571     -0.85356839588902     -0.27693101954225
  H   -1.43348523160800     -1.70953878957046      0.37127215366069
  H   -2.66171927799871     -0.51500291060613     -0.12092683435993
  H   -1.49679221903536     -1.14502849479862     -1.31626355466601
  N   -0.86354989894905      0.59922678702114      1.52028886834114
  O   -1.65785788685445      1.47013342345737      1.83731835420329
  O   -0.24338002234440     -0.12564195518497      2.29951389406687
  N   1.68272550566083      0.88693840573153      0.36227058591245
  H   2.61209784337747      0.74896302489399     -0.01430224038096
  H   1.74522392908754      0.81845181603483      1.37145440287184
  N   1.00177051255488     -0.39936817631613     -1.57099488283590
  H   1.83591197311001     -0.95327758950137     -1.71518555245844
  H   1.10326397642850      0.48219545098205     -2.06076079504623
