17
Coordinates from ORCA-job run
  C   -0.68612291149906      0.08497011830059     -0.27186592854096
  C   0.80324758205188     -0.31261651359400     -0.59180067061842
  Cl  -1.52120100028259      0.40013759563654     -1.80325909207765
  H   0.69908790861825     -1.12696671413058     -1.31881151876649
  C   -1.44892059514589     -0.96440592732484      0.50509397170170
  H   -2.48623833401993     -0.65601979427902      0.64540422630642
  H   -0.99167602777703     -1.12659954529806      1.47845957794931
  H   -1.44181530380396     -1.89669778252959     -0.06322410249758
  N   -0.62467221470144      1.37045567515403      0.53160620162032
  O   -0.83350523284409      2.44700189163086     -0.00894284992460
  O   -0.26302061362542      1.21766521979348      1.70101752796373
  N   1.53487200734030     -0.81945459549047      0.54113308940826
  H   1.30134619521700     -1.78186501194444      0.73630233547045
  H   1.37019687162503     -0.26240962621454      1.37070712121548
  N   1.56072630008156      0.76062154268051     -1.19303278199384
  H   0.99491646929816      1.36351605357373     -1.77490418261094
  H   2.03277889946720      1.30466741403580     -0.48388292460517
