17
Coordinates from ORCA-job run
  C   -0.59974716108759      0.42387376605301     -0.08403886719962
  C   0.93095312384017      0.32760445797037     -0.39170951442579
  Cl  -1.36738107629175      1.50508280174222     -1.27306160707534
  H   1.27372119666631      1.36251987224543     -0.47517439401883
  C   -1.33390633848411     -0.89325412085215     -0.06310489689025
  H   -1.30407446451989     -1.33116761174595     -1.06007131172407
  H   -2.37454847870609     -0.74487122643431      0.22249852707785
  H   -0.88653743844106     -1.58367867141891      0.65241424756640
  N   -0.69173246174455      1.10974642594448      1.26679006452064
  O   -1.14638356628072      0.45775609922214      2.20414983106760
  O   -0.21486499457464      2.23713581829780      1.34384169615975
  N   1.21906706124926     -0.35853518857070     -1.62945821989695
  H   1.17792285561175     -1.36162128884094     -1.50610123131955
  H   0.59388336494825     -0.07752714305343     -2.37352754114490
  N   1.66758732097957     -0.29319288736841      0.68218090800674
  H   1.83624326732655      0.34777742830333      1.44374116301132
  H   1.22179778950853     -1.12764853149399      1.03963114628500
