17
Coordinates from ORCA-job run
  C   -0.60083262241430      0.42203408583535     -0.08473633428362
  C   0.93230739195446      0.33553153587708     -0.38211101582525
  Cl  -1.36500099812154      1.50873142572547     -1.27121278426450
  H   1.27130907836292      1.37249541642961     -0.45374994924418
  C   -1.32869450592265     -0.89870714392665     -0.07925486105050
  H   -0.88563366495058     -1.59074715924126      0.63742522668582
  H   -1.28630984154328     -1.33110899946322     -1.07815451324767
  H   -2.37299548653884     -0.75686784240413      0.19612265929327
  N   -0.70765036969134      1.09709007389755      1.27049237330599
  O   -0.23258330283218      2.22432048670885      1.36100161602963
  O   -1.17351656240590      0.43880603392895      2.19777595991459
  N   1.23227555353638     -0.33863791426185     -1.62372457115819
  H   1.19793328448041     -1.34289568300481     -1.50850787933416
  H   0.61012131822952     -0.05604819266650     -2.36965433069754
  N   1.66426038202130     -0.29202612836038      0.69104144065203
  H   1.82282168701720      0.34148557334561      1.46092702176083
  H   1.22118865881841     -1.13345556841966      1.03531994146345
