17
Coordinates from ORCA-job run
  C   -0.55390236552893      0.30448428408179      0.17777852848302
  C   0.85766910723820     -0.24977648303801     -0.12391546240100
  Cl  -0.69679360230788      1.96593107347609     -0.42639723790912
  H   0.85426495463292     -1.26203512015966      0.29146460867493
  C   -1.67495501503012     -0.53736215132842     -0.39341852993602
  H   -1.63785557077581     -0.50762318614136     -1.48219290635604
  H   -1.57567089409041     -1.56647425681662     -0.04694617194029
  H   -2.64192747725150     -0.14478653509230     -0.07408487002741
  N   -0.68954911815909      0.29968332270525      1.69871089589113
  O   -0.66366554960254     -0.82971520300937      2.18146106311192
  O   -0.80342348589664      1.34709446696925      2.31271705498746
  N   1.80869443543212      0.52752833137545      0.63273622141520
  H   2.72612121157836      0.11737261658379      0.50820360591679
  H   1.84710413373586      1.47818368326071      0.28242239498208
  N   1.17877010826842     -0.36451675663121     -1.53273238734893
  H   1.02684560397482      0.51313264035273     -2.01580837097173
  H   0.63927352378224     -1.09012072658810     -1.98799843657198
