17
Coordinates from ORCA-job run
  C   -0.73223972467492      0.14700285606297     -0.20176032092871
  C   0.70433085604246     -0.27152704300607     -0.62953775622733
  Cl  -1.63598590668100      0.89396728160233     -1.53146451673761
  H   0.56443373266903     -1.20679452495109     -1.18423746601071
  C   -1.53158097256358     -1.02128538933449      0.33105253262861
  H   -2.51005294516184     -0.69141063279294      0.67651584632318
  H   -1.02079991944572     -1.50198575959359      1.16468634935453
  H   -1.66712071717662     -1.73963146849364     -0.47857760614249
  N   -0.57927584639704      1.20295928959952      0.88728808866556
  O   -0.97877435448423      0.92589565184354      2.01402151452440
  O   0.00352283804090      2.23887057074581      0.57736624890284
  N   1.56294284293926     -0.58556470880309      0.50455826388408
  H   1.74762079221982      0.23374911218664      1.07112526635966
  H   1.20503106180470     -1.33009087502124      1.08882447734011
  N   1.30783461163410      0.68518628306642     -1.52110223388160
  H   1.28714894316642      1.61201907064126     -1.11468623955908
  H   2.27296470806826      0.40964028624766     -1.65507244849545
