13
Coordinates from ORCA-job run
  C   -0.69774918953902     -0.20086250482726      0.00259151034774
  C   0.56411730436307     -0.19749101855091      0.86167161434089
  Br  -1.97129766998325     -1.40565646612038      1.05114295752442
  H   0.37884168130839      0.27614282834720      1.82379710815561
  H   0.93725198960835     -1.21263215825626      0.98567636473598
  C   -1.36808233215993      1.09749349561924     -0.03328731238705
  N   -1.92799202864481      2.12941659358181     -0.08345039195128
  N   -0.41333207821900     -0.63839258366434     -1.29922114769058
  H   -1.21501080632290     -0.62824710786965     -1.91517961335087
  H   0.05832209941349     -1.53337470124491     -1.32609937020421
  N   1.62811039818979      0.58016092520475      0.15706197015434
  O   2.50756757840503     -0.06696724565992     -0.40532618568863
  O   1.51925305358079      1.80240994344064      0.18062249601363
