13
Coordinates from ORCA-job run
  C   -0.70117028078975     -0.18697150043688      0.02263456216778
  C   0.57892448422038     -0.18600189048608      0.85416387879421
  Br  -1.97429290241258     -1.33935711792394      1.12963809022167
  H   0.42362489027282      0.31623827743253      1.80708850625881
  H   0.93468075662873     -1.20484546347069      0.99754744216838
  C   -1.34796505429135      1.12261882290375     -0.03258476109673
  N   -1.88973291110946      2.16337965699643     -0.09734019755235
  N   -0.45392613851961     -0.66349854210923     -1.27291615055651
  H   0.00163071582101     -1.56707666789080     -1.28685158461182
  H   -1.26906289217564     -0.65495590386535     -1.87094348220641
  N   1.64213074346436      0.55171223064320      0.10683724559592
  O   1.55680375940709      1.77602824531223      0.09920358793843
  O   2.49735482948400     -0.12727014710518     -0.45547713712139
