13
Coordinates from ORCA-job run
  C   -0.67732090468880     -0.15618498207614      0.12103904028765
  C   0.54082810080569      0.74571706741226      0.35212291739322
  Br  -1.17764297375891     -1.08742018219309      1.77722055486331
  H   0.66940353713761      1.40553822612991     -0.50737437326999
  H   0.43190210755371      1.31652949826435      1.27203229888201
  C   -1.81042714829730      0.72924732234244     -0.20001854986974
  N   -2.69159869497325      1.43544817721328     -0.52986798508825
  N   -0.37944060046547     -1.14660911143346     -0.86984476656035
  H   0.02617601564982     -0.73077820236240     -1.70125934288218
  H   -1.19979858137939     -1.68772755611524     -1.11176599296350
  N   1.78381513686943     -0.06978252489002      0.44729552475678
  O   2.09020426960914     -0.49923105206814      1.55440690953921
  O   2.39389973593771     -0.25474668022375     -0.60398623508816
