13
Coordinates from ORCA-job run
  C   -0.68062778348299     -0.18226896254424     -0.03147212188723
  C   0.85368509563924     -0.16557386715379     -0.03127328534744
  Br  -1.26626156851952     -0.72497340971036      1.76535203862099
  H   1.20521161649858      0.23062435508294     -0.98785839668205
  H   1.22759281943664     -1.17503878777906      0.13267906994180
  C   -1.25464699765187      1.13151187376588     -0.32746571673181
  N   -1.74018776499253      2.15126485413761     -0.65124454144451
  N   -1.22490249083270     -1.12576761640792     -0.97432401349970
  H   -1.09254164364365     -0.80837632370171     -1.92787645740915
  H   -0.82525618549779     -2.04772987042675     -0.84640454531034
  N   1.45020487269841      0.69140892702132      1.03420584524268
  O   2.25093666940788      0.15754893826039      1.79613444887862
  O   1.09879336094030      1.86736988945570      1.05054767562813
