13
Coordinates from ORCA-job run
  C   -0.58938160909243     -0.23269541863903     -0.03779612576305
  C   0.90863374809451     -0.20443041510043      0.25940212518367
  Br  -1.57504735210531     -0.06039436070458      1.64280722804597
  H   1.46605483602161     -0.27024608832894     -0.67862929410465
  H   1.14721200054845     -1.03225597570057      0.92242462984387
  C   -1.02743246976240      0.86711628447738     -0.90914383052833
  N   -1.43653112217279      1.64985018468760     -1.68605939621728
  N   -0.87737755342871     -1.54399530404338     -0.58463935590725
  H   -1.87997105353706     -1.66795626773512     -0.67439626453582
  H   -0.46895399905829     -1.61541087951374     -1.51282986775621
  N   1.33786809897199      1.05659789939388      0.92423556470289
  O   1.75805040271835      0.96859603768062      2.07454293889441
  O   1.23787607280207      2.08622430352632      0.26108164814177
