13
Coordinates from ORCA-job run
  C   -0.68740979474496     -0.36792842307042      0.04822753748496
  C   0.55780270335861     -0.09578860654073      0.88487282222088
  Br  -1.86742895303385     -1.41120899536763      1.22641663535942
  H   0.31371122692598      0.39086500613688      1.82795784635603
  H   1.07423673453415     -1.03887440142745      1.07084309415235
  C   -1.40301236018947      0.88349325329061     -0.24806808071884
  N   -1.96847400045866      1.87649441677279     -0.52612369846115
  N   -0.38114246123825     -1.18965283706262     -1.09291264323622
  H   0.19764260966854     -0.65243802129244     -1.73007709244517
  H   -1.23267022008823     -1.46347317777029     -1.56929893924208
  N   1.54555832681271      0.80453741840217      0.19963769059166
  O   1.40783203251239      1.02278642400872     -1.00305554311745
  O   2.44235415594104      1.23818794392040      0.91058037105562
