13
Coordinates from ORCA-job run
  C   -0.79244037142170     -0.23964825445545      0.09777200630421
  C   0.60481367744493     -0.26661163408776      0.72594241369187
  Br  -1.85931875974995     -1.39383481548750      1.29741873461868
  H   0.60255809729969      0.10719645886263      1.75035791641418
  H   1.00515103306049     -1.28198652504779      0.71948549339719
  C   -1.36080854160433      1.10793454548179      0.17617892640180
  N   -1.80015760034186      2.19451401954354      0.25561332644468
  N   -0.93336245288346     -0.75091188729617     -1.23407086477900
  H   -0.55986563378261     -1.69010571521177     -1.30251059768435
  H   -0.46211604407827     -0.13544595642746     -1.88636850517478
  N   1.59904183502977      0.57777862771092     -0.02142043225180
  O   2.72720975326580      0.59897936576378      0.45358886872320
  O   1.22829500776152      1.17214177065125     -1.03198728610587
