13
Coordinates from ORCA-job run
  C   -0.69061941617084     -0.10838751797506     -0.09401530022031
  C   0.80928290614688     -0.25342335314491      0.19526606026307
  Br  -1.60315810366103      0.13993417617577      1.62980152935898
  H   0.98053214829467     -1.15631302088421      0.77934510899148
  H   1.35214633048934     -0.29318274556358     -0.75306761686408
  C   -0.98829630842876      1.04486622217919     -0.94512456561995
  N   -1.24634466582372      1.90721821401195     -1.70028841735537
  N   -1.24967713128874     -1.27778816601339     -0.72278567748169
  H   -1.03130409960798     -2.11792137323618     -0.20070967926577
  H   -0.93590445359950     -1.36247868857154     -1.68288305803842
  N   1.38818456049494      0.87871021854529      0.97548402903255
  O   1.97344952147854      0.59664263980547      2.01686770005500
  O   1.24070871167621      2.00112339467119      0.50110988714450
