13
Coordinates from ORCA-job run
  C   -0.72481911306809     -0.15440635116099     -0.02595877361781
  C   0.53540943647524      0.63789651349913      0.38230615283663
  Br  -1.12597312086096     -1.38780184482833      1.47113317205458
  H   0.36196905448311      1.22957821991734      1.27879657569246
  H   0.83775280971775      1.27187370595957     -0.45543675405985
  C   -1.81963836357010      0.81669215213972     -0.08551419457747
  N   -2.66472454677693      1.62765716151564     -0.18131618575626
  N   -0.68823733918384     -0.89626242140203     -1.24475730416451
  H   0.18459128378655     -1.40162344263845     -1.33038740486215
  H   -0.83610889739355     -0.29734968295400     -2.04765840105996
  N   1.68855712737974     -0.25961325737170      0.67744548845872
  O   2.23697916616783     -0.13319729029173      1.76589197033148
  O   2.01324250284327     -1.05444346238417     -0.20454434127587
