13
Coordinates from ORCA-job run
  C   -0.58308309962440     -0.11864869221309     -0.20029194198276
  C   0.87489306830373     -0.27796719956176      0.22241928295991
  Br  -1.65223008165567      0.26443346284361      1.46712740436964
  H   1.49288694313559     -0.33789022863849     -0.67598128929614
  H   0.98875531319500     -1.17295668914037      0.83219552618386
  C   -0.81552058383119      1.01358728923291     -1.09568407229566
  N   -1.05431453983345      1.86057144315779     -1.87437076767118
  N   -0.97058315737242     -1.31532047089961     -0.85815285880774
  H   -0.94093816792944     -2.11075797417832     -0.23151747233302
  H   -1.89398526206551     -1.24121332148133     -1.26657830896785
  N   1.38385344026381      0.86316712316115      1.03270856150757
  O   1.91878558734748      0.59023342996895      2.10289118351050
  O   1.25148054006650      1.98176182774856      0.54623475282288
