13
Coordinates from ORCA-job run
  C   -0.77824568651837     -0.28570013975216      0.05724330679247
  C   0.56909711147133     -0.19506983938653      0.79988783167334
  Br  -1.94363713289090     -1.29399194916114      1.28259940927133
  H   0.45152128953138      0.20769678076893      1.80339680887155
  H   1.03805883655037     -1.18038439715296      0.82504997107241
  C   -1.33302748646478      1.06343285587425     -0.08865382668960
  N   -1.72459909059618      2.16483794255725     -0.20982651066541
  N   -0.80864446766372     -0.95310447237790     -1.21303738221611
  H   -0.18529285439630     -0.47697333881293     -1.85669797589546
  H   -0.50234982807117     -1.91415669125160     -1.10988925298343
  N   1.50540767680945      0.72637594628427      0.08265641488958
  O   1.98768689434530      1.64995044684755      0.72994081032795
  O   1.72402473789361      0.48708685556295     -1.10466960444862
