13
Coordinates from ORCA-job run
  C   -0.71626523089841     -0.20465347944776     -0.00748374822393
  C   0.80235490697930     -0.29528845383470      0.23779667054170
  Br  -1.68110117417248     -0.30181706184712      1.69714773743962
  H   1.01942611909555     -1.09564542251228      0.94648581363521
  H   1.29069540007072     -0.47449778548951     -0.71993146125233
  C   -1.03883453748136      1.07344222321369     -0.64634108886943
  N   -1.26931851089681      2.10963300921261     -1.15066401740570
  N   -1.21212386232773     -1.27726378070759     -0.83362286780445
  H   -0.95461582417930     -2.18051854210954     -0.45361115489923
  H   -0.87439146112144     -1.18602040878418     -1.78550480235883
  N   1.39771769475888      0.96419350577630      0.77583270984574
  O   2.14347490877348      1.58378368968464      0.01942349470523
  O   1.09298157139960      1.28365250684545      1.92047271464641
