13
Coordinates from ORCA-job run
  C   -0.60428576707404     -0.18458185240710     -0.05568631603051
  C   0.88291345148089     -0.26041061030916      0.28382610330779
  Br  -1.61559742317391      0.09523715563603      1.59468303232284
  H   1.04400216740666     -1.10263150150640      0.95200919974464
  H   1.46229686511643     -0.36713262404767     -0.63739331042752
  C   -0.93810341275977      0.92245636797563     -0.96258563212038
  N   -1.26012764894405      1.70791138014328     -1.77678998396314
  N   -0.97404701529715     -1.48344544523092     -0.58391597138533
  H   -0.54547825917192     -1.60593469144677     -1.49764369072931
  H   -1.98014757535612     -1.53317634869118     -0.70270556162016
  N   1.38304292167757      0.96648046180844      0.96342386185816
  O   1.83727005408817      0.83196675864189      2.09594618700124
  O   1.30826164200722      2.01426094943393      0.32683208204168
