13
Coordinates from ORCA-job run
  C   -0.60072278280686     -0.19211413174941     -0.06495255751085
  C   0.88432857483014     -0.25301706008675      0.28708411094258
  Br  -1.63115757112372      0.04171541688081      1.58096935109141
  H   1.05132572302892     -1.10586889296897      0.94019079797583
  H   1.47304627991741     -0.33388856010435     -0.63083828511249
  C   -0.94250888715034      0.92738946746881     -0.95343698476227
  N   -1.26917180410200      1.72391703949243     -1.75497186547277
  N   -0.94672466236531     -1.48560400133772     -0.62128248074145
  H   -0.50858903170754     -1.58437873836975     -1.53330726501494
  H   -1.95083360390294     -1.54827622392451     -0.74980947215257
  N   1.36027954736067      0.96736110092330      0.99452261873615
  O   1.80517793929248      0.81789878712257      2.12882655970965
  O   1.27655027872908      2.02586579665353      0.37700547231171
