13
Coordinates from ORCA-job run
  C   -0.69343612086267     -0.35080268727672      0.07336418739207
  C   0.57508516613388     -0.08261859706280      0.87542697594037
  Br  -1.86936534280305     -1.33546065887601      1.30517852070126
  H   0.36179448003961      0.43596980404971      1.80890970841619
  H   1.07505511062985     -1.03111525239269      1.07790185169724
  C   -1.38964374122215      0.90694481594550     -0.24211992262640
  N   -1.94202943541881      1.90320210557027     -0.53430252141843
  N   -0.42939871761249     -1.21026590853746     -1.05032664285662
  H   0.14597570955904     -0.70318486283818     -1.71473843863580
  H   -1.29665579048477     -1.47860946891994     -1.50069372298893
  N   1.56673649115960      0.77552748629494      0.14343683633473
  O   1.40599437499506      0.96473771326666     -1.06132886274968
  O   2.48988781588690      1.20667551077674      0.82129203079401
