13
Coordinates from ORCA-job run
  C   -0.69052178660791     -0.11676254038051     -0.08597734201750
  C   0.81396104245596     -0.24259984575096      0.18862389577364
  Br  -1.58779530558175      0.13565643483751      1.64522164657068
  H   1.34704895726948     -0.28343508071983     -0.76520135109777
  H   1.00127688119075     -1.13932378531273      0.77725202856954
  C   -1.00984989821403      1.02620779860383     -0.94302734129326
  N   -1.28451757530941      1.87981480659740     -1.70222657040943
  N   -1.24276393305473     -1.29762888700163     -0.69924025041518
  H   -0.93718269511793     -1.38725554069638     -1.66156701082955
  H   -1.00968603749870     -2.13064446464103     -0.17202795887693
  N   1.38799199816466      0.90183143997409      0.95422955670835
  O   1.22468400744661      2.01865773043126      0.47185956401297
  O   1.98635434485700      0.63448193405900      1.99208113330444
