13
Coordinates from ORCA-job run
  C   -0.60108051291149     -0.19515677538917     -0.05341318721822
  C   0.88794206977183     -0.24439951105362      0.28281908628082
  Br  -1.61324998467703      0.07566711039021      1.59794931744983
  H   1.06469649817509     -1.08039531260777      0.95482317835866
  H   1.46670519360370     -0.34587918263403     -0.63936563028152
  C   -0.95572195303999      0.90155233199482     -0.96497117855636
  N   -1.29293054441725      1.67789209694822     -1.78178037614689
  N   -0.95020093901324     -1.50272359502907     -0.57438707453202
  H   -1.95582915839413     -1.57145256593813     -0.68700572785790
  H   -0.52493294571997     -1.62107474627416     -1.49017745304545
  N   1.36934587515211      0.99407578359862      0.95506103677278
  O   1.27455040361324      2.03745393756840      0.31393216661713
  O   1.82970599785711      0.87244042842568      2.08651584215913
