13
Coordinates from ORCA-job run
  C   -0.58885411426002     -0.23185449306062     -0.04407260915916
  C   0.90405793843478     -0.19287500779489      0.27659318051401
  Br  -1.59893312530472     -0.01528380712120      1.61664972577659
  H   1.13450273494472     -1.00971741498685      0.95588366549641
  H   1.47769343912313     -0.27151421527457     -0.65087477273228
  C   -1.01594742377236      0.83995968499446     -0.95388410588945
  N   -1.40365104069495      1.59625536197558     -1.76745435785333
  N   -0.86595463241533     -1.55916458726962     -0.55843741485596
  H   -0.44791839299051     -1.65311179010922     -1.48039914686035
  H   -1.86715462697457     -1.68898718980044     -0.65585310626061
  N   1.31981283245968      1.07937663497687      0.92913677329412
  O   1.18894223776845      2.10356236340244      0.26341280510402
  O   1.76340417368170      1.00335446006807      2.07129936342599
