13
Coordinates from ORCA-job run
  C   -0.69754777883285     -0.20197968241296      0.00239552047189
  C   0.56756817658126     -0.20706888701824      0.85693057572525
  Br  -1.96570379096315     -1.42078978258114      1.04045439800464
  H   0.94208517713045     -1.22328949344422      0.96750832522816
  H   0.38497750879556      0.25478724507159      1.82531260685765
  C   -1.36921841906679      1.09609556195521     -0.01536063559608
  N   -1.93098471731931      2.12777335422150     -0.04561720056549
  N   -0.41715154656611     -0.62350613788496     -1.30557889437123
  H   -1.22115347362297     -0.60812132548705     -1.91838525925196
  H   0.05704543824329     -1.51664850907718     -1.34513744792840
  N   1.62796197579219      0.58018479769259      0.15772173774554
  O   1.51822922542769      1.80198552060856      0.19740608357762
  O   2.50389222440073     -0.05942266164371     -0.41864980989759
