13
Coordinates from ORCA-job run
  C   -0.68832945732319     -0.12727857525710      0.08819011212355
  C   0.57527039217716      0.66093420324823      0.45247610389630
  Br  -1.28631870649412     -1.22331790845353      1.60508492799357
  H   0.47744669402041      1.11881106717315      1.43467378375786
  H   0.76521097216741      1.41300506886095     -0.31494218746620
  C   -1.75774835666945      0.86028041133786     -0.14020637253190
  N   -2.58646089367766      1.65572946136869     -0.39402454050003
  N   -0.42451122947321     -1.00422739474203     -1.01329321062357
  H   -1.26917722193599     -1.45952586125471     -1.33518149787186
  H   0.02495875753396     -0.51414247272138     -1.77915598379448
  N   1.76427313524399     -0.23642206065926      0.46704399246642
  O   2.01576127348829     -0.81813504341803      1.51700097736056
  O   2.38962464094241     -0.32671089548284     -0.58766610481022
