13
Coordinates from ORCA-job run
  C   -0.68694263865867     -0.36909344152253      0.04303922525220
  C   0.55662640423841     -0.10442460324405      0.88435823447441
  Br  -1.86737222205358     -1.42671557722339      1.20819501090411
  H   0.31006087866159      0.37173015369609      1.83215369583859
  H   1.07404149184170     -1.04865075588008      1.06167354822333
  C   -1.40362397430422      0.88479850331398     -0.23999026377900
  N   -1.96923789013817      1.88066813217863     -0.50712605424657
  N   -0.37831223274940     -1.17784335830167     -1.10657875949507
  H   -1.22895718356989     -1.44667651949541     -1.58744932265698
  H   0.20100341176787     -0.63314172261899     -1.73689996730302
  N   1.54454723770237      0.80415645833112      0.21041498816626
  O   2.43937235009473      1.23157755126926      0.92741275789164
  O   1.40879436716725      1.03461517949705     -0.99020309326990
