13
Coordinates from ORCA-job run
  C   -0.56572614078235     -0.13082502303794     -0.23889338458661
  C   0.85052926276152     -0.26422489371705      0.31430384020366
  Br  -1.76564909682570      0.37572691895779      1.30149333312344
  H   0.90451699853789     -1.11168714031180      0.99590792961441
  H   1.54007608558046     -0.39394235870148     -0.52253711565230
  C   -0.71259922271711      0.93415152091082     -1.22991558622741
  N   -0.87895535896889      1.72288598905969     -2.08490011515785
  N   -0.90864434076964     -1.37096108043937     -0.83902487863786
  H   -1.79611227827688     -1.32338019819317     -1.32424662298769
  H   -0.93753132794018     -2.11867642353612     -0.15594881154014
  N   1.30279121432690      0.93199083393442      1.07778043824605
  O   1.21725736722640      2.01272985710056      0.50334273459146
  O   1.75004683784759      0.73621199797365      2.20363823901083
