13
Coordinates from ORCA-job run
  C   -0.68972600451452     -0.35458367713535      0.09169585797857
  C   0.60810973602286     -0.10137511460964      0.85060405306426
  Br  -1.81573978196560     -1.37009421513378      1.34503028148886
  H   1.11736818172956     -1.05284843592610      1.01200467477640
  H   0.42970518216871      0.39518820982817      1.80319951210871
  C   -1.39903353796126      0.90837374492062     -0.16841138982940
  N   -1.96183546741998      1.91050434558542     -0.41752003430178
  N   -0.46767640296852     -1.18764088663015     -1.06058989214384
  H   0.08135465887137     -0.66433416205768     -1.73464134963897
  H   -1.35118954902945     -1.44753032440914     -1.48360648009748
  N   1.56950747427726      0.77622894614598      0.10136294826154
  O   2.51607290284970      1.19553699792827      0.75384462618615
  O   1.36308260793985      0.99157457149337     -1.09197280785303
