13
Coordinates from ORCA-job run
  C   -0.66911097086360     -0.00898644698019     -0.14578922306600
  C   0.57952816416459      0.55594789627506      0.53357388041818
  Br  -1.25929860593733     -1.59537815045869      0.98956132521745
  H   0.35139138166659      0.91474009327210      1.53404858834918
  H   0.98233276849976      1.35798258912398     -0.09088848820624
  C   -1.74676065652097      0.96812371054822      0.01352483477948
  N   -2.58960563195284      1.77881820017286      0.12889430185894
  N   -0.47375996444195     -0.29606975006850     -1.50730772512202
  H   0.30675375008027     -0.92494353122259     -1.64732080176212
  H   -1.31240553589357     -0.63913144218427     -1.95654383063740
  N   1.66520034779542     -0.45876855610404      0.68284729756229
  O   2.22187151487380     -0.51953746611093      1.77184494062821
  O   1.94486343852983     -1.13279714626301     -0.30744510001997
