13
Coordinates from ORCA-job run
  C   -0.57313653040085     -0.13532935997554     -0.21642422865877
  C   0.92706345089172     -0.17266490465002      0.06330902609109
  Br  -1.51461414911517     -0.67200835524631      1.48408147020774
  H   1.45114717781452      0.25697725994023     -0.79302628998304
  H   1.24680965312031     -1.19855164669547      0.23942941969032
  C   -1.07563522610025      1.19638395661364     -0.55112846078081
  N   -1.52822375418636      2.22354316204046     -0.89867177535910
  N   -0.82664709112559     -1.01166941140003     -1.30459435715830
  H   -0.60671127540777     -1.97167565198976     -1.06708312349494
  H   -1.78699365673547     -0.95434806496614     -1.61997303501006
  N   1.32338479340409      0.61483731847148      1.26373787993262
  O   0.96257069554483      1.78707965980243      1.29229082439679
  O   1.99998591229600      0.03742603805505      2.10905265012646
