13
Coordinates from ORCA-job run
  C   -0.68393796120217     -0.12854365829885     -0.11561972680144
  C   0.80569990901654     -0.22494743188349      0.23850118417078
  Br  -1.67043673534098      0.17161393258157      1.55820146848585
  H   0.97236768707662     -1.09704308683738      0.86901972048054
  H   1.38739665963022     -0.29416526702107     -0.68476246179116
  C   -0.97386479258468      0.97899636617132     -1.02787249246225
  N   -1.22503296531590      1.80031135353158     -1.82972829319175
  N   -1.19043479277212     -1.33757003760939     -0.71380259186629
  H   -0.83520423016396     -1.45596903049527     -1.65581796660429
  H   -0.97373109467044     -2.14853706031274     -0.14679730774656
  N   1.32899516292453      0.95396686144359      0.98836388221603
  O   1.17777619441491      2.05002108985205      0.45718257068307
  O   1.88040695898742      0.73186596887809      2.06213201442747
