13
Coordinates from ORCA-job run
  C   -0.68238311999924     -0.11455176195930     -0.13954313614033
  C   0.79058198179221     -0.23908120345649      0.27237254565338
  Br  -1.72271855035459      0.24906691021513      1.48801154789358
  H   1.40397990503543     -0.34199215617120     -0.62694406009121
  H   0.91263878000485     -1.10053568072530      0.92709101606006
  C   -0.90844240965082      0.97837819836534     -1.08687237259798
  N   -1.10308254055969      1.78930382709307     -1.91448328565709
  N   -1.19715722113620     -1.32467391029860     -0.72870271607304
  H   -1.02717667056254     -2.12591102210777     -0.13265925703252
  H   -0.80509438174431     -1.47717049905765     -1.65105839939096
  N   1.31390904108241      0.94312554190511      1.01706120511490
  O   1.81785129194152      0.73151464436163      2.11602458285310
  O   1.20709389415096      2.03152711183603      0.45970232940812
