13
Coordinates from ORCA-job run
  C   -0.73943533661307     -0.08157409657162     -0.03393775836878
  C   0.59157935291229      0.56441287994366      0.40590240840318
  Br  -1.26645837719216     -1.32874790480333      1.40883514668068
  H   0.95879636319402      1.19993920779059     -0.40448386484344
  H   0.47293018779526      1.13492624345372      1.32492352942437
  C   -1.72998144524047      0.99724064578884     -0.05462002804608
  N   -2.47780796488530      1.90245040773805     -0.10263221443121
  N   -0.77451306505710     -0.77499788058564     -1.28250267476298
  H   0.03565632641360     -1.37456546603651     -1.37820056848469
  H   -0.82826226258459     -0.12684734345981     -2.05932849834402
  N   1.65088268091142     -0.45201812181381      0.66557885977450
  O   1.89085421733938     -1.24830187513556     -0.24166275215239
  O   2.21575932300670     -0.41091669630858      1.75212841515084
