13
Coordinates from ORCA-job run
  C   -0.66312794617901      0.01676261125107     -0.17008819684417
  C   0.57675452704961      0.52197384819155      0.56969017839437
  Br  -1.34379788603745     -1.58061182428011      0.89847562390463
  H   1.02848905759607      1.32605752658511     -0.01709398486092
  H   0.32281361503196      0.86089453171861      1.57084094450496
  C   -1.71486000964966      1.02322037650047     -0.02105039141406
  N   -2.53345708400539      1.85947191964598      0.08629289916784
  N   -0.42711665331760     -0.23904402433672     -1.53104844428915
  H   0.33778327527628     -0.88852551596819     -1.66230508205506
  H   -1.25939355854116     -0.54029466365079     -2.02035359775687
  N   1.62270642348285     -0.53191431056018      0.72981785745628
  O   2.13202773075291     -0.64451604474813      1.83772673244163
  O   1.92117850854057     -1.18347443034866     -0.26990453864947
