13
Coordinates from ORCA-job run
  C   -0.59785272967328     -0.18902089994650     -0.09384149000228
  C   0.85551948770849     -0.24044821525721      0.37278217725841
  Br  -1.74267717267594      0.19381513395644      1.44483406405585
  H   0.95749919364466     -1.03808852314417      1.10427354795799
  H   1.50937543794547     -0.40362240980079     -0.48830402595457
  C   -0.85049607319333      0.85751353911452     -1.09414872975431
  N   -1.10080054726466      1.58708324352761     -1.98220879414968
  N   -0.92709275361933     -1.51941935879928     -0.56764608780020
  H   -0.42819256301364     -1.69703905190755     -1.43545554227688
  H   -1.92070032681187     -1.57954595855625     -0.76215628892365
  N   1.30132101570811      1.02828692266241      1.01224242449744
  O   1.28546991697027      2.03260439287145      0.30527893462310
  O   1.65762711427505      0.96788118527931      2.18534981046878
