13
Coordinates from ORCA-job run
  C   -0.57010113698147     -0.13672706801517     -0.22425395551555
  C   0.86330903586514     -0.25429996383447      0.28737511992916
  Br  -1.73380273674282      0.33726879802272      1.35356984625522
  H   1.53032711133400     -0.36215758314726     -0.57056790560289
  H   0.95032060255911     -1.10944910681658      0.95585938966249
  C   -0.75933093092955      0.93510666489103     -1.20056773077882
  N   -0.95926818456550      1.72952763132372     -2.04298783551949
  N   -0.91160465679296     -1.37609543962528     -0.82679583221880
  H   -0.91360137362651     -2.13008872639361     -0.15016303267868
  H   -1.81098957251639     -1.33637008661310     -1.29003069203428
  N   1.31751941908816      0.93997921575185      1.05241271747966
  O   1.20295768703806      2.02506218338538      0.49133704121135
  O   1.79526473627072      0.73924348107078      2.16481286981064
