13
Coordinates from ORCA-job run
  C   -0.61350743191130     -0.14006049422476     -0.08559660883394
  C   0.82290954460429     -0.28861613256221      0.41273437368045
  Br  -1.73451002412668      0.48844650621325      1.38830214035683
  H   1.46433800697180     -0.60128917992529     -0.41555578496123
  H   0.83657373556623     -1.01529609631867      1.22113519045801
  C   -0.75004347914521      0.83238843851524     -1.17885903701824
  N   -0.91333505801532      1.50565882477265     -2.12943151623691
  N   -1.06462060288681     -1.46994276303338     -0.44641651410048
  H   -2.05699776758817     -1.45307263729018     -0.65504359012596
  H   -0.57433588968034     -1.77273479407555     -1.28389640530512
  N   1.38652714579237      0.98799126731875      0.93194234224399
  O   1.51630709616925      1.89920990787732      0.11822699977993
  O   1.67969472424991      1.02631715273283      2.12345841006268
