13
Coordinates from ORCA-job run
  C   -0.57394973264044     -0.25623503645472     -0.08529211703757
  C   0.94279676425186     -0.18893003329925      0.08240395341210
  Br  -1.37040906532182     -0.87181342840773      1.59168552752937
  H   1.31071385680717     -1.18395345298549      0.31974888920679
  H   1.39359699539818      0.19372519146221     -0.83722161937274
  C   -1.18121195716539      1.04409959918376     -0.40115133303130
  N   -1.72104918207945      2.02202080498954     -0.76979057170449
  N   -0.83365897208381     -1.26591035930191     -1.09289913743454
  H   -1.82932671006434     -1.45104187336469     -1.14747570350670
  H   -0.53010753997365     -0.91900457026554     -1.99896018688218
  N   1.36027381691618      0.72966748694059      1.17747560222997
  O   1.08516293671176      1.91771057532107      1.02882798883306
  O   1.94816878924375      0.23066509618215      2.13264870775822
