13
Coordinates from ORCA-job run
  C   -0.68441122374419     -0.11635082612587     -0.12663581069987
  C   0.79467004988456     -0.23397619761767      0.26438039810750
  Br  -1.69992273222070      0.27564781217825      1.51006493298082
  H   1.39385060949132     -0.35151693067790     -0.64262144002608
  H   0.92733202862758     -1.08477178966757      0.93086952621362
  C   -0.92467224903399      0.95943345788176     -1.09004963598216
  N   -1.13075091644636      1.75291945017523     -1.93169740772680
  N   -1.20824106032669     -1.33637475622651     -0.68663654209338
  H   -1.02965556066491     -2.12711060983612     -0.07905331106017
  H   -0.83013575932647     -1.50563944312128     -1.61200266019381
  N   1.32919681922107      0.96033881888678      0.98098632307123
  O   1.21602468354195      2.03871226305626      0.40578992404467
  O   1.84771531099685      0.76768875109464      2.07660570336443
