13
Coordinates from ORCA-job run
  C   -0.59912253674619     -0.18933106405437     -0.08401193338855
  C   0.85937441557348     -0.23548136290163      0.36707744181156
  Br  -1.72543854441995      0.22256393476090      1.46071086730256
  H   1.50313488984222     -0.41604428342423     -0.49815726616369
  H   0.96774850699851     -1.02016051556907      1.11155986855184
  C   -0.86168462346774      0.83964772943687     -1.09977403603270
  N   -1.12136328120954      1.55577638472202     -1.99609842161734
  N   -0.93585288961376     -1.52743270271609     -0.53031741095753
  H   -0.44624024737780     -1.72178646200639     -1.39982482992831
  H   -1.93154311031165     -1.58906046120843     -0.71337881524884
  N   1.31496190282531      1.04337612305605      0.97880714160436
  O   1.68548466093728      1.00246185826822      2.14840342044836
  O   1.29154085696981      2.03547082163615      0.25500397361828
