13
Coordinates from ORCA-job run
  C   -0.77921821280835     -0.26922580235870      0.06856972404889
  C   0.55659927479898     -0.19912552270835      0.83551443253548
  Br  -1.96644968703485     -1.30097386750065      1.25726061547534
  H   0.98555990254840     -1.19854815924614      0.91010514986220
  H   0.43222027863878      0.25818428870991      1.81482138705605
  C   -1.33693644888212      1.07889933551180     -0.06770349940957
  N   -1.76291142937272      2.16528275697057     -0.20655744493558
  N   -0.77558066498868     -0.90869335822038     -1.21298803565505
  H   -0.37462275527230     -1.83712210237189     -1.14547357244400
  H   -0.23514539573903     -0.36589718969343     -1.87788171943868
  N   1.52091885229531      0.64710679115157      0.07290876372238
  O   1.75410504279916      1.77120516966725      0.50965310411610
  O   1.98146124301742      0.15990766008844     -0.96022890493355
