17

C	-0.416204	-0.008509	-1.440949
C	0.0	0.0	0.0
Cl	0.213658	1.389237	-2.288886
H	1.094808	0.0	0.0
N	0.070109	-1.24653	-2.198253
O	-0.3405	-1.345605	-3.350417
O	0.859909	-1.990602	-1.632769
N	-1.941285	-0.076467	-1.594752
O	-2.566924	0.957118	-1.793982
O	-2.417423	-1.192194	-1.383965
C	-0.465327	-1.172328	0.863981
H	0.06332	-1.088286	1.817206
H	-0.183429	-2.119379	0.411258
H	-1.54212	-1.160045	1.048272
C	-0.442129	1.247406	0.600037
N	-0.808181	2.22381	1.145191
H	2.525854	0.0	0.0
