17

C	-0.464191	-0.036985	-1.413327
C	0.0	0.0	0.0
Cl	-2.22865	-0.212205	-1.661479
H	1.093969	0.0	0.0
N	-0.015978	1.186752	-2.20938
O	-0.323527	1.187311	-3.395303
O	0.64059	2.034442	-1.617471
N	0.264386	-1.198889	-2.090264
O	1.3961	-0.922911	-2.484919
O	-0.25915	-2.308191	-2.046684
C	-0.347264	-1.264672	0.788387
H	0.187723	-2.118088	0.368898
H	0.017093	-1.122235	1.808507
H	-1.418791	-1.475794	0.808448
C	-0.49904	1.173023	0.685595
N	-0.908349	2.075068	1.320649
H	2.514489	0.0	0.0
