18

C	0.0	0.0	0.0
C	-0.474275	0.111974	-1.456778
F	1.416329	0.0	0.0
H	-1.567545	0.223832	-1.383691
C	-0.48446	1.15906	0.835711
H	-0.153035	2.103988	0.402435
H	-0.066696	1.0733	1.843047
H	-1.577205	1.126548	0.872582
N	-0.446626	-1.248652	0.531213
H	-0.648631	-1.189986	1.518789
H	0.240977	-1.968049	0.354451
C	-0.15366	-1.133101	-2.284833
H	-0.473055	-0.992908	-3.319131
H	-0.701361	-1.977597	-1.867339
H	0.919247	-1.340958	-2.278446
C	0.09706	1.301745	-2.090671
N	0.572702	2.235802	-2.621276
Br	-3.985522	0.0	0.0
