18

C	0.0	0.0	0.0
C	-0.45669	0.18588	-1.470438
F	1.379648	0.0	0.0
H	-1.549936	0.292007	-1.416671
C	-0.455216	1.160972	0.85911
H	-0.036476	2.095873	0.480043
H	-1.545495	1.21112	0.85683
H	-0.094921	0.990487	1.875398
N	-0.44977	-1.225496	0.594758
H	-0.236645	-2.013301	-0.005984
H	-1.463512	-1.1656	0.693391
C	-0.097328	-0.999273	-2.370131
H	-0.325253	-0.771009	-3.413035
H	-0.688589	-1.872546	-2.090421
H	0.966659	-1.235285	-2.289721
C	0.099034	1.418367	-2.030701
N	0.530573	2.405773	-2.501242
Br	-3.841723	0.0	0.0
