18
Coordinates from ORCA-job run
  C   0.49437074144429      0.57461588526234      0.04644807085312
  C   -0.61299376998510     -0.45821028398276      0.21002831379650
  F   0.03172882275994      1.58735518168942     -0.75406439882404
  H   -0.24393249112109     -1.19318131309574      0.93017946237174
  C   1.81641166407735      0.08553565333610     -0.48912752400773
  H   2.53997061022926      0.90282759949240     -0.46474122182481
  H   2.19063149868981     -0.74200504423968      0.11233619487468
  H   1.69446416199195     -0.23357826607290     -1.52405710212948
  N   0.74084147185781      1.17941703397039      1.42011356781767
  O   0.55706889651751      2.37613712189616      1.57252187418478
  O   1.13836848400212      0.38216107805051      2.26409610553241
  C   -0.93089852249344     -1.14622433053861     -1.11694875587033
  H   -1.20304475054281     -0.40793688892444     -1.87514283895188
  H   -1.77954976816453     -1.81989700992037     -0.97829298679656
  H   -0.09429278234222     -1.74066457597182     -1.49185470830664
  N   -1.73508233776526      0.23251658453811      0.83246236301246
  H   -2.42849822626568     -0.43514102628206      1.14370590579998
  H   -2.17356370288990      0.85527260079295      0.16433767846812
