18
Coordinates from ORCA-job run
  C   0.80677951236044      0.38438258308808     -0.20422102166080
  C   -0.47377239915695     -0.31856398102593     -0.67374256354093
  F   1.71636426853325      0.29476997597168     -1.22696876968427
  H   -0.67781582530546      0.12710504133515     -1.65485498690848
  C   1.43728754622983     -0.12836431984308      1.05803659152585
  H   2.34162175476982      0.44324906016594      1.27052604413607
  H   1.69520610260909     -1.17252833350152      0.88916888852411
  H   0.76351425692833     -0.04254443602038      1.90779249645647
  N   0.47309022403070      1.86177973675757     -0.08451166305883
  O   0.37248743543155      2.48710208261413     -1.13499699706207
  O   0.26137371142738      2.30530367230381      1.04236897636424
  C   -1.66023529312691     -0.07793216390506      0.24819362686022
  H   -1.46627866297104     -0.48299564838727      1.24498817141674
  H   -2.53672715129661     -0.58436810467076     -0.16167080502086
  H   -1.90132232716125      0.98023570421102      0.35445865266822
  N   -0.15812303007262     -1.73852421599750     -0.81209924623218
  H   -0.80541047540485     -2.30610751866956     -0.28267107616051
  H   -0.18903964782468     -2.02999913442632     -1.77779631862299
