18
Coordinates from ORCA-job run
  C   0.53896254957308      0.53957832293963     -0.03362461955560
  C   -0.62072711222948     -0.44774824050545      0.11712785260878
  F   0.23247613472879      1.48340620399473     -0.96597593204295
  H   -0.23981013221004     -1.29152058994068      0.70630622172893
  C   1.88530356092291     -0.06497643286589     -0.35487455163926
  H   2.62750749712910      0.73270771088541     -0.42431011954361
  H   2.18351618563584     -0.77002503836779      0.42067727789941
  H   1.83973707664569     -0.57656449925694     -1.31652472421122
  N   0.68665454434859      1.27121593644312      1.29242518758115
  O   0.74642349114539      2.49000372212077      1.28544148914116
  O   0.76857413871940      0.54008241839055      2.27867690341667
  C   -1.06881634579488     -0.94174575635547     -1.25138115098994
  H   -1.50858924051614     -0.11714455693719     -1.81406724054713
  H   -0.24592111494455     -1.36022066760412     -1.83207662831338
  H   -1.82070278019427     -1.72505047127217     -1.12867398849840
  N   -1.72598157826375      0.24173702011385      0.77512530606539
  H   -2.61262600412146     -0.13265729460203      0.46566729278151
  H   -1.66898087057420      0.12892221281966      1.77906142411850
