17

C	-0.528219	0.009212	-1.438752
C	0.0	0.0	0.0
Cl	0.305849	1.224991	-2.413101
H	1.098688	0.0	0.0
N	-0.295517	-1.368391	-2.064919
O	-1.243746	-2.151271	-1.998604
O	0.815257	-1.615916	-2.5041
C	-1.96627	0.275364	-1.489125
N	-3.117765	0.509213	-1.461097
C	-0.491676	-1.205308	0.784402
H	-0.070743	-1.118631	1.789387
H	-0.124484	-2.144653	0.366925
H	-1.586363	-1.257002	0.859885
N	-0.406279	1.276389	0.584757
H	0.419132	1.676162	1.01338
H	-1.121013	1.151795	1.291663
F	2.588652	0.0	0.0
