17

C	-0.464933	0.017078	-1.463451
C	0.0	0.0	0.0
Cl	0.373652	1.273165	-2.379514
H	1.093782	0.0	0.0
N	-0.145196	-1.342831	-2.09107
O	1.004405	-1.549483	-2.43881
O	-1.070918	-2.152919	-2.114399
C	-1.906511	0.233551	-1.58311
N	-3.064964	0.432354	-1.607539
C	-0.499223	-1.232408	0.736857
H	-1.594215	-1.319539	0.746215
H	-0.142697	-1.15336	1.766881
H	-0.077405	-2.150976	0.324921
N	-0.447326	1.256307	0.586409
H	0.341597	1.653164	1.080594
H	-1.212781	1.115594	1.234098
F	2.590176	0.0	0.0
