17

C	-0.444282	-0.07129	-1.448231
C	0.0	0.0	0.0
Cl	-2.2244	-0.279872	-1.645207
H	1.093804	0.0	0.0
N	-0.043616	1.243515	-2.144088
O	1.136608	1.302533	-2.457067
O	-0.88426	2.113946	-2.282839
C	0.208608	-1.161513	-2.169319
N	0.693659	-2.06098	-2.748863
C	-0.422949	-1.24029	0.769651
H	-0.111209	-2.156428	0.260376
H	0.089534	-1.215999	1.734466
H	-1.506146	-1.283272	0.939761
N	-0.431082	1.257718	0.579318
H	-1.244492	1.148107	1.17389
H	0.342502	1.612992	1.127793
F	2.567681	0.0	0.0
