17

C	-0.448658	-0.023281	-1.449881
C	0.0	0.0	0.0
Cl	-2.235402	-0.146253	-1.648571
H	1.094212	0.0	0.0
N	0.015408	1.282269	-2.121266
O	-0.783768	2.194397	-2.251864
O	1.200056	1.28889	-2.427405
C	0.152487	-1.128741	-2.191797
N	0.5695	-2.057559	-2.778505
C	-0.442546	-1.25338	0.735796
H	-0.122313	-2.160128	0.215404
H	0.048278	-1.249493	1.712493
H	-1.529511	-1.29585	0.882131
N	-0.42345	1.248273	0.607938
H	-1.242008	1.131591	1.192991
H	0.349072	1.582208	1.170519
F	2.569905	0.0	0.0
