17

C	-0.515704	-0.00644	-1.42548
C	0.0	0.0	0.0
Cl	-2.312584	-0.093837	-1.525812
H	1.094116	0.0	0.0
N	-0.061653	1.291357	-2.116307
O	1.108311	1.278214	-2.474095
O	-0.850049	2.215302	-2.216473
C	0.017691	-1.119876	-2.205556
N	0.432966	-2.037551	-2.808939
C	-0.418691	-1.254945	0.748392
H	0.136405	-1.268141	1.688717
H	-1.493454	-1.281417	0.964972
H	-0.148064	-2.162164	0.201764
N	-0.394225	1.246431	0.636849
H	-1.174374	1.124191	1.270805
H	0.411169	1.575588	1.154735
F	2.566635	0.0	0.0
