17

C	-0.528386	0.033083	-1.438439
C	0.0	0.0	0.0
Cl	0.307644	1.262993	-2.392806
H	1.093793	0.0	0.0
N	-0.296226	-1.334633	-2.086867
O	0.813936	-1.575426	-2.529829
O	-1.244233	-2.117852	-2.032766
C	-1.966457	0.301799	-1.484435
N	-3.116943	0.541553	-1.454062
C	-0.491873	-1.217189	0.765754
H	-0.065705	-1.1484	1.769789
H	-1.586219	-1.267016	0.845362
H	-0.129406	-2.150342	0.330922
N	-0.405476	1.267293	0.604478
H	0.421419	1.66085	1.037134
H	-1.119428	1.132961	1.310215
F	2.589707	0.0	0.0
