17

C	-0.465554	-0.024402	-1.443257
C	0.0	0.0	0.0
Cl	-2.257476	-0.144651	-1.615407
H	1.094173	0.0	0.0
N	-0.010437	1.280116	-2.120685
O	1.174003	1.290874	-2.430808
O	-0.812643	2.190119	-2.250821
C	0.120468	-1.131249	-2.196099
N	0.57451	-2.035434	-2.793367
C	-0.431938	-1.254309	0.741082
H	-0.120937	-2.160768	0.214069
H	0.077115	-1.252373	1.707929
H	-1.515809	-1.297072	0.906591
N	-0.419742	1.246191	0.612809
H	0.359346	1.58414	1.16341
H	-1.229415	1.128268	1.209198
F	2.56706	0.0	0.0
