16
Coordinates from ORCA-job run
  C   0.86331469483220      0.32321441012594     -0.35019764645991
  C   -0.36321442511199     -0.56972144508916     -0.17665085337504
  Cl  1.45292897156205      0.14474284472556     -2.01719582624248
  H   -0.09428431824309     -1.57958989317140     -0.48783110635540
  C   0.61019652339653      1.72787023836330     -0.07421371651443
  N   0.34823548124934      2.86369372980221      0.07844644556958
  N   2.00884854380521     -0.17929008340326      0.55164340164763
  O   2.05697601686703     -1.39025283165972      0.70484273528822
  O   2.78049564331706      0.66316858950852      0.97711608136487
  C   -1.59569118999022     -0.05733015818148     -0.90125402096635
  H   -2.41009123825904     -0.76691956639377     -0.75542385079830
  H   -1.89645652577877      0.91674323407095     -0.51015698420683
  H   -1.39957875986027      0.03390239419796     -1.96939159867028
  N   -0.69468377271837     -0.68416215889984      1.28762209707373
  O   -1.47697969027813     -1.57749208339543      1.58437874887869
  O   -0.19001595478955      0.13242277939964      2.05526609376630
