16
Coordinates from ORCA-job run
  C   0.81632351705054      0.39407490543457     -0.38617382155031
  C   -0.41120012293030     -0.50446923174954     -0.25385196368636
  Cl  1.14620319306015      0.63791739812631     -2.11547541936224
  H   -0.23722245742829     -1.40517682089568     -0.84331571004233
  C   0.67108607443682      1.68585951533676      0.26472297586647
  N   0.48696620881957      2.75060624522446      0.72765227617464
  N   2.05762983609887     -0.32826602502651      0.17523502272549
  O   2.92027140388979      0.37329036711697      0.67506892704601
  O   2.07384857071584     -1.53859408929712      0.00999552281145
  C   -1.71154238506247      0.18335721468828     -0.63132217985061
  H   -1.66938663042459      0.53966602138357     -1.66026738197652
  H   -1.90701824203112      1.02944608905472      0.03044624902862
  H   -2.52763862383275     -0.53371190359156     -0.54338248968684
  N   -0.52976022575899     -0.98172556599088      1.16932800506707
  O   -1.30260218729243     -1.91292658735830      1.35223615807735
  O   0.12204207068933     -0.39134753245605      2.02810382935811
