16
Coordinates from ORCA-job run
  C   0.96526256253049     -0.04922236380925     -0.04700272961131
  C   -0.56319359765321     -0.19361843006949     -0.19074810013602
  Cl  1.54814167948904     -0.61869591776489      1.50259625060685
  H   -0.80482326608854      0.04901363837133     -1.22758034111091
  C   1.70623174597531     -0.68464363477570     -1.12854727946554
  N   2.33886289946400     -1.17947072334637     -1.98729299539762
  N   1.21016416311505      1.48463485937206     -0.19019328444303
  O   1.56431025264065      2.11278486210270      0.78902147967263
  O   0.95347285803491      1.90884520253147     -1.30868989195909
  C   -1.35090469247403      0.64826167292704      0.78675537974003
  H   -1.04959731262349      0.46069199550611      1.81554116964114
  H   -1.22120438701437      1.70670029447223      0.55520850210990
  H   -2.41075016058097      0.41115545989952      0.69128391320550
  N   -0.88804165961529     -1.65897178878232     -0.04872126620798
  O   -1.37200361346646     -2.03782495304906      1.01256731758338
  O   -0.62392747173308     -2.35964017358537     -1.02319812422792
