16
Coordinates from ORCA-job run
  C   0.96506190109713     -0.05664025526072     -0.01608477855358
  C   -0.55953256988092     -0.20034021308192     -0.19629744765673
  Cl  1.49916209317905     -0.54309464692136      1.57896706484653
  H   -0.76878101585317     -0.01189652946881     -1.25128323427326
  C   1.73303172552395     -0.75486733636254     -1.03851423169984
  N   2.38596813753253     -1.29851720436134     -1.85134552966370
  N   1.22565799952493      1.46539522033500     -0.23628158121004
  O   1.55835514475795      2.14432715274244      0.71626482331989
  O   1.00358822085693      1.82904999126453     -1.38320223184090
  C   -1.36861493512019      0.69719189964403      0.71176380265051
  H   -1.09648149689485      0.56450151969422      1.75714769785859
  H   -2.42687388383902      0.45935899526341      0.60109504340843
  H   -1.22638611343207      1.74078976539209      0.42616209262579
  N   -0.89852058002353     -1.65400868217484      0.01412417600526
  O   -0.60810095375167     -2.40788704372757     -0.91179572465519
  O   -1.41853367367705     -1.97236263297660      1.07828005883822
