16
Coordinates from ORCA-job run
  C   1.01585175473362     -0.14319902638700     -0.30049668185626
  C   -0.46217532570017     -0.56810231286606     -0.20463546348356
  Cl  2.05787754906941     -1.54805044866395     -0.13337036933734
  H   -0.60193649894718     -1.33457555809183     -0.96934353483083
  C   1.24084575181490      0.49576689988642     -1.59049697134889
  N   1.39312370892813      0.97612313404661     -2.65284597608967
  N   1.37386285615701      0.91635204595616      0.78553406398075
  O   0.87253924241395      2.01149731051588      0.57174308940746
  O   2.08301599769480      0.58147292292947      1.71215164109655
  C   -1.48901193789390      0.54066552813684     -0.33964644437311
  H   -1.42228982679258      1.24430465576856      0.48701199637105
  H   -1.34892553320599      1.07925393367696     -1.27762132541695
  H   -2.48251085439778      0.08698037048356     -0.34621299202405
  N   -0.68035178110738     -1.27838374339689      1.09954090174985
  O   -0.49309892766571     -0.61459474472687      2.11597665299266
  O   -1.05681617510113     -2.44451096726786      1.04371141316233
