16
Coordinates from ORCA-job run
  C   0.96500290487270     -0.04332755859772     -0.04489258676065
  C   -0.56208158675512     -0.20997691352546     -0.17727419931215
  Cl  1.55373581274895     -0.50704194177286      1.53732332234970
  H   -0.80620749410514     -0.03434688204248     -1.22700395103043
  C   1.71156921975780     -0.73996902833605     -1.08401869733643
  N   2.35102573126958     -1.28135431820469     -1.90900892511914
  N   1.19657240909703      1.48008748665253     -0.28701322394798
  O   1.54726547281876      2.17271865502479      0.64903379733574
  O   0.93471846135932      1.82967794606038     -1.42981899915706
  C   -1.35640129170759      0.68434684862436      0.74702389475143
  H   -2.41404706018857      0.43111392133098      0.66930962775806
  H   -1.23722821558796      1.72729189037440      0.44881637419547
  H   -1.05139506241875      0.56430911889431      1.78481429030969
  N   -0.87362325779610     -1.66648397454608      0.05607747748185
  O   -0.60008149357708     -2.42468034281071     -0.87151361752558
  O   -1.35682454978785     -1.98236490712569      1.13814541600747
