16
Coordinates from ORCA-job run
  C   0.87856242314914      0.26658813986048     -0.35476383946214
  C   -0.32532795912046     -0.61802390522102     -0.03886166036298
  Cl  1.62824538425626     -0.32371125799592     -1.85360715281869
  H   0.00802351441204     -1.65620814233144     -0.03470952331172
  C   0.54969977142309      1.67523867073112     -0.50088182561305
  N   0.24892095983738      2.79390435457630     -0.70091151284044
  N   1.95273018917939      0.10075772568080      0.73996911097735
  O   2.02652306767069     -1.01503634994893      1.23157833688983
  O   2.65517403148782      1.07049118698493      0.96869093636953
  C   -1.50182775398669     -0.39878916531311     -0.97391454764872
  H   -1.87404625207105      0.62451858620209     -0.89288398623427
  H   -1.20865835816635     -0.58920711740272     -2.00614282287147
  H   -2.29964383232591     -1.09067302798051     -0.70410892000499
  N   -0.78863420224984     -0.34726093586236      1.36788495838441
  O   -0.38798383053016      0.67721913668057      1.91628146661611
  O   -1.56275715296535     -1.17080789866028      1.83738098193122
