16
Coordinates from ORCA-job run
  C   1.00339327218691     -0.18449578221248     -0.31828317607095
  C   -0.49348159816326     -0.53579380544180     -0.21839667366604
  Cl  1.97336117608862     -1.64590939039471     -0.21387702658359
  H   -0.68088695944864     -1.26641295326926     -1.00754021924081
  C   1.24640002150496      0.48698410774946     -1.58849753864050
  N   1.41099149442289      0.99478218025352     -2.63620287223440
  N   1.42829949603309      0.81659500776285      0.79848010907041
  O   2.13397952954013      0.41513705194996      1.70090424057322
  O   0.97816902478647      1.94159897444167      0.63129658418044
  C   -1.46287997774443      0.62837746574382     -0.30077040979927
  H   -2.47841555706043      0.22678704899790     -0.31432673458333
  H   -1.30274777994399      1.19503768283762     -1.21873749477778
  H   -1.35276152969489      1.29522929672509      0.55135640818846
  N   -0.73322597696053     -1.28085782425723      1.06263907274210
  O   -1.17219131977223     -2.42244481169660      0.97031333979503
  O   -0.49700331577466     -0.66661424918981      2.09964239104700
