16
Coordinates from ORCA-job run
  C   1.01413795541507     -0.15879203486173     -0.29512736866266
  C   -0.46991481184414     -0.56236206633014     -0.20449166114684
  Cl  2.03566870596892     -1.57735638055934     -0.11789111124089
  H   -0.61663878690595     -1.33084953557314     -0.96588223793853
  C   1.25501048615391      0.47228464350498     -1.58621101895938
  N   1.43302341878776      0.94157042355710     -2.64952820742879
  N   1.38194965137318      0.89987851742226      0.78861086281054
  O   2.08138982898014      0.55865293782112      1.72024457586675
  O   0.89743157328761      2.00118282974482      0.56783884321223
  C   -1.48014955608717      0.56027801301066     -0.35032022382330
  H   -1.32683435840743      1.09278187319706     -1.28973699855356
  H   -1.40786383977724      1.26643279567649      0.47372414962388
  H   -2.47991931759815      0.12072873089295     -0.36077662219194
  N   -0.70494253854304     -1.26294755783847      1.10209440198115
  O   -1.09690574423449     -2.42412254126204      1.05031963979761
  O   -0.51444266656898     -0.59636064840258      2.11613297665374
