16
Coordinates from ORCA-job run
  C   0.86199633614675      0.27886662201367     -0.38810099400025
  C   -0.35608407765208     -0.59341813502968     -0.09377297834691
  Cl  1.46261909728988     -0.13037296606902     -2.01014863447929
  H   -0.07508367099285     -1.63446278321311     -0.25592270033810
  C   0.59302226841367      1.70589505538579     -0.31862036385752
  N   0.31916234245078      2.84888762646407     -0.33702890250862
  N   2.00785755328900     -0.07606022470188      0.58056248769117
  O   2.06626950527348     -1.25111154658874      0.90911030334562
  O   2.77092442073392      0.82653879629565      0.87961614936949
  C   -1.58968720956403     -0.20365681176111     -0.88963363601901
  H   -1.38671710329385     -0.25762412975734     -1.95909412386277
  H   -1.90591862786765      0.81089518628447     -0.63821167137710
  H   -2.39568187442838     -0.89771392467282     -0.65144453117713
  N   -0.69586529606579     -0.50015433144427      1.36985385043033
  O   -1.47246690394400     -1.34870029716429      1.78803956581448
  O   -0.20334675978888      0.42319186395860      2.01479617931560
