16
Coordinates from ORCA-job run
  C   1.00287406460617     -0.19877021660163     -0.31095203771884
  C   -0.49734685520710     -0.53517422773630     -0.21092321695653
  Cl  1.95889910016683     -1.66706983362865     -0.17712188991108
  H   -0.68856597042717     -1.27784497466515     -0.98785979121535
  C   1.25740734442856      0.44822032060472     -1.59143127283491
  N   1.43073109526132      0.93688742364278     -2.64673109711047
  N   1.43257635080724      0.81740603623323      0.79015220658020
  O   0.99685081367591      1.94448171727192      0.59956844783470
  O   2.12770138051656      0.42410909470062      1.70443111122137
  C   -1.45611996026691      0.63594618895929     -0.31806712458093
  H   -2.47526838265744      0.24324454427420     -0.32480724461970
  H   -1.34152805164326      1.31885957785599      0.52062901059326
  H   -1.28965797685986      1.18196505182594     -1.24739928244982
  N   -0.74894907307189     -1.25479528466351      1.08224040935358
  O   -0.51462868066507     -0.62243242184351      2.10890219257691
  O   -1.19497519866389     -2.39503299622992      1.00836957923759
