16
Coordinates from ORCA-job run
  C   0.96417725819441     -0.07159812336543     -0.02481038796101
  C   -0.56374975085419     -0.18363649551427     -0.19925683682202
  Cl  1.50074829276820     -0.62602734995726      1.54680640735243
  H   -0.77729325106645      0.04722960029865     -1.24495987701455
  C   1.71280572599134     -0.74335410374744     -1.07876711004894
  N   2.35136351876445     -1.26651173309213     -1.91611283017732
  N   1.24821383884355      1.45285559958748     -0.19014795411308
  O   1.02647155423997      1.86227667589754     -1.32161745803276
  O   1.59648720940785      2.09075315853528      0.78497660740578
  C   -1.35236484088843      0.69223322082706      0.74739923207004
  H   -1.07654678137073      0.51496534114046      1.78514553568905
  H   -2.41512821280539      0.47677099818742      0.63373471965883
  H   -1.19394249484397      1.74344604623811      0.50099416363836
  N   -0.92535785810208     -1.63861116890113     -0.04060430552932
  O   -0.65756804688035     -2.36129536184015     -0.99782882986841
  O   -1.44031616139821     -1.98849630429420      1.01604892375291
