16
Coordinates from ORCA-job run
  C   0.91691019783829      0.14989295007452     -0.32494195942016
  C   -0.36413946379366     -0.59536975441853      0.04192802063065
  Cl  1.72181441443665     -0.73622769055716     -1.63847850117677
  H   -0.10525942697947     -1.63406349643397      0.24930209282476
  C   0.69817951512528      1.52750071206529     -0.73480764919636
  N   0.49122976254056      2.60840257975267     -1.14795500891018
  N   1.90125055919513      0.11660745206683      0.86198282144188
  O   2.65188781730670      1.07025467551374      0.97693152366799
  O   1.86496614263354     -0.89902829180544      1.53965735573204
  C   -1.45732588350289     -0.47610830663329     -1.00565334711046
  H   -2.31764853077697     -1.06377053844731     -0.68552234009565
  H   -1.76212411319127      0.56521736601238     -1.12833192868934
  H   -1.10993550763512     -0.85947943533162     -1.96480018592359
  N   -0.90105898975696     -0.05652245836199      1.34132151055101
  O   -1.76139519084078     -0.73897684622653      1.88160304269796
  O   -0.46635130259905      1.02267108273042      1.73776455297621
