16
Coordinates from ORCA-job run
  C   0.96261904430555     -0.02325690182113     -0.09074217662576
  C   -0.56594318591274     -0.21534254745463     -0.15820612593666
  Cl  1.63354570598396     -0.53071191143836      1.44461351143529
  H   -0.86206391632841     -0.00779950822961     -1.18853455891582
  C   1.67145638093346     -0.66785192630409     -1.18820821067860
  N   2.27664622255345     -1.16384621588072     -2.06585534505699
  N   1.15490055260224      1.51229546597044     -0.28773500605274
  O   0.83253877537052      1.89702738120098     -1.40353130027311
  O   1.53810720433737      2.17789093959664      0.65519433046562
  C   -1.33161906846206      0.63070818040317      0.83331381357602
  H   -2.38684130534646      0.35872821106524      0.79733402681734
  H   -0.97475921512864      0.48202368366923      1.85068299827326
  H   -1.24642210783828      1.68526734125970      0.56594784365062
  N   -0.83967477413814     -1.68477612156177      0.03738079697956
  O   -0.59637259029840     -2.40486359752226     -0.92831705398143
  O   -1.26611772263343     -2.04749247295284      1.12866245632341
