16
Coordinates from ORCA-job run
  C   0.87285115864599      0.20024528933525     -0.40874709173587
  C   -0.39881082630018     -0.57090644262802     -0.06312784495027
  Cl  1.42184316698102     -0.32038668377875     -2.01694668128764
  H   -0.19295953804860     -1.63526235007692     -0.18029447499299
  C   0.70464661757272      1.64428545955823     -0.39977037170959
  N   0.52170830210965      2.80326689037983     -0.47199344969235
  N   2.00471472667368     -0.19136379227721      0.56270139426839
  O   1.98410043963951     -1.35134619802322      0.94508534840803
  O   2.83480669564227      0.66659410819229      0.80987597488279
  C   -1.61231214941672     -0.13113952677289     -0.86353020231114
  H   -1.85041929981591      0.91487326784546     -0.65991668608145
  H   -1.42966162784200     -0.25221591394707     -1.93107563403137
  H   -2.46327178671872     -0.75148254729763     -0.58241998291383
  N   -0.71156892975860     -0.38883035200659      1.39854890129909
  O   -0.14684118987376      0.52490821922651      1.99603340891170
  O   -1.53882575949033     -1.16223942772926      1.86257739193648
