16
Coordinates from ORCA-job run
  C   0.96101228533778     -0.01007140371382     -0.10255467559717
  C   -0.56708418900956     -0.20638690878735     -0.16479705981666
  Cl  1.65210706931565     -0.60631727027896      1.39163969459242
  H   -0.87628456850218      0.06386983904504     -1.17650855388937
  C   1.66068540941707     -0.58448049010697     -1.24434614592567
  N   2.25834736362676     -1.03442971987490     -2.15150658512197
  N   1.14498782124130      1.53464052361257     -0.20962447055377
  O   0.80443042059853      1.98347426125834     -1.29571646511132
  O   1.54296892551447      2.14441965538928      0.76424111721610
  C   -1.32526237295958      0.57039483403012      0.88717061211377
  H   -1.24791091861285      1.64033299091032      0.68672759199842
  H   -2.37949235030011      0.29526296103184      0.84619522292455
  H   -0.95576938893372      0.35940278250236      1.88900718318762
  N   -0.83172676937259     -1.68660934330436     -0.05993072077339
  O   -1.23938660687286     -2.12037112997583      1.01248479882109
  O   -0.60062213048813     -2.34213158173769     -1.07348154406467
