16
Coordinates from ORCA-job run
  C   0.83958083516819      0.39839974475716     -0.36908298835724
  C   -0.50311167906086     -0.34352132008424     -0.34411738156901
  Cl  1.09364948490431      1.08155142655340     -1.97788612499273
  H   -0.47139940593053     -1.08798220600371     -1.14082312786984
  C   0.95072662387371      1.44530081833821      0.63365804530566
  N   1.00005333898647      2.34063642634927      1.39425763581529
  N   1.93827504000026     -0.66671043725853     -0.12186704313321
  O   2.53133650795874     -0.59597432896894      0.94563578328045
  O   2.06099158283069     -1.50556658720210     -0.99797127641196
  C   -1.70589052908393      0.57153800860477     -0.42491228196613
  H   -2.61713380646339     -0.02798308645657     -0.38146189255561
  H   -1.70030005667175      1.12014249218607     -1.36671313962436
  H   -1.71032556170816      1.27493051840127      0.40770963868817
  N   -0.55665073937025     -1.13937765390552      0.93619885903047
  O   -0.74199311834707     -0.50914279462125      1.97356379114510
  O   -0.40780851708643     -2.35524102068929      0.83381150321494
