16
Coordinates from ORCA-job run
  C   1.00326274978427     -0.20929239381286     -0.30582950002780
  C   -0.50088145924889     -0.53037345509091     -0.21409487656676
  Cl  1.94396921225412     -1.68729458830913     -0.16931811868939
  H   -0.69495642741405     -1.27237701567477     -0.99092997360176
  C   1.27078626163034      0.43757383793547     -1.58366713737713
  N   1.45107778818317      0.92563003844013     -2.63796143202885
  N   1.43663974955109      0.80019161869421      0.80045836483036
  O   1.01558049577556      1.93265423459495      0.60903704928766
  O   2.11858904211569      0.39648030538704      1.72009298645816
  C   -1.44632724151670      0.65081213276581     -0.32803935781200
  H   -1.26882644216930      1.19423386521794     -1.25684350706222
  H   -1.32852670064803      1.33326780702415      0.51060880437192
  H   -2.46970486403301      0.26954722411948     -0.34024526340369
  N   -0.76794516152584     -1.24567367922246      1.07837158634063
  O   -1.22122115932356     -2.38303846955644      1.00355334786605
  O   -0.53951584341484     -0.61234146251262      2.10580702741483
