16
Coordinates from ORCA-job run
  C   0.81245075279813      0.54132336458163     -0.21749435442957
  C   -0.53995913870228     -0.15701352445806     -0.41499836045744
  Cl  0.93278954625934      1.90450519749260     -1.33234080674375
  H   -0.59311314168137     -0.45719941891363     -1.46268627183201
  C   1.03750401635815      0.99515216954472      1.14549087761813
  N   1.17358783869627      1.42373280569613      2.23194010299313
  N   1.90402804528349     -0.49205127296250     -0.59848068649917
  O   2.55914913697393     -0.94825934937019      0.32819191614043
  O   1.95585546801611     -0.79228726861775     -1.77828995266645
  C   -1.72451350305145      0.67141253930332      0.03203353831485
  H   -2.64038256989086      0.09472894620771     -0.10993112103903
  H   -1.79491358892472      1.58059355982328     -0.56482311435315
  H   -1.63782652514664      0.93154420574931      1.08675923380152
  N   -0.49491488654727     -1.44941646373759      0.36351266400829
  O   -0.29259354197515     -2.47268710057555     -0.28699556032801
  O   -0.65614790846568     -1.37407838976343      1.57811189547224
