16
Coordinates from ORCA-job run
  C   0.93350427095291      0.10291615875985      0.11017258053329
  C   -0.55493323065752     -0.12575305694834     -0.20825440721760
  Cl  1.29180127156466      0.22533416399643      1.83291426729288
  H   -0.70028055236922      0.13466805504027     -1.25667396350937
  C   1.77325132709316     -0.91718897616653     -0.50631103452576
  N   2.41717737936107     -1.74968964716312     -1.03114910230298
  N   1.38206923926285      1.45649187569046     -0.52001552438467
  O   2.58324794511767      1.66334317913437     -0.50913488280014
  O   0.50251335919099      2.18979185792636     -0.95048676912997
  C   -1.54058162325348      0.59580702236599      0.68894750601299
  H   -1.48841447224093      0.20731854471482      1.70454993845723
  H   -2.54790670327693      0.43831167038682      0.29820025586186
  H   -1.33374197120236      1.66469716560944      0.69123638767478
  N   -0.82959404089232     -1.60210955224987     -0.13515236851039
  O   -1.27790267834857     -2.12955157556932     -1.14924171513854
  O   -0.61120952030199     -2.15238688552762      0.94039883168639
