16
Coordinates from ORCA-job run
  C   1.01116020085416     -0.13737260468107     -0.31868182202521
  C   -0.46953811769492     -0.55328374707616     -0.22693773540333
  Cl  2.04175771988466     -1.55795695609581     -0.23230501467882
  H   -0.62448733456680     -1.28082933025849     -1.02596154492938
  C   1.22840058712698      0.56211596606292     -1.57817541636887
  N   1.37370949584729      1.09195302276935     -2.61769632957003
  N   1.39119298029974      0.86437128587720      0.81405248803292
  O   0.89819892653774      1.97317894536333      0.65979339873400
  O   2.10668418033242      0.47782760907767      1.71532516828602
  C   -1.48715471777674      0.56996855661076     -0.29656725649995
  H   -1.40534647536183      1.23099211432877      0.56322684359899
  H   -2.48505466182521      0.12642894578886     -0.31508876530714
  H   -1.35105016924172      1.15300049366945     -1.20817593833639
  N   -0.68064783140756     -1.32408937494249      1.04366574372810
  O   -0.47680541456324     -0.71234882178579      2.08916326631113
  O   -1.06801936844497     -2.48295610470849      0.93536291442796
