16
Coordinates from ORCA-job run
  C   0.96440653813179     -0.05863853210291      0.02323735271039
  C   -0.55095126235174     -0.19911353988183     -0.22422998828659
  Cl  1.42681967570078     -0.57474839804771      1.63134846538774
  H   -0.71576030668324      0.00046139321214     -1.28513881320386
  C   1.77819806873038     -0.73695405118551     -0.97690320196467
  N   2.47076902291977     -1.26208491357197     -1.76882658513591
  N   1.23416874242615      1.46637831640349     -0.15784453228333
  O   1.05131344421675      1.85271944243871     -1.30427936451975
  O   1.53793088364935      2.12582654720330      0.81787822794587
  C   -1.39796373205944      0.68979936551574      0.65763764351405
  H   -2.45055928005927      0.45516751482712      0.49819362399712
  H   -1.17141458146222      0.54473104647113      1.71231526509768
  H   -1.24183601653006      1.73627221811583      0.39052986420397
  N   -0.89873365716782     -1.65544284898624     -0.04315688601843
  O   -0.53538355757235     -2.40492554624893     -0.94657103909960
  O   -1.49900398188882     -1.97944801416236      0.97580996765533
