16
Coordinates from ORCA-job run
  C   0.83235570279461      0.23824141091114     -0.49876996059306
  C   -0.50159155189244     -0.45157899102465     -0.18750192977485
  Cl  1.07041741317206      0.26474126942132     -2.24992119786505
  H   -0.47279445570899     -1.43359497774754     -0.66104948588570
  C   0.93987152853266      1.58841588115875      0.02976460226908
  N   0.98939773928475      2.70860446886484      0.38363296096226
  N   1.94556843589746     -0.64554744758543      0.11770061189611
  O   2.03491112860811     -1.76945555363281     -0.34757758280649
  O   2.58584475711846     -0.15505409295101      1.03718807556054
  C   -1.71411185157279      0.36719797221653     -0.57650717723186
  H   -2.61904779966042     -0.18467387925227     -0.31527524178059
  H   -1.71901659464828      1.32021587159020     -0.04713174240305
  H   -1.71982274178257      0.54708680197615     -1.65154557948460
  N   -0.53959924684880     -0.72979910678567      1.29380947152604
  O   -0.47690958461827     -1.90870184927713      1.63524302704554
  O   -0.63647287867553      0.24390222211757      2.03594114856567
