16
Coordinates from ORCA-job run
  C   0.96472066199135      0.01345397758112     -0.06683221264846
  C   -0.55250465778738     -0.24357721632694     -0.16287328191798
  Cl  1.61544591388124     -0.40241565509327      1.50448173225939
  H   -0.83087844640509     -0.09111738211783     -1.20766606962356
  C   1.72714131490508     -0.64664259807591     -1.11818112482087
  N   2.37512749958186     -1.15798164982998     -1.95556768311259
  N   1.10092632901074      1.54575509210631     -0.32410582773841
  O   0.79340783353792      1.87014905125743     -1.46303153188886
  O   1.43196283514583      2.26521932317805      0.59880034935777
  C   -1.37681838974385      0.60960084206791      0.77400994253538
  H   -2.41923809928595      0.29409726960758      0.72253695661112
  H   -1.04173405330279      0.51569855801408      1.80520715651887
  H   -1.32613962981352      1.65541681335042      0.46648354565247
  N   -0.77249282246425     -1.71410656158090      0.08697081510053
  O   -0.47791454102405     -2.46189018550302     -0.84275889389145
  O   -1.21001174822715     -2.04965967863505      1.18252612760665
