16
Coordinates from ORCA-job run
  C   0.84738929026695      0.38443543753499     -0.36285698959487
  C   -0.25743093136353     -0.64487348159019     -0.09471198714949
  Cl  1.64896893455410     -0.01835045484789     -1.88649471249077
  H   0.20844871257793     -1.63041523875924     -0.12364817109479
  C   0.37972621648415      1.76033847230131     -0.40577771388848
  N   -0.01862464511103      2.86029580704824     -0.52339196990427
  N   1.88808048951755      0.22943732641970      0.77364649626109
  O   2.02708300131371      1.18592529124457      1.52327698890245
  O   2.43297993278923     -0.86031587617242      0.83364048023566
  C   -1.44657758348031     -0.51455412819878     -1.02255834267430
  H   -2.18977343959271     -1.27079411746206     -0.76265558929844
  H   -1.13950701089574     -0.67572747683980     -2.05595076847677
  H   -1.90110300743564      0.47176559187553     -0.92695964805789
  N   -0.71355390071481     -0.46741772695813      1.33107618042750
  O   -0.44879107742302     -1.37810029204112      2.11256628176799
  O   -1.31831498148685      0.56935086644529      1.59179946503539
