16
Coordinates from ORCA-job run
  C   0.93216319684225      0.16438786020575     -0.00215468952515
  C   -0.56759604773665     -0.15287304473546     -0.14403806696963
  Cl  1.50101550250013      0.22873748199437      1.66652593691607
  H   -0.86381383394116      0.14959704011301     -1.14860536671740
  C   1.74699658442019     -0.76530366800292     -0.77521541688605
  N   2.35995761833358     -1.53091342078686     -1.42422608691490
  N   1.20954473991168      1.57390776904742     -0.60491899766618
  O   2.38661677432564      1.85975554811191     -0.74167949353586
  O   0.23765938247248      2.26940531611472     -0.86684732848828
  C   -1.47373610034461      0.45013989237323      0.91084707077943
  H   -1.26534889565005      0.01643490680868      1.88745647943154
  H   -1.33853065225439      1.52966661538966      0.94968859455470
  H   -2.51080504899396      0.23907671896640      0.64189027814817
  N   -0.73543552816739     -1.64657760749573     -0.12450627062753
  O   -1.27850299472627     -2.15274060512571     -1.10240910649324
  O   -0.34118469699148     -2.23370080297849      0.87919246399430
