16
Coordinates from ORCA-job run
  C   0.96736513754682     -0.01773574646247     -0.01611913251513
  C   -0.55021790778956     -0.21605800338044     -0.20294057512528
  Cl  1.51944086808190     -0.53135767164244      1.56396302157843
  H   -0.76720415082589     -0.00412339671406     -1.25193800352788
  C   1.76247297515326     -0.65334675779679     -1.05835146468861
  N   2.43740902402695     -1.14654680482082     -1.88528991232580
  N   1.16639139399567      1.51914246582952     -0.18934047042816
  O   1.46864677627556      2.18165394925145      0.78465482856068
  O   0.93178005140990      1.90830504257427     -1.32532480818656
  C   -1.39503013807478      0.62018005424374      0.73095837856438
  H   -1.11982865051294      0.46436944263436      1.77235858577052
  H   -2.44298325163648      0.34506990913999      0.60873530823167
  H   -1.29305053468796      1.67725960099461      0.47968742068973
  N   -0.83198383638148     -1.68790332012199     -0.03802609080116
  O   -1.33975477950096     -2.05931492377137      1.01480553334512
  O   -0.51245297707999     -2.40059383995755     -0.98683261914192
