16
Coordinates from ORCA-job run
  C   0.98947226183488     -0.21506408925293     -0.34121284667210
  C   -0.51411496330117     -0.52230626435451     -0.20493211603427
  Cl  1.91865135655233     -1.70381051786190     -0.25235649075548
  H   -0.74104568064062     -1.25078866452285     -0.98566708854314
  C   1.22349126267653      0.44457831558015     -1.61910582932918
  N   1.37956545024382      0.94466300417645     -2.67178548738416
  N   1.46949195199867      0.77712916984184      0.76176059142459
  O   1.05290342940821      1.91551264140952      0.59772246040664
  O   2.17896348927126      0.35669409111782      1.65252647194519
  C   -1.45070941502904      0.66946720912197     -0.26992313274688
  H   -2.47776205500096      0.29829329728895     -0.25561711876594
  H   -1.29964581358181      1.33691350023286      0.57545459120709
  H   -1.29683334200385      1.22669590892389     -1.19473817487493
  N   -0.74515047325561     -1.25413936816439      1.08533890026709
  O   -1.21554571806431     -2.38448469931848      1.00919790604902
  O   -0.47073174110831     -0.64035353421840      2.11333736380648
