16
Coordinates from ORCA-job run
  C   1.00608999089488     -0.16231730952405     -0.32128966503619
  C   -0.48269000844700     -0.54518397676355     -0.21926531496771
  Cl  2.00605852061773     -1.60422073248232     -0.22394279205905
  H   -0.65660265840156     -1.27727685842145     -1.01018535918319
  C   1.23369906504550      0.51884694017500     -1.58896651531158
  N   1.38692344446767      1.03456231834076     -2.63455928972231
  N   1.41285039309076      0.84292641232078      0.79908942648981
  O   0.94332472909082      1.96050109174301      0.63471588927952
  O   2.12390532345861      0.45045981849624      1.70139394059613
  C   -1.47653029480394      0.59864106201994     -0.29609749255613
  H   -1.37512219670436      1.26831680227289      0.55495061268475
  H   -2.48353312804939      0.17591741768358     -0.30307206979798
  H   -1.33402545982779      1.16759439461852     -1.21565294805120
  N   -0.70442163824895     -1.29824563105400      1.06017925837854
  O   -1.11742291652457     -2.44939643718612      0.96543242524095
  O   -0.48250316565842     -0.68012531223923      2.09826989401564
