20

C	-0.327956	0.033135	-1.498318
C	0.0	0.0	0.0
Br	-2.303211	0.050412	-1.791205
H	1.094031	0.0	0.0
C	0.250894	1.254606	-2.197654
H	-0.210794	2.181705	-1.8635
H	0.10548	1.1575	-3.276386
H	1.320823	1.295347	-1.968163
C	0.225893	-1.234226	-2.138376
H	-0.265787	-2.132869	-1.766366
H	1.296405	-1.283026	-1.909619
H	0.088416	-1.191803	-3.220968
C	-0.488984	-1.211839	0.766653
H	-1.561369	-1.371124	0.652043
H	0.060974	-2.090475	0.429078
H	-0.267737	-1.078274	1.826206
N	-0.467513	1.2488	0.675653
O	0.16484	2.28359	0.47016
O	-1.469559	1.178813	1.392069
Cl	3.345091	0.0	0.0
