20

C	-0.49841	0.002666	-1.460481
C	0.0	0.0	0.0
Br	0.320784	-1.577886	-2.329312
H	1.090682	0.0	0.0
C	-2.005259	-0.1489	-1.6123
H	-2.267671	-0.140523	-2.672965
H	-2.354903	-1.090107	-1.185609
H	-2.518188	0.674575	-1.108586
C	0.030391	1.227901	-2.19406
H	-0.472606	2.12723	-1.824637
H	1.104236	1.331792	-2.024509
H	-0.167395	1.139897	-3.264735
C	-0.503368	-1.131035	0.877265
H	-1.585617	-1.109843	1.003542
H	-0.033629	-1.043444	1.859776
H	-0.194731	-2.083717	0.446714
N	-0.430016	1.303527	0.619828
O	0.373687	2.233486	0.629999
O	-1.583004	1.379017	1.062117
Cl	3.405626	0.0	0.0
