20

C	-0.342103	-0.001709	-1.494258
C	0.0	0.0	0.0
Br	-2.309699	-0.165999	-1.784906
H	1.094108	0.0	0.0
C	0.114476	1.275113	-2.183595
H	-0.427282	2.151278	-1.829786
H	-0.03835	1.182955	-3.261206
H	1.178796	1.412096	-1.969546
C	0.32331	-1.208693	-2.14408
H	0.163516	-1.182299	-3.224212
H	-0.073144	-2.150496	-1.764329
H	1.396407	-1.156313	-1.929158
C	-0.497649	-1.172248	0.819643
H	-0.157766	-1.050295	1.850113
H	-0.05758	-2.094798	0.440668
H	-1.584284	-1.245294	0.812574
N	-0.453447	1.274621	0.638033
O	-1.541297	1.272917	1.223145
O	0.272987	2.262386	0.526635
Cl	3.369394	0.0	0.0
