20

C	-0.480637	-0.020756	-1.460629
C	0.0	0.0	0.0
Br	0.14161	1.647346	-2.329251
H	1.091578	0.0	0.0
C	0.223516	-1.172119	-2.171944
H	0.046632	-1.111187	-3.247962
H	-0.179804	-2.126067	-1.816242
H	1.298138	-1.137973	-1.974831
C	-1.988272	-0.07356	-1.662533
H	-2.484113	0.787847	-1.217747
H	-2.209384	-0.097606	-2.732112
H	-2.394815	-0.98106	-1.20524
C	-0.474866	-1.191591	0.822113
H	-0.080126	-1.087053	1.835523
H	-0.060553	-2.112785	0.412068
H	-1.561632	-1.257368	0.876199
N	-0.47194	1.237063	0.70021
O	-1.675175	1.295554	0.986003
O	0.345423	2.112892	0.959392
Cl	3.417672	0.0	0.0
