16

C	-0.54831	0.000174	-1.393668
C	0.0	0.0	0.0
F	-1.924538	0.150282	-1.438792
H	1.09797	0.0	0.0
H	-0.282218	-0.914981	-1.917124
N	0.011322	1.121701	-2.237659
O	-0.464922	2.24688	-2.088799
O	0.896644	0.821401	-3.034116
N	-0.362323	-1.309339	0.578293
H	0.48209	-1.644948	1.032988
H	-1.084028	-1.199858	1.286937
C	-0.48021	1.171174	0.843658
H	0.039983	1.121998	1.804385
H	-1.562702	1.138192	1.020163
H	-0.239396	2.129752	0.382447
F	2.632385	0.0	0.0
