16

C	-0.632861	-0.032723	-1.352332
C	0.0	0.0	0.0
F	-0.236408	1.005995	-2.162076
H	1.09691	0.0	0.0
H	-1.725479	-0.033124	-1.311899
N	-0.304469	-1.289067	-2.136123
O	-1.042917	-1.50797	-3.103356
O	0.655858	-1.975061	-1.807088
N	-0.508712	-1.215798	0.678724
H	-0.793794	-0.975202	1.619321
H	0.293394	-1.825877	0.764918
C	-0.450555	1.259449	0.719422
H	-0.18304	2.147731	0.145031
H	0.078686	1.316356	1.674004
H	-1.534159	1.272237	0.909543
F	2.650452	0.0	0.0
