16

C	-0.531224	-0.016654	-1.399583
C	0.0	0.0	0.0
F	-1.913964	0.063262	-1.457155
H	1.098103	0.0	0.0
H	-0.214587	-0.915112	-1.925137
N	-0.01778	1.139844	-2.222509
O	-0.58414	2.226348	-2.101481
O	0.935552	0.908156	-2.96193
N	-0.376568	-1.301893	0.580677
H	0.429365	-1.613141	1.110996
H	-1.158632	-1.197996	1.216868
C	-0.478845	1.184378	0.824724
H	0.002455	1.121173	1.804131
H	-1.568108	1.18717	0.959859
H	-0.18896	2.135287	0.374387
F	2.628913	0.0	0.0
