16

C	-0.592842	-0.007928	-1.373589
C	0.0	0.0	0.0
F	-0.101882	0.998528	-2.174913
H	1.096875	0.0	0.0
H	-1.685035	0.055726	-1.376836
N	-0.310343	-1.292766	-2.124823
O	0.715202	-1.913518	-1.876428
O	-1.135537	-1.594612	-2.992459
N	-0.527411	-1.227512	0.64596
H	-0.710814	-1.0175	1.62122
H	0.250142	-1.882735	0.640377
C	-0.479174	1.243563	0.725421
H	-0.187508	2.139975	0.174812
H	0.008692	1.288438	1.703321
H	-1.56959	1.249716	0.870502
F	2.667623	0.0	0.0
