16

C	-0.381507	-0.08489	-1.453442
C	0.0	0.0	0.0
F	-1.705332	-0.454225	-1.654481
H	1.093786	0.0	0.0
H	0.257024	-0.790716	-1.983727
N	-0.213289	1.226404	-2.168659
O	0.871537	1.420769	-2.705058
O	-1.155854	2.015557	-2.147472
N	-0.342167	-1.276231	0.650849
H	-1.141206	-1.722605	0.219806
H	0.466967	-1.876997	0.557989
C	-0.617291	1.169462	0.740911
H	-0.255624	2.126818	0.357985
H	-1.712684	1.166981	0.693255
H	-0.314421	1.085033	1.785623
F	2.637982	0.0	0.0
