13

C	0.0	0.0	0.0
C	-0.444326	-0.003628	-1.462085
Br	2.01758	0.0	0.0
H	-0.112101	-0.897277	-1.986755
H	-0.261143	-0.979433	0.403141
H	-1.540664	0.069978	-1.449034
N	-0.498877	1.009701	0.863559
H	-0.473611	1.89855	0.37844
H	-1.485265	0.78344	1.0102
N	0.075146	1.142033	-2.250394
O	0.5715	0.898597	-3.350058
O	-0.04077	2.271772	-1.773281
Br	-3.672681	0.0	0.0
