13

C	0.0	0.0	0.0
C	-0.486091	0.194983	-1.422134
Br	2.030764	0.0	0.0
H	-0.153353	-0.611699	-2.07153
H	-0.239339	-1.022607	0.285706
H	-1.587487	0.236106	-1.373489
N	-0.533183	0.892637	0.908106
H	-0.387812	1.864534	0.694235
H	-0.404344	0.653002	1.876083
N	-0.018918	1.45007	-2.064317
O	0.242157	1.404467	-3.264059
O	0.028829	2.472675	-1.378949
Br	-3.855371	0.0	0.0
