13

C	0.0	0.0	0.0
C	-0.469189	0.209595	-1.432548
Br	1.959053	0.0	0.0
H	-1.563747	0.127052	-1.412488
H	-0.300047	-0.992007	0.33029
H	-0.146032	1.171159	-1.829313
N	-0.501656	0.974023	0.919006
H	-0.346375	1.908155	0.555901
H	-1.512293	0.818766	0.97068
N	0.036795	-0.828286	-2.365427
O	0.468422	-0.458204	-3.458109
O	-0.030973	-1.998823	-1.996117
Br	-3.677822	0.0	0.0
