13

C	0.0	0.0	0.0
C	-0.514535	0.141606	-1.414744
Br	2.030867	0.0	0.0
H	-1.614294	0.195504	-1.324168
H	-0.22896	-1.01273	0.327153
H	-0.206632	-0.68929	-2.044046
N	-0.529115	0.920421	0.882943
H	-0.40184	0.722696	1.859455
H	-0.423205	1.885912	0.624284
N	-0.047377	1.369741	-2.106669
O	-0.016308	2.421715	-1.468041
O	0.246394	1.268491	-3.296237
Br	-3.852732	0.0	0.0
