13

C	0.0	0.0	0.0
C	-0.455868	0.075515	-1.458404
Br	1.983276	0.0	0.0
H	-1.547338	0.187824	-1.433687
H	-0.286776	-0.989321	0.357085
H	-0.162463	-0.807556	-2.021568
N	-0.48788	0.978299	0.91078
H	-0.408798	1.892632	0.481691
H	-1.484839	0.779318	1.029593
N	0.107921	1.23316	-2.193655
O	-0.007604	2.347551	-1.681701
O	0.644536	1.018953	-3.280302
Br	-3.674084	0.0	0.0
