13

C	0.0	0.0	0.0
C	-0.504173	-0.144336	-1.418959
Br	1.947602	0.0	0.0
H	-0.175929	0.684743	-2.040729
H	-0.261426	-0.895573	0.568761
H	-1.601476	-0.199348	-1.37593
N	-0.504531	1.242405	0.518389
H	-0.268033	1.311077	1.501729
H	-1.527101	1.179346	0.457071
N	-0.029245	-1.391727	-2.067679
O	0.29976	-1.325508	-3.252365
O	-0.029976	-2.421432	-1.397176
Br	-3.712745	0.0	0.0
