13

C	0.0	0.0	0.0
C	-0.471209	-0.222417	-1.429307
Br	1.95723	0.0	0.0
H	-0.143748	0.573239	-2.09747
H	-0.295374	-0.852082	0.60842
H	-1.567073	-0.287985	-1.387817
N	-0.505745	1.200069	0.592122
H	-1.512912	1.053994	0.711703
H	-0.381455	1.977544	-0.048084
N	0.026025	-1.494988	-2.013163
O	-0.015308	-2.495675	-1.302006
O	0.420359	-1.474531	-3.179367
Br	-3.691582	0.0	0.0
