13

C	0.0	0.0	0.0
C	-0.470092	-0.14356	-1.451628
Br	1.950153	0.0	0.0
H	-0.177031	-1.102015	-1.87683
H	-0.300916	-0.92137	0.501301
H	-1.562413	-0.026755	-1.446807
N	-0.490917	1.105613	0.758118
H	-1.496574	0.946658	0.867842
H	-0.37661	1.953251	0.21441
N	0.098651	0.88958	-2.351068
O	-0.041258	2.070284	-2.02523
O	0.669555	0.512805	-3.373654
Br	-3.695563	0.0	0.0
