14
Coordinates from ORCA-job run
  C   -0.73725887553591      0.11871904049045     -0.26739015398034
  C   0.59301944494771      0.33753363281827      0.44710441723860
  Cl  -0.84427813751545      1.07834895950696     -1.75095028076890
  H   0.50947050094990     -0.15786368398900      1.42114146948278
  H   0.68080883159112      1.41279931494663      0.62165035525268
  N   -1.83943116658484      0.60018505791808      0.69777818782079
  O   -2.51516796133480     -0.26927503752711      1.23273776529121
  O   -1.88392031707129      1.80315642929972      0.89668892961350
  C   -0.97232238759901     -1.28506564829359     -0.58100448529851
  N   -1.07643036706788     -2.42330241575837     -0.85449251462758
  C   1.78825526315543     -0.20331172100256     -0.32517296857847
  H   1.70996132894530     -1.28145290480743     -0.47706849315423
  H   2.70243075729105     -0.00864895784945      0.23841778864605
  H   1.88386308582868      0.27917793424739     -1.29844001693755
