14
Coordinates from ORCA-job run
  C   -0.84451868701495      0.14508018803480     -0.45297831234722
  C   0.63074271664730      0.49498016255623     -0.59761317038233
  Cl  -1.83773222645181      1.12807459522623     -1.53954108260444
  H   0.91321335580776      0.26810471969525     -1.62907982164551
  H   0.71371120321900      1.57526844394123     -0.45714305782599
  N   -1.24853480111335      0.47707370682402      0.99536415243788
  O   -1.56063202600377     -0.46316783618713      1.71467492090982
  O   -1.15301893058292      1.65240300120427      1.31119834844759
  C   -1.10612794004864     -1.26766010138690     -0.69949413205437
  N   -1.25352457451817     -2.40398703578256     -0.96055322337565
  C   1.50966858677204     -0.26134550280537      0.39250498672049
  H   1.28698211252252      0.01809501861214      1.42413689193961
  H   2.55710324798361     -0.01844788565381      0.20565140004628
  H   1.39266796278138     -1.34247147427840      0.29387209973383
