14
Coordinates from ORCA-job run
  C   -0.77850764405868      0.09264437961380     -0.43390978992319
  C   0.65224937478111     -0.44940433847284     -0.44071051414916
  Cl  -0.91162388503855      1.61642612711098     -1.30690811356754
  H   0.94800213077411     -0.53675331746818     -1.48938924791028
  H   0.60958027663778     -1.45804223687835     -0.02056275764033
  N   -1.15967108772215      0.29580497421435      1.05091489601719
  O   -1.31738258942337     -0.75485303935263      1.65987377178305
  O   -1.19187899588549      1.42759506628121      1.49966415441445
  C   -1.71922521882367     -0.87174391196295     -0.99271896666916
  N   -2.44083413309051     -1.66124558567476     -1.47941905530647
  C   1.63251311912001      0.41691575051154      0.33989859928172
  H   1.41298659062552      0.40478275573983      1.40913391982756
  H   2.64272467654445      0.02607956050111      0.20685788160206
  H   1.62106738555945      1.45179381583691     -0.00372477775978
