16

C	0.0	0.0	0.0
C	-0.361681	-0.256952	-1.498024
F	1.387136	0.0	0.0
H	0.62529	-0.354903	-1.971132
H	-0.364028	0.964518	0.344929
C	-0.44172	-1.045979	0.932205
N	-0.554392	-1.927088	1.701104
C	-1.073721	0.952924	-2.095943
H	-1.224093	0.821791	-3.173672
H	-0.489028	1.870058	-1.948655
H	-2.028779	1.01574	-1.565648
C	-1.148903	-1.538102	-1.751435
H	-1.270316	-1.694732	-2.830056
H	-0.636552	-2.41251	-1.338819
H	-2.110661	-1.399675	-1.255165
F	-2.546276	0.0	0.0
