16

C	0.0	0.0	0.0
C	-0.363654	0.227672	-1.501528
F	1.387252	0.0	0.0
H	0.622194	0.285193	-1.983803
H	-0.369457	0.80402	0.630869
C	-0.440544	-1.286999	0.555044
N	-0.569333	-2.35452	1.028001
C	-1.07523	1.565538	-1.684644
H	-2.013176	1.473939	-1.13059
H	-1.256086	1.763807	-2.747726
H	-0.461037	2.3858	-1.29144
C	-1.147183	-0.913034	-2.146733
H	-1.317717	-0.689815	-3.206515
H	-0.601501	-1.861334	-2.083624
H	-2.090221	-0.97707	-1.600622
F	-2.554317	0.0	0.0
