14
Coordinates from ORCA-job run
  C   -0.07579767753362     -0.36628903296341      0.26593593309162
  C   -0.87872136552659      0.85055055000321     -0.19301076461150
  Cl  -0.37252603806098     -0.65688772630541      1.99370706967078
  H   -1.92797040179255      0.72476856373640      0.07431652459257
  H   -0.82144417070289      0.92239753052567     -1.28375917541549
  N   -0.64433347818519     -1.58862758887045     -0.46623917424507
  O   -1.81971008089283     -1.53203374550524     -0.81288289092396
  O   0.10901248724231     -2.54097464553499     -0.62102035246263
  C   1.40501862624830     -0.25992496498250     -0.00422491840394
  H   1.57689415926765     -0.13030820425114     -1.07606279317468
  H   1.80779358481442      0.60106862203385      0.52990436487597
  H   1.91573338440390     -1.16090698404950      0.32735622682851
  C   -0.35317347366663      2.07586164010912      0.39931591572946
  N   0.07822444438468      3.06230598605441      0.86566403444836
