14
Coordinates from ORCA-job run
  C   -0.07325980288189     -0.36546973365059      0.31782638854209
  C   -0.85830750999695      0.82516449837929     -0.24554650904387
  Cl  -0.39310940952136     -0.52879853372750      2.04595715600256
  H   -1.91496630354250      0.71601322962178      0.01355450289811
  H   -0.76392928240415      0.81838768234456     -1.33638259819433
  N   -0.67216289351943     -1.57578301869623     -0.41798144786481
  O   -0.13025079572125     -1.85759091543014     -1.48284726948618
  O   -1.67146834084448     -2.10194677391047      0.04881637336313
  C   1.41502312826816     -0.29433514622256      0.06481795427978
  H   1.61542899602616     -0.15660419291033     -0.99690292044375
  H   1.89502554493023     -1.21468942555104      0.39894953393842
  H   1.83101033647773      0.54256027972831      0.62637199182296
  C   -0.35167949483998      2.08963118219245      0.27461131359799
  N   0.07264582756970      3.10246086783248      0.68775553058790
