14
Coordinates from ORCA-job run
  C   0.04290952700346     -0.26708551939786      0.35122007022220
  C   -0.16666542809179      1.19603520773428     -0.03817837305260
  Cl  -0.57956097963491     -0.55139889441768      1.97373734262732
  H   0.35718098386684      1.82186866694167      0.68871135163863
  H   0.27000282849040      1.36552489661661     -1.02425907138606
  N   -0.73256479386667     -1.12314826562791     -0.66196202324284
  O   -1.48882234250537     -1.99523159321093     -0.26796330658948
  O   -0.46822667629564     -0.85392322754701     -1.83083992496985
  C   1.49888950091647     -0.68159899451694      0.25914161946628
  H   1.60370821098821     -1.73540743784294      0.52244738654651
  H   2.09096659866374     -0.08882355698271      0.95785413571785
  H   1.86357942418860     -0.52407408299681     -0.75686419761843
  C   -1.57818617851028      1.56845281688267     -0.07038677499118
  N   -2.71221067521306      1.86780998436556     -0.10365823436835
