14
Coordinates from ORCA-job run
  C   0.00861132211032     -0.40378422242599      0.42565947795241
  C   -0.65316723371667      0.96331791071777      0.57200238660940
  Cl  -0.10101978830280     -1.23805608205084      1.99333683375940
  H   -1.68395106066243      0.84306547489211      0.90565320816685
  H   -0.10701912163837      1.52583813706815      1.33364231278999
  N   -0.82116286050497     -1.24512197407139     -0.55143518697914
  O   -0.23096267946492     -2.13344348065639     -1.15285190167604
  O   -2.01722484100667     -0.98699769551696     -0.62695960074080
  C   1.44169406435279     -0.34520802908650     -0.04261413118539
  H   1.86955113666277     -1.34422935498814     -0.08132100100853
  H   2.01861439119564      0.26651740584834      0.65303614814924
  H   1.49068846438507      0.09940669857821     -1.03876269798249
  C   -0.62764005960716      1.69915587230444     -0.68958094287608
  N   -0.58801173380259      2.29653933938719     -1.69880490497880
