14
Coordinates from ORCA-job run
  C   -0.11340576104340     -0.39218030885235      0.20555231080117
  C   -0.82071528327806      0.91075115029141     -0.16554694353903
  Cl  -0.59315604093500     -0.88310611610197      1.84468740969545
  H   -1.89631397761897      0.80028591488065     -0.02680890632055
  H   -0.64283812338901      1.12183566076769     -1.22497595200466
  N   -0.65122350564420     -1.48300830006426     -0.72944662110530
  O   -1.78864048403127     -1.33155070716477     -1.16329399168527
  O   0.08374547642911     -2.43737891631868     -0.94727834174625
  C   1.38983191522909     -0.32567393052850      0.09356198622521
  H   1.83196542639268     -1.28430597375802      0.35428455843294
  H   1.76734788586650      0.44195425657949      0.76962203017098
  H   1.67333208755301     -0.07293242671411     -0.93143183270719
  C   -0.32338440250181      2.02154771792689      0.63899874876660
  N   0.08345478697130      2.91476197905653      1.28207554501591
