14
Coordinates from ORCA-job run
  C   -0.09089511020757     -0.38663008259155      0.22436403313088
  C   -0.86901161040205      0.87925168189426     -0.12902568081265
  Cl  -0.43461643360234     -0.84223374525542      1.90667600753543
  H   -1.92883667063690      0.73814965212856      0.08527846713081
  H   -0.77249503636980      1.07106216163419     -1.20163373108205
  N   -0.63290209377151     -1.53083050551646     -0.64139920193384
  O   -1.70142550265252     -1.34736842784071     -1.21655355939463
  O   0.04052895608530     -2.55183615362494     -0.67661072069053
  C   1.39837102005187     -0.27374535368034      0.00036902239276
  H   1.88704599647225     -1.21154499907285      0.25514499050087
  H   1.59595285706538     -0.04324124593306     -1.05024429702142
  H   1.80099428040331      0.52512191876145      0.62351418508963
  C   -0.35706458205812      2.02542439913472      0.61545268788563
  N   0.06435392962272      2.94842069996214      1.20466779726912
