14
Coordinates from ORCA-job run
  C   -0.04640358669684     -0.36559680743061      0.27323034764366
  C   -0.84969567117809      0.90013798036832     -0.02379083284568
  Cl  -0.03720220749771     -0.66634998271330      2.02467153111961
  H   -1.83767316086169      0.82766829095490      0.43116305915745
  H   -0.98904526804168      0.98580322736184     -1.10627181379558
  N   -0.80794753465847     -1.54351158687989     -0.34747813808393
  O   -0.15068806636657     -2.53247860720239     -0.64497688043688
  O   -2.02228039512994     -1.41820065347937     -0.46914456821498
  C   1.36343630083487     -0.33632020769731     -0.26390477857951
  H   1.87442206059290     -1.26886670848778     -0.03650813112849
  H   1.90519046005337      0.49283580970786      0.19188587120591
  H   1.34333892575763     -0.19952508569975     -1.34828987942825
  C   -0.15577425415421      2.08563084578524      0.46793006748430
  N   0.41032239734642      3.03877348541225      0.85248414590236
