14
Coordinates from ORCA-job run
  C   0.04886014595492     -0.28599789823423      0.33425857194065
  C   -0.19979887720138      1.19203383380907      0.03464687403072
  Cl  -0.57428685849467     -0.68735220851608      1.93186154694008
  H   0.23643040350699      1.43459504599423     -0.93626032669155
  H   0.30239465541199      1.78598532563829      0.80240991761050
  N   -0.69690940059009     -1.09924999134405     -0.73522086249723
  O   -1.42656606509046     -2.01766875315782     -0.40080117179642
  O   -0.43749786550023     -0.74831572270778     -1.88330419128516
  C   1.51581861473696     -0.65518859145628      0.22724298047070
  H   1.64610476607443     -1.72078113849456      0.42247726551236
  H   1.88282333105820     -0.42296838352496     -0.77350872175457
  H   2.08768363002285     -0.09423348916917      0.96767329768128
  C   -1.62144288892999      1.52535922707200      0.01605027525518
  N   -2.76361359095952      1.79278274409134     -0.00752545541656
