14
Coordinates from ORCA-job run
  C   -0.07226085043846     -0.36521154804072      0.45186460958904
  C   -0.61816420165633      1.05952058944399      0.42734744664287
  Cl  -0.41696651506771     -1.05816101419014      2.05411791731538
  H   -0.10352414414422      1.63397276755829      1.20206159796226
  H   -1.68428051140650      1.05324120264809      0.65460991611308
  N   -0.87150883820417     -1.21162338557739     -0.54649371878628
  O   -0.30838143933778     -2.19518375935213     -1.00967862580838
  O   -2.02349293393222     -0.85921438114154     -0.77324042791604
  C   1.40050070985314     -0.46432460443737      0.13955437037659
  H   1.73639798599042     -1.49568288392552      0.21750266450215
  H   1.95648329416117      0.14934800546027      0.85025782352988
  H   1.59235631741955     -0.10531329749212     -0.87357889294408
  C   -0.39515633653491      1.68512730240847     -0.87373176083390
  N   -0.19100253670198      2.17250500663782     -1.92159291974256
