14
Coordinates from ORCA-job run
  C   0.03368425344803     -0.29753353241515      0.32609443221166
  C   -0.22222588883953      1.18656671458055      0.06494610221680
  Cl  -0.67811794465385     -0.76705568745011      1.86700609934326
  H   0.22187056455797      1.75953987800230      0.88281730585457
  H   0.26792375535795      1.47136803039720     -0.86805608392506
  N   -0.63194006217761     -1.08136178146468     -0.81586377974465
  O   -1.37092681781677     -2.01747189220109     -0.56054637981797
  O   -0.30375147117773     -0.68790562788783     -1.93213841952014
  C   1.51066330103358     -0.64006656216447      0.29609388369979
  H   1.64766699562988     -1.71006140841918      0.46035758439587
  H   2.02629033262967     -0.09839062270318      1.09024827945110
  H   1.93382575472141     -0.36544384635601     -0.67114777993609
  C   -1.64584476550659      1.49818287767654     -0.02863031148560
  N   -2.78911800720640      1.74863346040513     -0.11218093274352
