16

C	-0.366723	0.08268	-1.47588
C	0.0	0.0	0.0
Br	-0.213962	-1.724701	-2.315643
H	1.093629	0.0	0.0
H	-0.287552	0.983959	0.409225
N	-1.737381	0.490985	-1.679172
H	-1.892927	1.330781	-1.129949
H	-1.85009	0.723556	-2.661588
N	0.571116	0.911192	-2.218594
H	0.481223	1.845828	-1.821942
H	1.515378	0.607253	-1.952348
C	-0.622097	-1.109676	0.827061
H	-1.704077	-1.170921	0.678276
H	-0.18106	-2.07173	0.563776
H	-0.42199	-0.934826	1.888659
H	3.03433	0.0	0.0
