16

C	-0.3584	0.11505	-1.475616
C	0.0	0.0	0.0
Br	-0.204998	-1.794064	-2.305016
H	1.092937	0.0	0.0
H	-0.298428	0.975868	0.411528
N	-1.662202	0.622069	-1.718813
H	-2.354982	0.055958	-1.246908
H	-1.843597	0.610216	-2.715529
N	0.58334	0.893227	-2.226949
H	1.521797	0.621347	-1.917115
H	0.446897	1.85645	-1.930654
C	-0.597634	-1.12152	0.830474
H	-0.32826	-0.969652	1.880453
H	-0.196225	-2.086862	0.519813
H	-1.692749	-1.168709	0.769424
H	3.026254	0.0	0.0
