16

C	-0.271984	0.005875	-1.482101
C	0.0	0.0	0.0
Br	-2.318344	0.160814	-1.809123
H	1.100314	0.0	0.0
H	-0.337541	0.947855	0.428192
N	0.353218	1.144551	-2.051959
H	0.446675	0.995914	-3.050731
H	1.281405	1.229764	-1.628863
N	0.096927	-1.20265	-2.194169
H	1.088106	-1.338105	-1.978962
H	-0.416398	-1.993176	-1.819952
C	-0.514292	-1.184543	0.795093
H	-0.107403	-2.124436	0.411999
H	-0.171606	-1.095287	1.829524
H	-1.606342	-1.246395	0.792309
H	2.943611	0.0	0.0
