16

C	-0.32314	0.364146	-1.445655
C	0.0	0.0	0.0
Br	-0.405597	-1.548016	-2.479985
H	1.094502	0.0	0.0
H	-0.391187	-0.981165	0.269651
N	-1.618349	0.892275	-1.816292
H	-1.763457	1.73031	-1.26204
H	-2.338786	0.217776	-1.59332
N	0.6701	1.182569	-1.927325
H	1.610693	0.907623	-1.622746
H	0.572598	1.420712	-2.903923
C	-0.471725	1.080307	0.969313
H	-0.03576	0.886146	1.952096
H	-0.114167	2.061818	0.648429
H	-1.561013	1.116604	1.080604
H	2.987858	0.0	0.0
