14

C	-0.088772	0.047838	-1.523916
C	0.0	0.0	0.0
Br	-1.874459	0.726017	-2.158686
H	1.096677	0.0	0.0
H	-0.337616	0.972242	0.383054
N	0.956971	0.889121	-2.081822
H	1.802077	0.608198	-1.531741
H	0.753794	1.84082	-1.786021
C	0.025323	-1.300107	-2.09588
N	0.141187	-2.367101	-2.573486
N	-0.619685	-1.153787	0.612671
H	-1.453066	-0.90168	1.124837
H	0.039413	-1.5818	1.248125
F	2.699339	0.0	0.0
