14

C	-0.096054	0.066345	-1.521364
C	0.0	0.0	0.0
Br	-1.944209	0.563888	-2.141688
H	1.096437	0.0	0.0
H	-0.466863	-0.899961	0.413619
N	0.859935	1.011272	-2.063002
H	0.601677	1.901926	-1.643438
H	1.73812	0.73816	-1.575621
C	0.143466	-1.261464	-2.095919
N	0.328714	-2.345137	-2.508729
N	-0.4107	1.265648	0.594268
H	-1.299747	1.186218	1.067883
H	0.297611	1.533164	1.26519
F	2.675648	0.0	0.0
