14

C	-0.61972	-0.205736	-1.384196
C	0.0	0.0	0.0
Br	0.305127	-1.729439	-2.256175
H	1.091911	0.0	0.0
H	-0.389279	0.962857	0.36039
N	-2.036897	-0.52819	-1.380445
H	-2.127001	-1.161084	-0.585156
H	-2.540884	0.327605	-1.150822
C	-0.401982	0.963847	-2.23618
N	-0.300006	1.943147	-2.878835
N	-0.475731	-1.102263	0.86477
H	0.349188	-1.665532	1.052568
H	-0.776297	-0.722125	1.755702
F	2.645409	0.0	0.0
