14

C	-0.06273	0.180086	-1.509749
C	0.0	0.0	0.0
Br	-1.835899	0.944309	-2.16925
H	1.105459	0.0	0.0
H	-0.479851	-0.925078	0.320968
N	0.99392	1.071812	-1.872424
H	1.175392	1.053009	-2.867666
H	1.8369	0.779372	-1.313835
C	-0.01608	-1.126499	-2.185242
N	0.069508	-2.16329	-2.734658
N	-0.535116	1.163325	0.726948
H	-0.319197	1.976478	0.156055
H	0.059273	1.262041	1.545782
F	2.727229	0.0	0.0
