14

C	-0.151205	-0.065998	-1.531157
C	0.0	0.0	0.0
Br	-0.010422	1.804016	-2.221629
H	1.099211	0.0	0.0
H	-0.476051	0.880406	0.440559
N	0.913908	-0.838271	-2.12304
H	1.754327	-0.595344	-1.560427
H	0.703875	-1.809897	-1.914823
C	-1.470862	-0.539439	-1.960545
N	-2.553278	-0.908698	-2.235914
N	-0.427649	-1.29004	0.536642
H	0.255474	-1.59414	1.217543
H	-1.335847	-1.236264	0.97648
F	2.696636	0.0	0.0
