17

C	0.0	0.0	0.0
C	-0.586438	-0.067517	-1.405866
Cl	1.811882	0.0	0.0
H	-1.632717	-0.38324	-1.229333
N	-0.529491	1.063733	0.730198
H	-0.416565	0.9274	1.724772
H	-0.182231	1.958931	0.423792
N	-0.344779	-1.284858	0.770666
O	-0.346245	-1.202741	1.992572
O	-0.524674	-2.296747	0.112082
C	0.104149	-1.015469	-2.274793
N	0.634478	-1.709125	-3.060563
C	-0.635675	1.316916	-2.057119
H	0.346837	1.798995	-2.059089
H	-1.370465	1.919718	-1.522922
H	-0.969626	1.216547	-3.090825
Br	-3.828358	0.0	0.0
