17

C	0.0	0.0	0.0
C	-0.557635	-0.013278	-1.428696
Cl	1.757675	0.0	0.0
H	-1.596638	-0.357442	-1.325771
N	-0.521117	1.061347	0.749816
H	-1.547157	0.997752	0.694368
H	-0.238039	0.958204	1.718403
N	-0.329778	-1.38469	0.669966
O	-0.604896	-2.330935	-0.056159
O	-0.25387	-1.404328	1.89347
C	0.169847	-0.923691	-2.307451
N	0.77035	-1.580569	-3.074251
C	-0.574309	1.394198	-2.029662
H	0.400288	1.873957	-1.937673
H	-0.842	1.33231	-3.085995
H	-1.321658	1.990848	-1.51434
Br	-3.677034	0.0	0.0
