16

C	-0.397049	-0.006877	-1.462789
C	0.0	0.0	0.0
F	-0.025308	1.190827	-2.05228
H	1.09604	0.0	0.0
C	0.365939	-1.067298	-2.182093
N	0.828163	-1.953165	-2.80052
N	-1.815751	-0.143431	-1.671694
H	-2.01769	-0.40115	-2.62995
H	-2.189962	-0.850241	-1.053825
C	-0.351558	-1.298385	0.725993
H	0.090793	-2.141674	0.189589
H	-1.426566	-1.472162	0.863354
H	0.116672	-1.270659	1.711764
C	-0.557216	1.156714	0.669247
N	-0.99591	2.067851	1.27045
F	2.520252	0.0	0.0
