16

C	-0.120286	-0.115275	-1.536328
C	0.0	0.0	0.0
F	0.050696	-1.467017	-1.840816
H	1.095903	0.0	0.0
C	-1.462268	0.242639	-2.054648
N	-2.540162	0.493622	-2.449005
N	0.917123	0.612238	-2.199952
H	0.667109	1.591008	-2.269524
H	1.75304	0.514892	-1.590057
C	-0.634447	-1.120976	0.804738
H	-0.182915	-2.067352	0.508876
H	-0.436422	-0.966778	1.868371
H	-1.718831	-1.179206	0.65819
C	-0.449622	1.318199	0.407297
N	-0.796551	2.391845	0.74144
F	2.612374	0.0	0.0
