15
Coordinates from ORCA-job run
  C   0.99930541588666      0.27222287303040      0.49650592676041
  C   -0.39864389624703      0.46726790697138     -0.09162102563394
  Br  1.91328854083314      1.93571723299491      0.80904716274087
  H   -0.28988224977448      1.13628126848218     -0.94985553605405
  H   0.96943957963358     -0.27212398117662      1.43928373430911
  N   1.81296223664513     -0.56934644242795     -0.44163813315705
  O   2.14314527025798     -1.67995205588279     -0.02996134554860
  O   2.02220793025436     -0.11909339331982     -1.56233534204473
  N   -1.20200533330263      1.13293578665062      0.92457003309684
  H   -1.89657492366935      1.72905574226668      0.49637953341202
  H   -1.68531533600470      0.44881894566374      1.49434900006640
  C   -0.97669753246838     -0.86970929058691     -0.55976028533144
  H   -1.00551670659673     -1.58980296660685      0.26425972503373
  H   -1.99901013038348     -0.71052750504720     -0.90924783137940
  H   -0.40670286506406     -1.30974412101179     -1.37997561627017
