15
Coordinates from ORCA-job run
  C   1.04761852056278     -0.04517105019930     -0.33277248374885
  C   -0.39241547664833      0.29644602485827      0.04198642325596
  Br  1.27901285553701     -1.87569559058193     -0.88329648761190
  H   -0.35208692533393      1.35824182943577      0.30707281437869
  H   1.41343024756107      0.58762389712812     -1.14094040754379
  N   1.92183379697717      0.28525226820549      0.86212064936733
  O   1.97460072526950      1.49184228558127      1.08725281181783
  O   2.46314503164825     -0.59885775611768      1.50175296153067
  N   -0.73455209297667     -0.42875741487059      1.25450235581614
  H   -1.55563021989883     -0.02313313378108      1.68459917560875
  H   -0.93656769493951     -1.39929760791900      1.04384292207519
  C   -1.34477365408665      0.11976454260634     -1.13748563975122
  H   -1.44856041233238     -0.93446484676580     -1.40080535113173
  H   -1.00275154813416      0.66375788039519     -2.02298971314379
  H   -2.33130315320532      0.50244867202492     -0.86484003091928
