15
Coordinates from ORCA-job run
  C   0.94988990608630      0.22824825461098      0.51953585191239
  C   -0.43596706995323      0.39268630016035     -0.09105378281665
  Br  1.75601997279671      1.92417488760810      0.97838970762656
  H   -0.33164578069976      1.05048207442579     -0.96533934736211
  H   0.91596091690430     -0.37866687698002      1.42162927337788
  N   1.83906062238779     -0.48506099984373     -0.45418479998696
  O   2.04008498757895      0.05527514777162     -1.53597230807731
  O   2.23755889166080     -1.59540916454548     -0.10815734590149
  N   -1.30239111930119      0.92037306285400      0.95627954239139
  H   -2.26827490328005      0.85412896302331      0.65957944363461
  H   -1.09942113297401      1.89871057128651      1.12306261888105
  C   -0.96506962889393     -0.96423266425425     -0.53965226758051
  H   -1.97627878809190     -0.84604774797891     -0.93760267506237
  H   -0.35320901061698     -1.39947002115565     -1.33078191696899
  H   -1.00731786360378     -1.65519178698262      0.30526800593251
