15
Coordinates from ORCA-job run
  C   1.04754149862298     -0.25113145870815     -0.24292659025822
  C   -0.37711473930627      0.26989697855512      0.02183285289154
  Br  1.17527155520629     -2.16720387885159     -0.19983586606194
  H   -0.25282310915970      1.35282149588215      0.15022321463404
  H   1.41591155246918      0.07564038482799     -1.21325240855161
  N   1.98330238712961      0.36764835084030      0.75743122587537
  O   2.46889672296506      1.43988198310935      0.39212880413453
  O   2.04088811914074     -0.10197453755417      1.88426836114083
  N   -0.90840663475743     -0.28253577319930      1.25162294990967
  H   -1.59389176850888     -1.00348100129586      1.07749138443664
  H   -1.31149520976289      0.42897117359157      1.84141596428129
  C   -1.25197539707919      0.01750615868226     -1.20225881324031
  H   -0.84595775611915      0.49483266535978     -2.09773984846005
  H   -1.33601319656763     -1.05541570085289     -1.39274879675339
  H   -2.25413402427272      0.41354315961346     -1.02565243397840
