11

C	-0.384333	0.098594	-1.458489
C	0.0	0.0	0.0
F	-1.749038	0.331532	-1.652874
H	1.093591	0.0	0.0
H	0.157605	0.929957	-1.91797
H	-0.358161	-0.930298	0.446452
C	-0.053005	-1.142893	-2.178028
N	0.144473	-2.130809	-2.779048
C	-0.504658	1.141087	0.743231
N	-0.889875	2.070035	1.350725
H	2.709901	0.0	0.0
