19

C	-0.552896	0.049587	-1.418294
C	0.0	0.0	0.0
F	-0.233585	-1.140149	-2.02219
H	1.09166	0.0	0.0
C	-2.041404	0.267532	-1.573118
H	-2.343569	1.22873	-1.165689
H	-2.302499	0.226972	-2.63329
H	-2.569354	-0.528068	-1.046544
N	0.166783	1.125291	-2.232924
O	-0.278788	2.266874	-2.120225
O	1.101077	0.780643	-2.940137
C	-0.420867	-1.269707	0.714286
H	-0.02593	-1.226592	1.730823
H	0.065796	-2.104797	0.21127
H	-1.499837	-1.433011	0.76698
N	-0.486969	1.191622	0.743118
O	-1.51101	1.082516	1.43427
O	0.154924	2.235767	0.633239
F	2.534968	0.0	0.0
