19

C	-0.582914	-0.036629	-1.41122
C	0.0	0.0	0.0
F	-0.528308	-1.346156	-1.84842
H	1.091486	0.0	0.0
C	-2.008691	0.431205	-1.570401
H	-2.100799	1.48967	-1.348798
H	-2.33603	0.254347	-2.596207
H	-2.635923	-0.149939	-0.891299
N	0.310956	0.70279	-2.414015
O	1.343534	0.132899	-2.73349
O	-0.086207	1.783269	-2.848447
C	-0.40245	-1.208663	0.81825
H	-1.484396	-1.334232	0.933752
H	0.044612	-1.110763	1.805889
H	0.023363	-2.090425	0.342522
N	-0.40206	1.252588	0.652436
O	-0.825914	1.227348	1.812085
O	-0.242748	2.293518	0.00802
F	2.501443	0.0	0.0
