19

C	-0.540648	-0.012764	-1.42834
C	0.0	0.0	0.0
F	-0.415638	-1.300517	-1.906783
H	1.091402	0.0	0.0
C	-1.980548	0.405471	-1.607026
H	-2.605818	-0.246906	-0.994075
H	-2.127002	1.441581	-1.311671
H	-2.266599	0.293747	-2.654716
N	0.343319	0.816464	-2.368826
O	-0.059015	1.935996	-2.679012
O	1.370629	0.285193	-2.762528
C	-0.443447	-1.212857	0.788817
H	-1.528405	-1.341198	0.849989
H	-0.051804	-1.116787	1.801381
H	0.012327	-2.092073	0.3357
N	-0.446174	1.248426	0.643355
O	-1.150533	1.195763	1.660433
O	-0.080207	2.304946	0.120716
F	2.511012	0.0	0.0
