19

C	-0.232983	-0.026206	-1.499481
C	0.0	0.0	0.0
F	0.089916	1.200682	-2.008894
H	1.092247	0.0	0.0
C	0.676937	-1.054093	-2.136216
H	0.682555	-0.900329	-3.218056
H	0.342194	-2.066393	-1.911894
H	1.665655	-0.868428	-1.694786
N	-1.669951	-0.286947	-1.938634
O	-2.154445	-1.349742	-1.548808
O	-2.229393	0.519031	-2.669788
C	-0.447881	-1.196283	0.819152
H	-0.058269	-1.060308	1.830062
H	-1.532899	-1.315722	0.846744
H	0.000522	-2.103266	0.413695
N	-0.586679	1.214458	0.606651
O	-1.597657	1.697359	0.085309
O	-0.07053	1.636162	1.639545
F	2.603931	0.0	0.0
