19

C	-0.374629	0.140382	-1.469816
C	0.0	0.0	0.0
F	-1.721934	0.391486	-1.632131
H	1.088951	0.0	0.0
C	0.460928	1.125826	-2.245668
H	1.488869	0.998866	-1.900531
H	0.11533	2.129081	-2.010989
H	0.367531	0.942898	-3.319533
N	-0.148346	-1.241359	-2.085119
O	1.011342	-1.525252	-2.361776
O	-1.125627	-1.969502	-2.240251
C	-0.513318	-1.25991	0.661038
H	-1.568317	-1.459696	0.462177
H	0.094203	-2.092778	0.303097
H	-0.36294	-1.188795	1.737209
N	-0.477395	1.212539	0.70776
O	-1.201081	1.074225	1.697014
O	-0.09591	2.311894	0.297713
F	2.55043	0.0	0.0
