19

C	-0.248328	-0.05541	-1.497076
C	0.0	0.0	0.0
F	0.014233	1.185332	-2.012379
H	1.092255	0.0	0.0
C	0.69391	-1.051451	-2.134874
H	0.390518	-2.073415	-1.908335
H	1.678727	-0.83859	-1.694396
H	0.691866	-0.900073	-3.216945
N	-1.683343	-0.369905	-1.912357
O	-2.304859	0.443122	-2.58374
O	-2.104238	-1.471792	-1.559754
C	-0.476493	-1.165057	0.843181
H	-0.031244	-2.08721	0.469282
H	-0.10335	-1.010235	1.858702
H	-1.562535	-1.270215	0.854488
N	-0.586209	1.244174	0.550777
O	-1.735806	1.534184	0.20023
O	0.074345	1.885346	1.362868
F	2.617851	0.0	0.0
