19

C	-0.542574	0.003246	-1.422784
C	0.0	0.0	0.0
F	-0.125039	-1.157661	-2.019218
H	1.091669	0.0	0.0
C	-2.041422	0.105158	-1.597299
H	-2.427539	1.020995	-1.158039
H	-2.50845	-0.751151	-1.11038
H	-2.283904	0.08202	-2.662575
N	0.096451	1.134521	-2.225545
O	1.04267	0.867449	-2.949747
O	-0.424471	2.240387	-2.085915
C	-0.419106	-1.249246	0.750634
H	0.009076	-1.192722	1.753285
H	0.039726	-2.102584	0.250942
H	-1.498091	-1.392852	0.838881
N	-0.491082	1.210839	0.710807
O	-1.548167	1.131555	1.354121
O	0.184233	2.235533	0.629544
F	2.539283	0.0	0.0
