19

C	-0.33208	0.177591	-1.484396
C	0.0	0.0	0.0
F	-1.610308	0.657941	-1.671616
H	1.089247	0.0	0.0
C	0.689334	0.997184	-2.231336
H	1.66788	0.710487	-1.837142
H	0.609891	0.830297	-3.308033
H	0.510179	2.045925	-2.002307
N	-0.344787	-1.230174	-2.078069
O	0.751159	-1.724599	-2.325133
O	-1.43386	-1.778532	-2.236721
C	-0.564055	-1.239178	0.655479
H	-1.644284	-1.342586	0.530499
H	-0.335905	-1.211422	1.72018
H	-0.057775	-2.110309	0.235558
N	-0.457456	1.227445	0.699117
O	-0.038449	2.312097	0.293209
O	-1.215984	1.112759	1.666653
F	2.577558	0.0	0.0
