17
Coordinates from ORCA-job run
  C   -0.59361177961962     -0.35039172362817     -0.35208643068002
  C   0.88016738258249     -0.38792538098584      0.12855061333104
  H   -0.68970808497659     -0.98547972589961     -1.23578532792498
  H   1.07068829482619     -1.41353904410652      0.48340595595785
  C   -1.12811010558974      1.04053753019648     -0.60729975316500
  H   -1.16584881433886      1.61728820173539      0.31559685909816
  H   -2.13693460168264      0.99668219012141     -1.02256208464482
  H   -0.47166895521438      1.53832967253895     -1.32169604740757
  N   -1.40155015590909     -1.05348139895267      0.68937748507548
  O   -1.67695250231693     -0.42623397547776      1.71363916544549
  O   -1.68156093981965     -2.23421483154425      0.48656874990143
  N   1.22869767851271      0.50525475041469      1.20794325435680
  H   1.08435851961612      1.46362332358922      0.91166615634635
  H   0.65596364145535      0.32849291502781      2.02388182545192
  N   1.70028786926294     -0.00110573724777     -1.00846347770970
  H   1.66835149243240     -0.71349217827191     -1.72830986820086
  H   2.65743106077931      0.07565541249057     -0.68342707523157
