16
Coordinates from ORCA-job run
  C   0.48877174279004     -0.15526888609956     -0.03554758839078
  C   -0.81265621489968      0.14533236706748     -0.26896145011531
  C   1.17205954707225      0.07595901087728      1.28254707023215
  H   1.91895051419879      0.87121428841874      1.18211457068045
  H   1.71440115054104     -0.82669625927333      1.58037430266671
  H   0.49528363382284      0.34293096172343      2.09158551267085
  C   1.38039203158153     -0.73818909280382     -1.09625793694073
  H   1.72274094744230     -1.73380677777336     -0.79355591839591
  H   2.27643011414649     -0.12084225030453     -1.21476146180449
  H   0.88831677494892     -0.82389087243191     -2.06488876038326
  C   -1.80283258690701      0.74094708755348      0.70057345552000
  H   -2.59139859506641      0.01928589867349      0.93107402045189
  H   -1.33491224224098      1.05066790016864      1.63251233114901
  H   -2.28380659024511      1.61553327057535      0.25448526020833
  C   -1.36753143618809     -0.12790233152602     -1.56616487463599
  N   -1.86420879099690     -0.33527431484535     -2.61312853291292
