16
Coordinates from ORCA-job run
  C   0.48896182891104     -0.15623604154117     -0.03649396752078
  C   -0.81233371550519      0.14557363980668     -0.26916497035642
  C   1.17182488927441      0.07514066367470      1.28172663605936
  H   1.91202109122938      0.87711035393883      1.18500222372304
  H   1.72162564360259     -0.82430452063188      1.57530907352445
  H   0.49356313616584      0.33298268986223      2.09250134252029
  C   1.37994150122029     -0.74051920064960     -1.09660604674554
  H   0.88757828854311     -0.82688605251027     -2.06521613709122
  H   2.27492047799945     -0.12087641579703     -1.21614179154446
  H   1.72200683431855     -1.73583919019186     -0.79423398364327
  C   -1.80083726408898      0.74399363293386      0.70040628735581
  H   -1.33040211727729      1.05595386222961      1.63059954197187
  H   -2.59079996337716      0.02440757596492      0.93384452863205
  H   -2.28030342974837      1.61824850633416      0.25306809105958
  C   -1.36912977441793     -0.12951132593694     -1.56505135146941
  N   -1.86763742684975     -0.33923817748623     -2.61054947647536
