16
Coordinates from ORCA-job run
  C   0.49218716452445     -0.14346169706790     -0.04483000551984
  C   -0.79599004439218      0.20110796762233     -0.28927313326583
  C   1.08079590900152     -0.19182444563265      1.33714476814277
  H   1.67844161513888     -1.10095680508986      1.45174212784961
  H   1.76191629088559      0.65328453626676      1.48841737942402
  H   0.33628188611802     -0.17724558427594      2.13107262607792
  C   1.45704669041752     -0.48829233300029     -1.14404588950956
  H   1.03372307917296     -0.34979414299309     -2.13889898452651
  H   1.77907354517857     -1.53077754805760     -1.04826278425751
  H   2.35675662372771      0.13003431711516     -1.05929238299371
  C   -1.84013905526788      0.57736321501109      0.73338068688488
  H   -2.53880208902466     -0.24889338709283      0.89526588938546
  H   -2.42157345683065      1.43076270876678      0.37740084822806
  H   -1.39632380645118      0.84995688943537      1.68924320989457
  C   -1.27492094229380      0.19215810904646     -1.64333853628357
  N   -1.70847340990486      0.19657819994619     -2.73772581953078
