16
Coordinates from ORCA-job run
  C   0.50371768978921     -0.09101608937792     -0.05353641498457
  C   -0.81637718708222      0.12316967973301     -0.27567722468627
  C   1.47604410558780     -0.35735718655131     -1.16788260234396
  H   0.99303329161123     -0.44003306958107     -2.14152701264959
  H   2.21903012340601      0.44579838471412     -1.21848804557559
  H   2.02479547615791     -1.28435508100819     -0.97156704483047
  C   1.11319075327413     -0.10456847261338      1.32014982331379
  H   1.37013996768682     -1.12964151466733      1.61036422929325
  H   0.46879427390116      0.31720459305324      2.08937494228453
  H   2.04803784639385      0.46364396084683      1.31435918733928
  C   -1.87682161534708      0.38482512129819      0.76578906114567
  H   -1.55413330510902      0.08591389954508      1.76152285005054
  H   -2.78366092872504     -0.17422919258916      0.52460196528343
  H   -2.14367623041541      1.44563417081268      0.78851821103784
  C   -1.30118860469930      0.14453049386742     -1.62750287844438
  N   -1.73992565643006      0.17148030251778     -2.71949904623351
