16
Coordinates from ORCA-job run
  C   0.48821112779707     -0.15954412633215     -0.03863809464539
  C   -0.80710364724861      0.16502337557130     -0.27245390777247
  C   1.17095107132341      0.05733981526597      1.28143893152314
  H   1.69978772713853     -0.85355776850889      1.57792453009677
  H   1.92826514425686      0.84450893903330      1.18691868938194
  H   0.49439306197134      0.32957685122973      2.08906031094234
  C   1.37247660906883     -0.75094661174068     -1.09996497283553
  H   2.28027612646124     -0.14830905103781     -1.20810799691720
  H   1.69126669761258     -1.75701925468662     -0.80868114562430
  H   0.88194533017266     -0.81900448864728     -2.07179560990371
  C   -1.78857431043226      0.76281787543906      0.70555890974954
  H   -2.54117925489409      0.01757412471896      0.98331496314362
  H   -2.32058904638629      1.59795629488661      0.24389977889826
  H   -1.30510315783781      1.12898193640621      1.60832828047663
  C   -1.37078360009900     -0.10534548144682     -1.56572606395945
  N   -1.87323987890448     -0.31105243015088     -2.61007660255418
