16
Coordinates from ORCA-job run
  C   0.49811528130973      0.02365086128899      0.13161748566717
  C   -0.76639938670984      0.34534873621044     -0.23549677003991
  C   1.56765821950502      1.05612849502481      0.34468133643039
  H   2.37440826777635      0.91929390965300     -0.38326877761080
  H   1.19397097289605      2.07643845338489      0.25620865565588
  H   2.01287773518001      0.93410381449813      1.33773199859854
  C   0.92990331136212     -1.39450708233462      0.38158365772823
  H   0.27274006006804     -2.13305083016160     -0.07552516933235
  H   1.93795489327864     -1.55091305211789     -0.01248902058934
  H   0.97656929149403     -1.59554773201137      1.45814820678537
  C   -1.90071902282279     -0.62683492876510     -0.45604601541227
  H   -1.77306822404811     -1.53579040218333      0.13028331926166
  H   -1.97879209124619     -0.90212038550310     -1.51226892370077
  H   -2.84884869987260     -0.17002286670068     -0.16590612487600
  C   -1.09376707192130      1.71957617899968     -0.48983470648195
  N   -1.40160353624916      2.83424683071776     -0.71041915208386
