16

C	-0.421094	-0.034254	-1.453332
C	0.0	0.0	0.0
Cl	-2.206888	-0.119542	-1.651925
H	1.091043	0.0	0.0
H	-0.125748	0.930706	-1.865026
C	0.255407	-1.167005	-2.201872
H	1.330476	-1.120421	-2.007037
H	0.066082	-1.060449	-3.27148
H	-0.11832	-2.136947	-1.872944
N	-0.525781	-1.174502	0.747347
O	-1.581927	-1.050488	1.361674
O	0.120497	-2.212179	0.628218
N	-0.402914	1.250183	0.715176
O	-0.756317	2.210874	0.033947
O	-0.25864	1.246634	1.932302
Cl	3.190068	0.0	0.0
