16

C	-0.451558	0.007621	-1.445329
C	0.0	0.0	0.0
Cl	-2.227084	-0.236914	-1.597678
H	1.102633	0.0	0.0
H	-0.264718	1.018526	-1.80674
C	0.300868	-1.007817	-2.284009
H	0.065332	-0.853026	-3.338681
H	0.03017	-2.025097	-2.005272
H	1.37263	-0.874506	-2.115414
N	-0.503164	-1.201342	0.725796
O	-1.46027	-1.075663	1.485136
O	0.063153	-2.254825	0.448298
N	-0.411433	1.218547	0.763399
O	-0.975576	2.128728	0.158612
O	-0.086879	1.236279	1.945717
Cl	3.192449	0.0	0.0
