16

C	-0.546085	-0.003154	-1.421009
C	0.0	0.0	0.0
Cl	0.019144	1.496479	-2.215699
H	1.089937	0.0	0.0
H	-0.029501	-0.818829	-1.924598
C	-2.049107	-0.124067	-1.59092
H	-2.28236	-0.198043	-2.65485
H	-2.561333	0.744278	-1.181369
H	-2.414827	-1.019848	-1.091263
N	-0.367715	-1.257005	0.730778
O	-0.337348	-1.217642	1.95423
O	-0.575811	-2.259516	0.049863
N	-0.542597	1.134755	0.795838
O	0.214417	2.061856	1.053525
O	-1.734202	1.06854	1.106455
Cl	3.201205	0.0	0.0
