16

C	-0.509932	0.115027	-1.429719
C	0.0	0.0	0.0
Br	-0.228396	-1.566673	-2.409459
H	1.090834	0.0	0.0
H	-1.59648	0.241918	-1.434651
C	0.226304	1.231505	-2.149731
H	1.302246	1.066989	-2.052683
H	-0.058049	1.274069	-3.20297
H	-0.017431	2.191228	-1.685762
N	-0.6017	-1.219303	0.637924
O	-1.836056	-1.248989	0.676528
O	0.134034	-2.086032	1.094876
N	-0.386466	1.123589	0.813118
H	0.40944	1.744399	0.895503
H	-1.202004	1.613811	0.472343
H	2.842506	0.0	0.0
