16

C	-0.506984	-0.082008	-1.429367
C	0.0	0.0	0.0
Br	0.142189	1.498202	-2.408444
H	1.10058	0.0	0.0
H	-0.028685	-0.922167	-1.929146
C	-2.017862	-0.131063	-1.529398
H	-2.349881	-0.105694	-2.570173
H	-2.369249	-1.060451	-1.072624
H	-2.440938	0.721506	-0.996083
N	-0.335453	-1.211602	0.699304
O	-0.472685	-1.174589	1.941043
O	-0.314359	-2.279588	0.051335
N	-0.446876	1.181362	0.705942
H	-0.749733	0.87333	1.624512
H	0.389211	1.745156	0.854553
H	2.457395	0.0	0.0
