16

C	-0.5846	0.098503	-1.408067
C	0.0	0.0	0.0
Br	-0.523163	-1.60706	-2.383222
H	1.090928	0.0	0.0
H	-1.652753	0.326843	-1.340651
C	0.182644	1.148526	-2.190577
H	-0.187572	1.22966	-3.214237
H	0.065576	2.10311	-1.680986
H	1.242444	0.89113	-2.192168
N	-0.517855	-1.244676	0.679436
O	-1.663072	-1.186433	1.152671
O	0.198339	-2.237316	0.718737
N	-0.408212	1.178492	0.718576
H	0.310217	1.387542	1.403332
H	-1.295936	1.017998	1.178973
H	2.832393	0.0	0.0
