16

C	-0.325252	0.008422	-1.478793
C	0.0	0.0	0.0
Br	-2.293106	0.157397	-1.811285
H	1.093184	0.0	0.0
H	0.056415	0.966588	-1.838906
C	0.261769	-1.116058	-2.299345
H	-0.211103	-2.070265	-2.078345
H	0.159456	-0.898565	-3.365038
H	1.321495	-1.177273	-2.027139
N	-0.499644	-1.254318	0.637939
O	-1.409904	-1.18979	1.465116
O	0.043193	-2.305073	0.283869
N	-0.407863	1.139749	0.748269
H	-1.258106	1.562393	0.403835
H	0.359076	1.800218	0.761131
H	2.684214	0.0	0.0
