16

C	-0.325253	-0.013431	-1.478815
C	0.0	0.0	0.0
Br	-2.291393	0.13335	-1.812968
H	1.093113	0.0	0.0
H	0.060943	0.938095	-1.850878
C	0.262114	-1.150772	-2.280975
H	-0.210953	-2.100978	-2.0457
H	0.160044	-0.948894	-3.34914
H	1.320845	-1.20768	-2.006862
N	-0.505438	-1.240648	0.654682
O	-1.425288	-1.160596	1.470551
O	0.037442	-2.299285	0.324511
N	-0.404274	1.150967	0.734168
H	-1.266025	1.557221	0.397902
H	0.357045	1.817577	0.714755
H	2.683913	0.0	0.0
