16

C	-0.417054	0.009455	-1.448739
C	0.0	0.0	0.0
Br	-2.406501	-0.100129	-1.626613
H	1.093836	0.0	0.0
H	-0.204302	1.026695	-1.777596
C	0.253008	-0.992314	-2.360957
H	-0.106107	-2.003473	-2.189035
H	0.08705	-0.717853	-3.405954
H	1.324215	-0.957717	-2.12913
N	-0.388498	-1.265523	0.692624
O	-0.08277	-2.330862	0.152127
O	-0.926821	-1.187765	1.804716
N	-0.424197	1.170259	0.697688
H	0.235675	1.334307	1.450272
H	-1.341432	1.031249	1.103664
H	2.645429	0.0	0.0
