16

C	-0.587807	0.078173	-1.400826
C	0.0	0.0	0.0
Br	-0.3153	-1.601102	-2.383866
H	1.090944	0.0	0.0
H	-1.674199	0.178083	-1.342778
C	0.065802	1.218762	-2.157842
H	1.149427	1.087235	-2.140639
H	-0.176779	2.150833	-1.646671
H	-0.292153	1.261734	-3.188768
N	-0.522629	-1.242855	0.68416
O	0.239124	-2.174785	0.91045
O	-1.724565	-1.23314	0.983105
N	-0.409318	1.173746	0.727372
H	0.310497	1.384374	1.410183
H	-1.300812	1.021992	1.18257
H	2.840667	0.0	0.0
