12

C	-0.580789	-0.028651	-1.410219
C	0.0	0.0	0.0
Cl	-0.060869	1.395112	-2.361622
H	1.097721	0.0	0.0
H	-1.669633	0.018805	-1.337707
H	-0.349442	0.92363	0.469419
C	-0.24005	-1.256165	-2.130754
N	0.018489	-2.242648	-2.713927
N	-0.569352	-1.155044	0.712737
H	-0.558487	-0.95166	1.705131
H	0.071108	-1.933151	0.587217
Br	3.639344	0.0	0.0
