12

C	-0.456502	0.007279	-1.450599
C	0.0	0.0	0.0
Cl	-2.220685	-0.387181	-1.57344
H	1.094303	0.0	0.0
H	0.064838	-0.772897	-2.009878
H	-0.315381	-0.958137	0.430101
C	-0.23922	1.294089	-2.104587
N	-0.074262	2.319595	-2.650696
N	-0.51601	1.154923	0.719134
H	0.243223	1.592436	1.221689
H	-1.232047	0.891566	1.380177
Br	3.574836	0.0	0.0
