12

C	-0.575991	-0.071792	-1.409753
C	0.0	0.0	0.0
Cl	-0.090581	1.341334	-2.39133
H	1.093236	0.0	0.0
H	-1.666079	-0.051451	-1.342277
H	-0.350075	0.937022	0.441433
C	-0.202007	-1.306417	-2.100515
N	0.072874	-2.292357	-2.676154
N	-0.554058	-1.1432	0.740701
H	-0.679846	-0.875511	1.708259
H	0.147398	-1.875469	0.739926
Br	3.642341	0.0	0.0
