12

C	-0.48522	0.070988	-1.447296
C	0.0	0.0	0.0
Cl	-0.096406	-1.429201	-2.341629
H	1.092184	0.0	0.0
H	0.033873	0.889689	-1.94626
H	-0.362836	-0.928815	0.455626
C	-1.927882	0.301609	-1.513524
N	-3.087125	0.487444	-1.534948
N	-0.447522	1.219145	0.668138
H	-1.266867	1.052617	1.236362
H	0.29822	1.561692	1.259727
Br	3.594589	0.0	0.0
