12

C	-0.582171	0.005033	-1.408947
C	0.0	0.0	0.0
Cl	-0.058153	1.444801	-2.33407
H	1.097734	0.0	0.0
H	-1.670344	0.054878	-1.332418
H	-0.348543	0.913364	0.488617
C	-0.247105	-1.210646	-2.14837
N	0.016932	-2.19094	-2.737375
N	-0.570213	-1.169202	0.687956
H	0.072938	-1.943966	0.551265
H	-0.563881	-0.985072	1.684004
Br	3.640675	0.0	0.0
