14
Coordinates from ORCA-job run
  C   -0.16379667772784      0.12373087212920      0.29982429866173
  C   1.02098020524042     -0.18804891914451     -0.62009377246630
  Cl  0.53759061174457      0.25634442817609      2.00877816816542
  H   1.81131450182705      0.55005457780977     -0.47034760610292
  H   0.67005998439544     -0.12347052775867     -1.65452725372723
  N   -1.14275457105572     -0.89425631814833      0.18643235182316
  H   -1.95501970426515     -0.68750075272301      0.75393920458846
  H   -0.77973099571812     -1.80203301198855      0.45376555620407
  C   -0.76049957562139      1.47853131186078     -0.03097643569701
  H   -0.00537960926855      2.26216122516584      0.03537608362796
  H   -1.17543885093396      1.44918818811650     -1.04101647064611
  H   -1.56048100687500      1.71977794299765      0.67172184095630
  C   1.55649421604592     -1.52713511327909     -0.39076903667223
  N   1.94766147221233     -2.61734390321367     -0.20310692871530
