14
Coordinates from ORCA-job run
  C   -0.23347131997700     -0.11275906889225      0.43424712219171
  C   0.73688169901074     -0.93865807815479     -0.41884899071955
  Cl  0.42712194992549     -0.03583585465392      2.10192240032057
  H   0.27988056461928     -1.10894508064634     -1.40039784732060
  H   0.87009093030395     -1.91106816159071      0.05896977870725
  N   -1.46940960773023     -0.87310171109831      0.50638951660386
  H   -2.08493307931329     -0.45704654997913      1.19651799740387
  H   -1.93811770466219     -0.82563569112841     -0.39336583983513
  C   -0.38427340442841      1.31281876291612     -0.07613940551249
  H   -0.76568090835693      1.29109947995633     -1.10238167738582
  H   -1.09693887166378      1.85482617585859      0.54821678639108
  H   0.56532701817225      1.84964453970762     -0.06722286677241
  C   2.03032033764101     -0.29044108495602     -0.61161981993441
  N   3.06220239645910      0.24310232266124     -0.77628715413794
