14
Coordinates from ORCA-job run
  C   -0.18349325518979      0.01045637572796      0.49076478355292
  C   1.12412375944300     -0.60411908374568     -0.02024053682278
  Cl  0.08829895613432      0.20095039231763      2.31788555235847
  H   1.96688762117547      0.02501670957133      0.27455681418539
  H   1.27589426500169     -1.58325517499421      0.44373341766505
  N   -1.26521203010850     -0.84924408257691      0.18906359756888
  H   -1.15739585804698     -1.76499187250978      0.60676173869784
  H   -2.15192548336594     -0.45529709749339      0.47582989412692
  C   -0.43146459245810      1.39907013131761     -0.06319225783814
  H   -0.56641412495655      1.33634593754385     -1.14501230025809
  H   0.40438833667183      2.06136168925896      0.16383340735246
  H   -1.33226480105160      1.82520270765247      0.38337262001741
  C   1.11131141541645     -0.75001313815838     -1.47471810680754
  N   1.11526579133470     -0.84948349391147     -2.64363862379880
