19

C	-0.504257	-0.019731	-1.437828
C	0.0	0.0	0.0
F	-0.301924	1.205533	-2.019647
H	1.096048	0.0	0.0
N	0.331549	-1.002132	-2.258197
O	0.844269	-0.609262	-3.296014
O	0.373599	-2.150622	-1.827966
C	-1.949374	-0.415402	-1.638682
H	-2.124547	-1.407572	-1.231674
H	-2.187451	-0.382491	-2.705413
H	-2.5832	0.297635	-1.110004
N	-0.516773	-1.183374	0.718686
H	0.090077	-1.957665	0.460498
H	-0.32528	-1.011583	1.701032
C	-0.468678	1.254891	0.71587
H	-0.182655	2.151259	0.167689
H	-1.551509	1.252338	0.884269
H	0.034842	1.294307	1.686736
H	2.923725	0.0	0.0
