19

C	-0.350775	0.028269	-1.472223
C	0.0	0.0	0.0
F	0.013318	-1.176169	-2.030189
H	1.104173	0.0	0.0
N	-1.863854	0.102956	-1.66969
O	-2.476639	-0.920195	-1.953334
O	-2.375383	1.210729	-1.495575
C	0.331346	1.128882	-2.241607
H	0.165848	0.978917	-3.311671
H	-0.049699	2.10523	-1.95169
H	1.398534	1.058868	-2.007585
N	-0.573645	-1.213767	0.602809
H	-0.180097	-2.004182	0.101843
H	-0.175053	-1.271566	1.53406
C	-0.45779	1.213852	0.786299
H	-0.017334	1.147257	1.78632
H	-0.095067	2.142702	0.343557
H	-1.545073	1.254449	0.879565
H	2.943888	0.0	0.0
