19

C	-0.320217	-0.141727	-1.492373
C	0.0	0.0	0.0
F	-0.140399	-1.453044	-1.871308
H	1.097779	0.0	0.0
N	-1.807866	0.111499	-1.700307
O	-2.582251	-0.808153	-1.427028
O	-2.158713	1.245933	-2.027842
C	0.517701	0.7329	-2.382418
H	0.309567	1.786423	-2.21325
H	1.560552	0.528266	-2.115918
H	0.324714	0.492622	-3.431
N	-0.453049	-1.122864	0.80755
H	-1.366043	-1.437804	0.495941
H	0.199378	-1.884758	0.66256
C	-0.500557	1.310113	0.58275
H	-0.19117	2.174649	-0.008655
H	-1.592554	1.324688	0.676404
H	-0.068805	1.405318	1.580035
H	2.911648	0.0	0.0
