19

C	-0.40677	-0.099328	-1.466606
C	0.0	0.0	0.0
F	-1.740822	-0.479038	-1.58471
H	1.093569	0.0	0.0
N	-0.343339	1.279053	-2.099684
O	0.762215	1.658131	-2.476727
O	-1.380448	1.938345	-2.151648
C	0.459819	-1.044277	-2.255181
H	0.267	-2.057147	-1.898427
H	1.50844	-0.797924	-2.064186
H	0.22562	-0.991772	-3.321171
N	-0.3687	-1.232589	0.705113
H	0.422976	-1.864377	0.667319
H	-1.173676	-1.677256	0.28456
C	-0.560065	1.216658	0.712993
H	-0.263469	1.142395	1.760095
H	-1.652675	1.257475	0.657773
H	-0.148981	2.144933	0.307833
H	2.905479	0.0	0.0
