19

C	-0.494448	-0.082355	-1.433616
C	0.0	0.0	0.0
F	-1.849488	-0.362274	-1.463779
H	1.100081	0.0	0.0
N	-0.372539	1.289792	-2.082145
O	-1.361802	2.021489	-2.066641
O	0.725957	1.58898	-2.542757
C	0.257429	-1.092689	-2.252935
H	-0.078693	-1.074441	-3.293594
H	0.057174	-2.069154	-1.810212
H	1.326597	-0.879552	-2.18034
N	-0.361817	-1.273138	0.63045
H	-1.208553	-1.175697	1.176486
H	0.403676	-1.528681	1.246453
C	-0.498368	1.225069	0.751774
H	-0.145173	1.15446	1.784375
H	-1.591982	1.294564	0.748724
H	-0.088571	2.147502	0.332959
H	2.889758	0.0	0.0
