16

C	-0.354334	-0.015761	-1.490549
C	0.0	0.0	0.0
Br	-0.051779	1.85065	-2.238113
H	1.095785	0.0	0.0
N	0.510785	-0.964115	-2.082423
H	1.47122	-0.813299	-1.748422
H	0.473018	-0.931333	-3.09342
N	-1.769606	-0.24689	-1.721726
H	-2.006058	-0.004649	-2.677061
H	-1.917679	-1.245462	-1.598697
C	-0.446286	-1.285969	0.556014
N	-0.838207	-2.273379	1.063161
N	-0.506714	1.133484	0.739454
H	-1.469538	0.985769	1.013868
H	0.069383	1.255004	1.564162
H	2.760677	0.0	0.0
