16

C	-0.11617	0.057325	-1.509474
C	0.0	0.0	0.0
Br	-2.014302	0.131944	-2.1853
H	1.108771	0.0	0.0
N	0.496883	1.309918	-1.907033
H	0.546845	1.353002	-2.919666
H	1.454249	1.258756	-1.531203
N	0.458563	-1.161573	-2.013305
H	1.408015	-1.195304	-1.625111
H	0.522392	-1.116462	-3.024185
C	-0.526759	-1.232255	0.568695
N	-0.911264	-2.206369	1.102606
N	-0.524425	1.176287	0.692653
H	-0.582111	1.909859	-0.007877
H	0.200734	1.466625	1.345109
H	2.709158	0.0	0.0
