16

C	-0.289621	0.084508	-1.497842
C	0.0	0.0	0.0
Br	0.112167	-1.924548	-2.280057
H	1.094613	0.0	0.0
N	-1.643333	0.347189	-1.813292
H	-2.214793	-0.417215	-1.472436
H	-1.774577	0.419885	-2.81544
N	0.615837	0.968219	-2.068644
H	0.615218	0.939931	-3.079023
H	1.555457	0.781459	-1.688439
C	-0.643991	-1.126018	0.65543
N	-1.201648	-2.006653	1.199153
N	-0.361528	1.250377	0.676113
H	0.485888	1.806081	0.70415
H	-1.043351	1.744239	0.114455
H	2.694095	0.0	0.0
