16

C	-0.405854	0.034328	-1.476606
C	0.0	0.0	0.0
Br	0.212626	1.901187	-2.150644
H	1.095154	0.0	0.0
N	0.322422	-0.890429	-2.28712
H	-0.005244	-1.819921	-2.040732
H	1.308306	-0.813512	-2.029973
N	-1.791585	-0.117315	-1.644993
H	-2.271198	0.510497	-1.010362
H	-2.060078	0.059876	-2.604441
C	-0.430741	-1.286226	0.54261
N	-0.733281	-2.32793	0.996687
N	-0.619532	1.091027	0.770396
H	-0.024751	1.900641	0.614536
H	-0.524311	0.860807	1.754957
H	2.778078	0.0	0.0
