16

C	-0.415169	-0.029265	-1.477414
C	0.0	0.0	0.0
Br	0.00652	1.879744	-2.211616
H	1.100583	0.0	0.0
N	0.348287	-1.010921	-2.101814
H	0.216972	-1.010919	-3.104319
H	1.331319	-0.923591	-1.835957
N	-1.811817	-0.180146	-1.783631
H	-2.312716	0.515825	-1.241266
H	-2.07929	-1.099632	-1.441841
C	-0.473729	-1.2425	0.600061
N	-0.871977	-2.220742	1.117808
N	-0.598976	1.132294	0.724063
H	0.022027	1.919196	0.556115
H	-0.522317	0.926868	1.715278
H	2.766852	0.0	0.0
