15

C	-0.395141	-0.033012	-1.501132
C	0.0	0.0	0.0
Cl	0.132727	1.512036	-2.238325
H	1.097283	0.0	0.0
C	0.32786	-1.184519	-2.190613
H	1.398356	-1.074228	-2.000387
H	-0.019059	-2.137131	-1.782764
H	0.127899	-1.159068	-3.262609
C	-1.847805	-0.130986	-1.665004
N	-3.011377	-0.239926	-1.79471
C	-0.461435	-1.224283	0.65289
N	-0.824786	-2.222784	1.154637
C	-0.5264	1.170041	0.694798
N	-0.957519	2.106696	1.257523
Cl	3.166439	0.0	0.0
