15

C	-0.49975	0.017387	-1.469345
C	0.0	0.0	0.0
Cl	0.201384	-1.401405	-2.304631
H	1.096563	0.0	0.0
C	-2.020245	-0.050913	-1.573426
H	-2.463937	0.810845	-1.068696
H	-2.320363	-0.04451	-2.62227
H	-2.376061	-0.970669	-1.106271
C	-0.021288	1.231852	-2.1346
N	0.258389	2.221506	-2.703276
C	-0.48372	-1.197711	0.683821
N	-0.892404	-2.156856	1.225532
C	-0.482696	1.193458	0.692839
N	-0.883542	2.163239	1.22194
Cl	3.134449	0.0	0.0
