15

C	-0.373776	0.038651	-1.5003
C	0.0	0.0	0.0
Cl	-2.160838	0.222743	-1.697079
H	1.098555	0.0	0.0
C	0.341869	1.196768	-2.180415
H	-0.000651	2.139319	-1.750956
H	0.128128	1.192499	-3.250526
H	1.415539	1.085546	-2.003208
C	-0.009109	-1.234797	-2.121574
N	0.268783	-2.260234	-2.622717
C	-0.520167	-1.183632	0.674571
N	-0.941113	-2.13892	1.213579
C	-0.451937	1.216013	0.671727
N	-0.800373	2.204058	1.202999
Cl	3.146287	0.0	0.0
