15

C	-0.376733	0.045226	-1.498952
C	0.0	0.0	0.0
Cl	-2.164453	0.230914	-1.690447
H	1.098543	0.0	0.0
C	0.337645	1.206895	-2.175441
H	0.120994	1.208313	-3.244542
H	-0.003388	2.147309	-1.73925
H	1.411658	1.093633	-2.002231
C	-0.013794	-1.225356	-2.127602
N	0.265266	-2.25014	-2.630109
C	-0.518602	-1.18701	0.670975
N	-0.94041	-2.143333	1.206923
C	-0.451608	1.213376	0.677654
N	-0.801682	2.197966	1.214109
Cl	3.147306	0.0	0.0
