15

C	-0.397585	-0.028005	-1.500296
C	0.0	0.0	0.0
Cl	0.141101	1.513898	-2.236199
H	1.09724	0.0	0.0
C	0.314809	-1.184878	-2.191779
H	1.386345	-1.084148	-2.002005
H	0.114568	-1.156297	-3.263713
H	-0.040527	-2.134877	-1.78525
C	-1.851193	-0.11406	-1.661868
N	-3.015499	-0.214421	-1.792137
C	-0.463037	-1.224645	0.651137
N	-0.825451	-2.223077	1.153721
C	-0.523559	1.169827	0.69777
N	-0.951041	2.107839	1.261119
Cl	3.16429	0.0	0.0
