15

C	-0.406208	-0.02051	-1.497269
C	0.0	0.0	0.0
Cl	0.173556	1.503118	-2.239269
H	1.097283	0.0	0.0
C	0.264958	-1.200409	-2.190767
H	1.340034	-1.134819	-2.00573
H	0.062014	-1.165456	-3.262008
H	-0.121196	-2.137769	-1.782939
C	-1.862984	-0.061853	-1.649336
N	-3.029922	-0.125335	-1.77798
C	-0.46942	-1.220459	0.653946
N	-0.835805	-2.214467	1.162378
C	-0.512863	1.174189	0.699779
N	-0.93228	2.114945	1.264678
Cl	3.161789	0.0	0.0
