15
Coordinates from ORCA-job run
  C   -0.45427426695925     -0.43198634558056      0.22447384454225
  C   0.74887282481446      0.48169678115394     -0.07789783740894
  Cl  -0.69880840626178     -0.54007316017445      1.98504284297026
  H   0.85965058212578      0.44750965679184     -1.17945348481663
  N   -1.63381721939952      0.22794958461172     -0.32792692270446
  H   -2.47438560822044     -0.12025647260873      0.11702006812953
  H   -1.69153949969452      0.02105376283678     -1.31990856050878
  N   -0.13423605124715     -1.75785382329367     -0.24187073412115
  H   -0.01313976189035     -1.75847127025433     -1.24885748910602
  H   -0.86572115198015     -2.41314378307381      0.00606387227482
  C   1.98565197939104     -0.07331170338479      0.48297338741563
  N   3.01588937570593     -0.46012559903949      0.88983860897361
  N   0.51728128614017      1.81158848731752      0.44755425408433
  H   -0.39294728794497      2.11829575746674      0.12479097431840
  H   1.23152320542074      2.44812812723129      0.11815717595714
