15
Coordinates from ORCA-job run
  C   -0.50798083705357     -0.47903241083136     -0.03322836099448
  C   0.66164442164971      0.48607361901004     -0.27175053788170
  Cl  -0.79205945170186     -0.40316927889586      1.88226375853124
  H   0.80463638404503      0.46316671762234     -1.35681472551314
  N   -1.63445364747701     -0.00345940262601     -0.71804322567807
  H   -2.47948092068566     -0.48998214922187     -0.44785052752955
  H   -1.73339043325466      0.99056413983958     -0.54802949417311
  N   -0.15983533589030     -1.79091772546342     -0.40970880615395
  H   0.49262172893387     -2.20800301316502      0.24167019202538
  H   -0.97331515302765     -2.38530168957924     -0.50016677913380
  C   1.88988123053647     -0.03317664317198      0.35408890823283
  N   2.88066842103011     -0.41403410209998      0.85689305265889
  N   0.29387172800306      1.83566734951320      0.11371356843364
  H   0.94066276482620      2.50321100026403     -0.28656948824528
  H   0.31552910006626      1.92739358880557      1.12253246542108
