15
Coordinates from ORCA-job run
  C   -0.48713592378662     -0.59988826162362     -0.23896118340469
  C   0.55965949770895      0.52133690185540     -0.45369756627020
  Cl  -0.19544305640814     -1.81661001779115     -1.58168162907445
  H   0.45848161059368      0.87677016817874     -1.48238418860205
  N   -0.32092276338716     -1.13007997140265      1.06384107185599
  H   0.55343771633447     -1.62980375880824      1.17085443133572
  H   -1.10141059670264     -1.73619288731904      1.28218778638109
  N   -1.84594147952379     -0.15415227625969     -0.36896222418818
  H   -2.06246572447194      0.02550935764358     -1.34120797624092
  H   -1.92432434580005      0.71668510349061      0.14829968898648
  C   1.92511976110084     -0.00645146314025     -0.27407784458175
  N   3.01115941826580     -0.39827684517879     -0.05499229183131
  N   0.22978134419854      1.60828660792275      0.45550572558301
  H   0.39316441246004      1.30450401321511      1.40841517627103
  H   0.80684012941803      2.41836332921725      0.26586102378021
