15
Coordinates from ORCA-job run
  C   -0.46854098983221     -0.44619656488656     -0.26479097876205
  C   0.71519299939809      0.54212471537912     -0.26028028172155
  Cl  -0.15665139423877     -1.53325096763122     -1.77565160747650
  H   0.69268646980865      1.04838410956276     -1.23641156782892
  N   -0.52973749282686     -1.19619340393906      0.92610609845950
  H   0.38552139755876     -1.40391088757388      1.30202388025142
  H   -1.05101983749997     -2.05404959535408      0.80115007783473
  N   -1.68080874873518      0.28585961051916     -0.44792778938231
  H   -1.87822834745310      0.45404927766641     -1.42515577193505
  H   -2.45904784437892     -0.19128949104633     -0.01341324332946
  C   1.99400619694372     -0.17418173162118     -0.15964524830621
  N   3.02636789526436     -0.71946906091632     -0.03902684051540
  N   0.57498730644666      1.41899780999917      0.89221593227626
  H   -0.37691672392022      1.76867529828771      0.89083302406319
  H   1.21418911346499      2.20045088155430      0.80997431637236
