15
Coordinates from ORCA-job run
  C   -0.48000666907632     -0.54191697320311     -0.12928768392739
  C   0.79672870444403      0.31479871903613     -0.21855584842806
  Cl  -0.85804551613239     -0.92591803505819     -1.99109411211511
  H   1.49194709456749     -0.19914340115407     -0.88825804878851
  N   -0.24413025823393     -1.74374050406023      0.56207281270568
  H   -1.08126177979853     -2.30684269051377      0.64252327747930
  H   0.47103114331207     -2.29455135975329      0.10553168125930
  N   -1.51625873598297      0.21144387544089      0.43415340997436
  H   -1.70397151171459      1.01753734743208     -0.14836905828042
  H   -2.36232558186583     -0.32492203235841      0.57366785981624
  C   1.42713397616750      0.39248175124018      1.11103139488683
  N   1.96733699271953      0.52545447553651      2.14511395014999
  N   0.47487029695017      1.63296452587646     -0.74818019278011
  H   1.14898815351750      1.91970558453938     -1.44314841932340
  H   0.46896369112627      2.32264871699946     -0.00820102262870
