15
Coordinates from ORCA-job run
  C   -0.43683430984260     -0.41298327760509     -0.22786037381462
  C   0.89964952653687      0.37812491075979     -0.25713225230212
  Cl  -1.11321154590971     -0.31941059523796     -1.93812646025638
  H   1.59045679837455     -0.14439826821466     -0.92889109066904
  N   -0.19825464899378     -1.74687618965083      0.18665501075282
  H   0.46551175595662     -2.22548620618147     -0.41039583003010
  H   -1.05620223270456     -2.28283722928008      0.23009974464105
  N   -1.37342179503961      0.28865367027527      0.61156238587713
  H   -1.20691970101069      0.02009151035346      1.57600337625019
  H   -2.32965058708018      0.07348650148275      0.36174800459886
  C   1.45750214912889      0.32700042368133      1.10428548586822
  N   1.86944644694698      0.31126220253414      2.20312227388124
  N   0.80563680430459      1.75849793552571     -0.67250853155154
  H   0.02763553307283      2.18060676186037     -0.17593196402409
  H   0.59965580625979      1.79626784969728     -1.66262977922165
