15
Coordinates from ORCA-job run
  C   -0.48838752025255     -0.55697743763386      0.19916838399355
  C   0.59519034067269      0.48127669529241     -0.17283390056591
  Cl  -0.58296255977564     -0.58292888945874      2.00248396461656
  H   0.64001945397160      0.47903957490847     -1.26991635271543
  N   -1.79965501427871     -0.20446627690119     -0.27776251394034
  H   -1.98443482450760      0.77017548000506     -0.06198305101366
  H   -1.82311789749290     -0.32059224233160     -1.28541371464296
  N   -0.04936583041710     -1.84924744829393     -0.23162791708125
  H   0.10727975947641     -1.85461793589465     -1.23391486535146
  H   -0.75845054755773     -2.53685927373846     -0.00412402406560
  C   1.92270442355602      0.08471442039066      0.32737421518025
  N   3.00668260126626     -0.13374088374838      0.72364240237869
  N   0.17370487242459      1.81065678891261      0.23948537749285
  H   0.75855572165204      2.51085835250148     -0.19982092553739
  H   0.28223702126261      1.90270907599012      1.24324292125209
