15
Coordinates from ORCA-job run
  C   -0.42102632720873     -0.39165819707165      0.20932270235521
  C   0.75872563854104      0.50418249461063     -0.24563872277552
  Cl  -0.53730042152662     -0.33574374878974      1.99357161897575
  H   0.76482628309805      0.43833262681771     -1.34478280700535
  N   -1.63669459743717      0.23042818412247     -0.30020060541740
  H   -2.44845723460816     -0.11468943144735      0.19844062069885
  H   -1.74155692824561     -0.01182247797743     -1.28059891851094
  N   -0.13514657890292     -1.75231950422607     -0.15699322630659
  H   -0.88064992140176     -2.37524401432825      0.12993186917881
  H   -0.00049086640363     -1.82911046714289     -1.15925857466865
  C   2.03512008892220     -0.04139729404329      0.22632277682604
  N   3.07402062915514     -0.43023394186921      0.60819181931825
  N   0.65695111017705      1.90415156620337      0.10851462559284
  H   -0.29311419728081      2.19781172682735     -0.09344933566780
  H   0.80479332312191      2.00731247831436      1.10562615740649
