15
Coordinates from ORCA-job run
  C   -0.56510222529508     -0.49498145522869      0.06955963977814
  C   0.61218614426399      0.46730727628928     -0.20925128487158
  Cl  -0.89223193151223     -0.33634558597846      1.89528106200508
  H   0.79592253374155      0.37396935589039     -1.28544531109758
  N   -1.64204895450895     -0.10024911419850     -0.74197495842618
  H   -1.81723451870322      0.89214683482324     -0.64837139807618
  H   -2.46648539462481     -0.64771703529701     -0.53265448514337
  N   -0.30859692520750     -1.88341777327066     -0.14634853302127
  H   0.45091206479807     -2.22683047739681      0.42690472821279
  H   -0.12401083101533     -2.04467784861011     -1.12901381682956
  C   1.82409058322282      0.00580815738521      0.49151839178982
  N   2.80350576597331     -0.33249848015840      1.04492126718135
  N   0.22874890469732      1.84241554762459      0.05762623080570
  H   0.20012369762209      2.00317599428043      1.05765194961673
  H   0.89922108654796      2.48189460384550     -0.35040348192387
