15
Coordinates from ORCA-job run
  C   -0.47575764178268     -0.52203621097555     -0.35311749136348
  C   0.66311907911550      0.52854872398383     -0.27625590565738
  Cl  -0.11504453960529     -1.55772256989693     -1.81482595041718
  H   0.67268331976464      1.09182248993810     -1.22255205121879
  N   -0.56382193913381     -1.39340468504890      0.78179612810223
  H   -0.50275051803894     -0.81073681939444      1.61196940396067
  H   0.21060634809513     -2.04569518377435      0.78539219112766
  N   -1.70527444771204      0.18655405330902     -0.46265932066993
  H   -1.79781571668284      0.63446483123214     -1.36633959636138
  H   -2.46899068312386     -0.46450705077543     -0.32552892545239
  C   1.96009345194114     -0.13929481048548     -0.13810081718272
  N   3.00345618385062     -0.65688669655322      0.00568844931938
  N   0.41900733858028      1.33037392724388      0.91632798103735
  H   1.16328877625271      2.00219299525775      1.05560584883785
  H   -0.46179901152054      1.81632700593959      0.80060005593810
