15
Coordinates from ORCA-job run
  C   -0.42920296220175     -0.48079838429088     -0.32576050509445
  C   0.85933361903022      0.36446147074253     -0.24290230263698
  Cl  -0.89050203272024     -0.57852980332557     -2.08655022675505
  H   1.64602717774356     -0.14781099439022     -0.80808591063895
  N   -0.18367006738095     -1.76254199038404      0.24503555044017
  H   0.56912041777311     -2.24851000253785     -0.22878728618899
  H   -1.01764856813864     -2.33620789711430      0.20330075392913
  N   -1.48988357660338      0.22915661698050      0.34965800386344
  H   -1.47590032120816     -0.02346449698731      1.33209369439623
  H   -2.39345728266612      0.00983122535696     -0.04680708518503
  C   1.26510193860740      0.41236603488859      1.17926049672755
  N   1.59402558298429      0.54265085739097      2.29973498470988
  N   0.63976360228507      1.67075663725503     -0.82250092853334
  H   -0.14896255088411      2.09677138838165     -0.34865469952528
  H   1.45785502337967      2.25286933803394     -0.69603453950832
