15
Coordinates from ORCA-job run
  C   -0.44786591227283     -0.49222872679701     -0.40299706111618
  C   0.63258204387742      0.60295946303310     -0.38657377977750
  Cl  -0.07015627769455     -1.59221786031895     -1.81811834973092
  H   0.61784571416373      1.07866645254043     -1.36940747882835
  N   -0.40205995573759     -1.19585594093570      0.84474048495020
  H   -1.20821047109329     -1.80115411121549      0.94068494440282
  H   0.43592466658621     -1.76263513240394      0.92324648527659
  N   -1.69752446122644      0.13602990692168     -0.68789282017308
  H   -2.45205086006515     -0.53799275118267     -0.71712010556265
  H   -1.86518837284560      0.84425173914285      0.01706224241425
  C   1.96250850864066      0.00439244004988     -0.16225143676146
  N   3.01855800282904     -0.44067765850279      0.09630787240734
  N   0.25750260058142      1.57990342072350      0.62505594902663
  H   0.37871104523075      1.17087467033481      1.54399634026958
  H   0.83842372902622      2.40568408861032      0.55226671320273
