15
Coordinates from ORCA-job run
  C   -0.37590476680419     -0.65228916734320     -0.37190733736405
  C   0.56824213051444      0.57103972944311     -0.33603381069774
  Cl  0.12448002330976     -1.68739290783836     -1.73640629845413
  H   0.38982396814874      1.14503222597446     -1.25029865775946
  N   -0.18566281394443     -1.38098147079736      0.85900480867863
  H   -0.63992739131850     -2.28330161433656      0.76669988184899
  H   -0.68264786802633     -0.87977810853785      1.58972966497842
  N   -1.75762229768170     -0.28187703171011     -0.59229705598695
  H   -1.96604217813244      0.48521620113328      0.04149227771224
  H   -1.89333030172018      0.04438078638673     -1.54286437233382
  C   1.98599523922225      0.18095797208191     -0.30523650446685
  N   3.13526757310910     -0.05285523739187     -0.24527301530953
  N   0.17805512948136      1.38619057242822      0.81463926851232
  H   0.66839738392178      1.05644357121640      1.63849148101101
  H   0.45087616992036      2.35021447929117      0.66925966963091
