15
Coordinates from ORCA-job run
  C   -0.44771255216635     -0.37420765495898      0.08418524702652
  C   0.73649510749059      0.56924753397768     -0.25825575396018
  Cl  -0.55283876765163     -0.46572155077634      1.91634609104499
  H   0.70905625096664      0.64441788987798     -1.35261794908518
  N   -1.66117437844961      0.27383873487145     -0.35878556621461
  H   -2.44995845890328      0.01265063563859      0.21767954076681
  H   -1.83928012350558     -0.00799083362098     -1.31690894303926
  N   -0.25191496747456     -1.64002583862083     -0.52604632371447
  H   -1.02420290215693     -2.26396210001281     -0.32582423976205
  H   0.61311845904204     -2.07973002425456     -0.23303662678460
  C   2.00621191594833     -0.07155964607437      0.09989329351732
  N   2.99725992629306     -0.62880276824928      0.39216477126591
  N   0.66607985781212      1.90377520874125      0.28810396836811
  H   0.75766506426844      1.86414006949402      1.29620043238012
  H   -0.25780443151328      2.26493034396718      0.07590205819058
