15
Coordinates from ORCA-job run
  C   -0.43954266777221     -0.54497704656906     -0.11879425152802
  C   0.77935733290709      0.39069288597436     -0.15867035133287
  Cl  -0.97979024786246     -0.54893958666222     -2.02594206381950
  H   1.50100424289619     -0.04305567844520     -0.86446182867097
  N   -0.07830326821028     -1.85099473141181      0.24092158277537
  H   -0.87264628885908     -2.41416256265493      0.51302248112952
  H   0.44121864404464     -2.31735485563335     -0.48961051054436
  N   -1.43910372084392     -0.00663278166664      0.67677470057629
  H   -2.32602928871935     -0.48404040961752      0.59587534542124
  H   -1.53075374289179      0.98701417725937      0.50209230982347
  C   1.40394966136735      0.40845128153886      1.16992270409545
  N   1.94859190407848      0.47421780128078      2.20728936656714
  N   0.34837035650871      1.74154284581176     -0.50088642832283
  H   0.18175663836124      1.79409453039967     -1.49850709189495
  H   1.06192044499537      2.41414413039595     -0.25102596427498
