15
Coordinates from ORCA-job run
  C   -0.55082620068652     -0.51481835265516     -0.01529856603584
  C   0.61063725646153      0.50033349941556     -0.11979899333138
  Cl  -1.03378221344088     -0.50650057309369      1.78282628856556
  H   0.88752668189491      0.49497791098096     -1.17995615107747
  N   -1.56963931700877     -0.09028177861480     -0.88444756427856
  H   -2.38915468810629     -0.67544585196100     -0.78906511381568
  H   -1.78638495192657      0.88668996187135     -0.73355557297257
  N   -0.22801129372554     -1.87445117863836     -0.31056088933555
  H   0.04249123756236     -1.95445546672301     -1.28321227283354
  H   0.49365248513822     -2.23809313232686      0.29800947365607
  C   1.77497760612777      0.02180540155763      0.64672818103329
  N   2.71980044055561     -0.33839649866840      1.24464725565484
  N   0.15659150212158      1.83912669079325      0.21319077855026
  H   0.83588803004825      2.52739642165436     -0.08650256323008
  H   0.03723342498434      1.92211294640817      1.21599570945066
