15
Coordinates from ORCA-job run
  C   -0.34227491730738     -0.56004003887492     -0.44913003042205
  C   0.71562719157629      0.54471167700810     -0.28875269858577
  Cl  0.03810705498407     -1.46949344625124     -1.94511278364087
  H   0.75038698029223      1.08519578437840     -1.24167014506824
  N   -0.24199802093411     -1.45093055800547      0.66728641569993
  H   -0.98980351204747     -2.13343800729883      0.65881888282133
  H   -0.28295438742858     -0.89825277809644      1.51753144395590
  N   -1.61242731130503      0.12354940208404     -0.67874554269153
  H   -2.03140952577502      0.31124904646853      0.22550218181022
  H   -2.24272401341645     -0.47117047749252     -1.20285908987328
  C   2.04502267621689     -0.01184577132671     -0.02936331827208
  N   3.13988823912286     -0.38575429687075      0.16708426998952
  N   0.29325683213797      1.38142556877905      0.84026255977810
  H   1.08970489186513      1.83493911372473      1.26951723171721
  H   -0.32840217798141      2.09985478177403      0.48963062278160
