15
Coordinates from ORCA-job run
  C   -0.51801716988860     -0.49302297076701     -0.31497766034186
  C   0.76241512256411      0.35396794885478     -0.11080566433429
  Cl  -0.80760166505786     -0.36549344471995     -2.17049351848540
  H   1.53048552854447     -0.06075344964655     -0.77894606024674
  N   -0.40129495210881     -1.89202488035031     -0.06035452187084
  H   0.32160197145640     -2.32549705094698     -0.61843755309011
  H   -0.24067407522177     -2.04499954193554      0.92818895445688
  N   -1.54503165144407      0.03302807744814      0.46677867123494
  H   -1.60745242868644      1.03875402714664      0.38046514902983
  H   -2.42560092146557     -0.43321526058085      0.29892270907173
  C   1.22428852664287      0.16155103696449      1.26848617815348
  N   1.62065976229468     -0.01047040995413      2.35989159637734
  N   0.47234047494301      1.76592459949371     -0.33732682970098
  H   0.39602156999560      1.92661086492750     -1.33466441457914
  H   1.21885990743199      2.34564045406606      0.02527296432515
