15
Coordinates from ORCA-job run
  C   -0.42198097379888     -0.55632078501924     -0.13185113188993
  C   0.78855023459427      0.39094127565050     -0.10293013059851
  Cl  -0.77145871348216     -0.67209153446392     -2.07681770721635
  H   1.57953639065973     -0.07217799994361     -0.70864377537934
  N   -0.08836762916359     -1.83576615880206      0.33547794156025
  H   -0.90108309467809     -2.39194400947006      0.56381357309602
  H   0.50142728976604     -2.33692080949679     -0.31413383509015
  N   -1.49893219494740      0.01247445767668      0.53156605780437
  H   -1.57822129107848      0.99412542800003      0.29476427433891
  H   -2.37072611810628     -0.47784486793259      0.38787621621204
  C   1.27759526457917      0.48957449642196      1.27773703463546
  N   1.71596742963524      0.61956243580749      2.35848892494040
  N   0.38468014965945      1.71564117608234     -0.56144914811452
  H   0.31798286674391      1.71055417160444     -1.57211832155067
  H   1.06603038961708      2.40919272388484     -0.28077997274797
