15
Coordinates from ORCA-job run
  C   -0.38291625922288     -0.56095731353498     -0.31693837770552
  C   0.69522868507339      0.53767391586032     -0.29559564273189
  Cl  -0.04264342039080     -1.62649099181392     -1.76241247038079
  H   0.62650351602979      1.08308037032236     -1.24965035237304
  N   -0.24482775969553     -1.35931339017005      0.85130978067138
  H   -0.94484895367336     -2.08761018746228      0.90361780810116
  H   -0.27433268050924     -0.75397142595061      1.66357693638094
  N   -1.65641401810482      0.09829075316287     -0.45102254913959
  H   -1.78382092600974      0.45293415476690     -1.39295527170847
  H   -2.40773002612821     -0.55322622895621     -0.25756902459641
  C   2.04021201640746     -0.03853719078168     -0.21542150871379
  N   3.14899324194040     -0.41644762097336     -0.15148708382311
  N   0.45146181322462      1.35443578051084      0.88978051136701
  H   1.20055964220024      2.02265960427121      1.02054385611530
  H   -0.42442487114131      1.84647977074859      0.76322338853682
