15
Coordinates from ORCA-job run
  C   -0.39659198672877     -0.42114494822098     -0.35616560748357
  C   0.88861609409429      0.44752503016407     -0.28591436941386
  Cl  -1.01889924519424     -0.32042174817947     -2.03287690345119
  H   1.60496236585238      0.00643291049771     -0.98404660532210
  N   -0.03154322677935     -1.79985111186544     -0.13212487121244
  H   0.28952019354224     -1.92032514135900      0.82319057061905
  H   -0.82732036348931     -2.40830220252706     -0.28587802450661
  N   -1.39860596816929      0.19664012821828      0.49328807693084
  H   -2.31789726940159     -0.18068608347817      0.29610521246731
  H   -1.17516468165019      0.00694766095706      1.46566921950440
  C   1.42041702367298      0.28587946540599      1.07844611698243
  N   1.75956534632085      0.11021893409631      2.18896378059704
  N   0.72439076296737      1.85320016214090     -0.57698218117604
  H   -0.12121676601530      2.17464404338834     -0.11725726901412
  H   0.59876772097791      1.96924290076147     -1.57441714552116
