15
Coordinates from ORCA-job run
  C   -0.46784853205863     -0.58432481581485     -0.30594133490061
  C   0.55804175341009      0.57303992938437     -0.38866951608481
  Cl  -0.11840149507772     -1.66280420139301     -1.74953169569442
  H   0.47263135199153      1.02133468179145     -1.38184935245524
  N   -0.31954542805321     -1.23194261764212      0.94486961267255
  H   -1.09094972179439     -1.87175547868130      1.08572272139072
  H   0.56317880559704     -1.72157002550973      1.02626655894468
  N   -1.83300519072275     -0.15592774359138     -0.42742004214757
  H   -1.94318571007679      0.65997926993518      0.16766813653322
  H   -2.03047370179385      0.11114772158974     -1.38349934310654
  C   1.93067102828980      0.05843807912533     -0.22566319622508
  N   3.02015861909425     -0.32980430238738     -0.01740683357173
  N   0.18336632202111      1.56253239212827      0.61007329145629
  H   0.33113102778301      1.17279210657707      1.53380147664813
  H   0.74723087139050      2.39786500448834      0.51257951654040
