15
Coordinates from ORCA-job run
  C   -0.41276672685063     -0.53467408340145     -0.30988355606855
  C   0.68901946646120      0.56390556371199     -0.37244664734576
  Cl  -0.11149836660912     -1.60209616978542     -1.77865162566889
  H   0.66209675200211      0.99792092443192     -1.37635553498710
  N   -0.32814492883162     -1.21151928546580      0.92924719167945
  H   -1.09005578316413     -1.87345199953541      1.01002000434970
  H   0.55730403919654     -1.68883015288364      1.04594751944828
  N   -1.75762720616709     -0.05536790098976     -0.44554155063931
  H   -1.97693804754969      0.57008894891246      0.31951517579767
  H   -1.90829436296196      0.39815652336177     -1.33682389993010
  C   2.00817817090247     -0.05586455291934     -0.18076727903259
  N   3.03551957348364     -0.58331603154574      0.03027539109273
  N   0.52557119684949      1.62679288400141      0.60039534052301
  H   -0.25328147057720      2.22024424771885      0.34828156645734
  H   0.35991769381600      1.22701108438816      1.51678790432411
