15
Coordinates from ORCA-job run
  C   -0.53426464511239     -0.53255726816166     -0.02376361436631
  C   0.58916761796010      0.52556749317918     -0.11501960090523
  Cl  -0.95182199712347     -0.63589471099409      1.78595641174619
  H   0.82532742671284      0.58551660030819     -1.18330631555782
  N   -1.59732197249198     -0.09824632858357     -0.83409871013855
  H   -2.39306908811988     -0.71590947213227     -0.73970360276187
  H   -1.84064528529153      0.86133195304984     -0.62271686164725
  N   -0.17853835709873     -1.86310831541808     -0.40369114942083
  H   0.57341852306049     -2.23474120866092      0.16186398238298
  H   0.06418001567513     -1.88018233710803     -1.38682177244058
  C   1.79653534654528      0.04872601463560      0.58291214258269
  N   2.77030934824081     -0.30077132971403      1.13938065196956
  N   0.10540390370372      1.82883732259736      0.30592952963820
  H   0.74932003031795      2.55482008507342      0.01747198530923
  H   0.02399913302170      1.85561150192907      1.31560692360960
