15
Coordinates from ORCA-job run
  C   -0.49102724027369     -0.54773885352574      0.21665420223551
  C   0.59784251457994      0.47281997589561     -0.18734099045460
  Cl  -0.59284814409562     -0.50899560686583      2.01953486437503
  H   0.64819187223801      0.43093354848401     -1.28342596648050
  N   -1.79888623180857     -0.20809963688555     -0.27785890507319
  H   -1.98118117537362      0.77431344333534     -0.09822521000126
  H   -1.81954141694897     -0.36072440504589     -1.28065076908807
  N   -0.05452950162652     -1.85609635491413     -0.16559615150207
  H   0.10258506730337     -1.89855703036111     -1.16694438771950
  H   -0.76546035330430     -2.53324019452760      0.08621995424803
  C   1.92172473873549      0.09011615599195      0.33308740842672
  N   3.00306443122285     -0.11733700558480      0.74223583462385
  N   0.17912518515424      1.81756302806392      0.17482773310710
  H   0.28361263495184      1.94540627342760      1.17515106672004
  H   0.76832761924554      2.49963666251221     -0.28666868341710
