15
Coordinates from ORCA-job run
  C   -0.45583861137739     -0.55843058257918     -0.50806072688150
  C   0.60190476406197      0.56463528744931     -0.35670394670247
  Cl  0.05617953283577     -1.53713982211101     -1.93241754490276
  H   0.59945440696239      1.12831579234716     -1.29283330329438
  N   -0.54569309684562     -1.47284672899234      0.60279738960805
  H   0.32494186273379     -1.96043775387597      0.77937934162167
  H   -0.85278080665156     -0.97810380202981      1.43179034228478
  N   -1.69693570705561      0.08375506713727     -0.79199900630610
  H   -2.44591500668716     -0.59462057808596     -0.72616032904958
  H   -1.83274052342661      0.82774670396015     -0.11660417011433
  C   1.93790004496012     -0.01069598232060     -0.14221906027275
  N   2.99394219251258     -0.44879457212490      0.12810476005824
  N   0.19410311507330      1.44894780110651      0.73458073307751
  H   0.57570591467922      1.12420410759905      1.61488271671899
  H   0.54677191822482      2.38446506252032      0.57746280415463
