15
Coordinates from ORCA-job run
  C   -0.47843904660827     -0.44971403191801     -0.24168328585932
  C   0.71375108117202      0.52664381100895     -0.29027132435841
  Cl  -0.20525687223772     -1.58685196434087     -1.72378063803107
  H   0.67573718353340      1.00461273657834     -1.28020947298762
  N   -0.52352334449516     -1.16193041024104      0.97264016241989
  H   0.39632818947188     -1.36147790454563      1.34124763192560
  H   -1.05224002922582     -2.01974670202863      0.88496286190338
  N   -1.68707901719097      0.28808783065457     -0.42538949349377
  H   -2.46249057738395     -0.17050091196223      0.03366396280967
  H   -1.89841542077401      0.43127557715070     -1.40366456388202
  C   1.98862730364666     -0.19754818314824     -0.19556091957305
  N   3.01974282942177     -0.74650115928414     -0.08093321802157
  N   0.60554291230191      1.43754673690756      0.83885001628368
  H   -0.34287264378140      1.79631483979823      0.84796808537182
  H   1.25058745214967      2.20978973537047      0.72216019549279
