15
Coordinates from ORCA-job run
  C   -0.40726314245145     -0.54827054403531     -0.25073082216167
  C   0.77248440136730      0.44216860983568     -0.21585531464790
  Cl  -0.91197892160776     -0.59698723521236     -2.04174013460423
  H   1.50801963326390      0.06280063559865     -0.93565306614273
  N   0.07260945096703     -1.87340856841623      0.04520931218971
  H   -0.48507122746518     -2.57860023349285     -0.41794045067655
  H   0.02011162445875     -2.01012737051088      1.04897088423220
  N   -1.42353791673172     -0.08679552280704      0.60252497883160
  H   -1.59654731419916      0.90177292098590      0.45991702164887
  H   -2.27284733125981     -0.63048032863121      0.52778654287599
  C   1.38326790497311      0.38151028437662      1.11638470492376
  N   1.89483430867100      0.34294810817248      2.17190055692534
  N   0.29833848812830      1.79849028124499     -0.47655170256505
  H   0.17268770292975      1.91630026365365     -1.47469859946031
  H   0.97589233895595      2.47967869923791     -0.15852391136901
