15
Coordinates from ORCA-job run
  C   -0.47383626645113     -0.57409756196138     -0.31462863077467
  C   0.56719222218673      0.57071375245787     -0.37968769382836
  Cl  -0.13280922556610     -1.64045557907851     -1.76930525512056
  H   0.49179566778199      1.03223958432643     -1.36764838665274
  N   -0.33840175135421     -1.23808005451568      0.92914899501575
  H   0.53683547189734     -1.74195513054277      1.00675375874063
  H   -1.11983629042907     -1.86799197386184      1.06008006000869
  N   -1.83280745446463     -0.12646437654325     -0.43590466903924
  H   -1.93409082741472      0.68623469109137      0.16508996789744
  H   -2.02507107585932      0.14971934423728     -1.39034058546021
  C   1.93226341277757      0.03629046007779     -0.21714084677690
  N   3.01555342810197     -0.36889652783917     -0.00904155636817
  N   0.20097400726850      1.55290553450075      0.62946755976726
  H   0.77693673728594      2.38136706495964      0.54524176060524
  H   0.33830194423914      1.14947077269146      1.54891552198585
