15
Coordinates from ORCA-job run
  C   -0.45268913991193     -0.48254780839075     -0.35286767586482
  C   0.69121574106839      0.57537066554791     -0.37387980734491
  Cl  -0.13297928696135     -1.57907579028979     -1.78586877804131
  H   0.67004710043179      1.06662427335347     -1.35424182819306
  N   -0.51374131207484     -1.32481330118269      0.80378063355932
  H   -0.66165873000952     -0.75640433115199      1.62898090890772
  H   0.32585316123748     -1.88126286003712      0.90400873278007
  N   -1.69139919526655      0.20906854133332     -0.44368097519177
  H   -2.44924044731791     -0.45533019771706     -0.33934787559880
  H   -1.78501627431286      0.68512613872752     -1.33276804661733
  C   1.98331571777181     -0.10028749423988     -0.23228597644428
  N   2.99924589427144     -0.65787342238932     -0.04699419832102
  N   0.57380910356057      1.58967993389160      0.66030783601602
  H   0.83304920781322      1.21317211959683      1.56376604432137
  H   -0.39081154029974      1.89855353294795      0.70109100603282
