15
Coordinates from ORCA-job run
  C   -0.50272289786604     -0.54156362773352     -0.25605527300025
  C   0.73937555594527      0.37905613019133     -0.16713481383663
  Cl  -0.85814704911018     -0.58144957336073     -2.10333009905329
  H   1.50596621242992     -0.05205258117528     -0.82669275864931
  N   -0.30767829231568     -1.90754686375958      0.10744721216807
  H   -0.10780937694271     -1.96913182977373      1.09879373505294
  H   0.41930292104593     -2.35035371188881     -0.43812180211251
  N   -1.52946969135001     -0.00168328452707      0.51703187644623
  H   -2.38955849772771     -0.52310490474242      0.42122721519718
  H   -1.64634562042010      0.98868203751784      0.34949744559777
  C   1.25394357445380      0.32296581698950      1.20579027536104
  N   1.69344738761032      0.25949732747999      2.29240435678890
  N   0.37205156317603      1.75225225968176     -0.49651999443199
  H   0.26140883753998      1.82829906001798     -1.50072958022612
  H   1.09723537353118      2.39513374508273     -0.20360779530203
