15
Coordinates from ORCA-job run
  C   -0.36980516642151     -0.48811524587647     -0.45023394769245
  C   0.85897424326624      0.42980946641399     -0.28523355444118
  Cl  -0.79569080454276     -0.54808001742886     -2.17984612622890
  H   1.66486616200330     -0.00507255661167     -0.88130049982315
  N   0.01872203901784     -1.82864066528631     -0.06956626544184
  H   -0.71263355512345     -2.48638995098600     -0.31260751542218
  H   0.17629261660045     -1.87430908949675      0.93200044706517
  N   -1.48579719950617      0.13832694934537      0.24276883685856
  H   -2.36622002298246     -0.24466266685560     -0.07947900256123
  H   -1.40288913294535     -0.03919870383940      1.23909347780385
  C   1.24703000813786      0.35739647682417      1.14354403329207
  N   1.49967649171746      0.32525958689817      2.29128618344942
  N   0.56735795135514      1.76640083854632     -0.74820345222064
  H   -0.25153699780167      2.11217093196294     -0.26236057272558
  H   1.35165336722507      2.38310464639010     -0.58086204191192
