15
Coordinates from ORCA-job run
  C   -0.38979574820219     -0.50011832920847     -0.24036957316309
  C   0.86302292255898      0.40667344971822     -0.33580954902712
  Cl  -1.03625398658180     -0.60668727997940     -1.96577982068367
  H   1.49539120280462     -0.04452194012785     -1.10527762874453
  N   0.02472197904170     -1.83148827983638      0.10541479984124
  H   -0.67118814006297     -2.51480688488990     -0.16422878363545
  H   0.17659914078031     -1.87881923430363      1.10748111274584
  N   -1.33850151114931      0.05938141450537      0.65496019437992
  H   -1.66968636758182      0.96275715745378      0.34095920604683
  H   -2.13319547140600     -0.55612952917534      0.77519759297249
  C   1.57656730077827      0.30474379476039      0.94453697418850
  N   2.11907272387659      0.20788798454607      1.98047124592295
  N   0.65585194237976      1.80229916377723     -0.65594698855442
  H   0.15135622495983      1.89889528353053     -1.52751646068317
  H   0.17503778780404      2.29193322922937      0.08690767839370
