15
Coordinates from ORCA-job run
  C   -0.48843475206856     -0.52569833448298     -0.32995068064831
  C   0.66461793670264      0.51162420682835     -0.30279360080815
  Cl  -0.16697402005718     -1.60589083272592     -1.76877767001696
  H   0.66434302760974      1.04787202489881     -1.26467853005201
  N   -0.56708029718309     -1.36460436201319      0.82969100854578
  H   0.20033450940857     -2.02521201226429      0.83852191748002
  H   -0.48578358254150     -0.76005276381277      1.64236713883588
  N   -1.71067803471058      0.19527400805805     -0.43735071429038
  H   -1.81366293796777      0.62037242704527     -1.35069428097137
  H   -2.47980037288769     -0.44188457522257     -0.26949962700701
  C   1.95557976753131     -0.16855360734499     -0.16721858005300
  N   2.99491379751070     -0.69475966523900     -0.02592547725854
  N   0.45185551946936      1.34991619578822      0.87090823163541
  H   1.20779032567816      2.01450017745223      0.97867904681375
  H   -0.42402088649411      1.84509711303478      0.75672181779488
