15
Coordinates from ORCA-job run
  C   -0.40733023566830     -0.54681247821010     -0.25451142254575
  C   0.76869360248187      0.44827985988491     -0.21704756020401
  Cl  -0.93043137083578     -0.57072971578390     -2.04120761729782
  H   1.49947889058752      0.08219489789927     -0.94836945111854
  N   0.08121550144710     -1.87418786598234      0.01629751960128
  H   -0.47608064990642     -2.57446662207708     -0.45425127357085
  H   0.03674862824178     -2.02732041396203      1.01796229147547
  N   -1.41606809590081     -0.10208585987729      0.61601132477746
  H   -1.59159298105287      0.88823930432583      0.49227975469876
  H   -2.26516428796556     -0.64575269023523      0.54169560229717
  C   1.39102199760914      0.37178057330957      1.10892781911754
  N   1.90991838980245      0.32117533681668      2.16032965596644
  N   0.28625659606989      1.80603730404392     -0.45367166577548
  H   0.14887312119754      1.93702405637672     -1.44884377310560
  H   0.96446089389244      2.48562431347108     -0.13360120431607
