13

C	0.033873	-0.025589	0.018844
C	-0.47899	0.09322	-1.414957
F	1.426423	0.128335	0.015239
H	-1.577525	0.087071	-1.378631
H	-0.126444	-0.758551	-2.002006
N	-0.540934	0.980212	0.82571
H	-1.556763	1.010318	0.662663
H	-0.366784	0.801123	1.806863
C	-0.168341	-1.422383	0.503255
N	-0.300586	-2.51428	0.915758
C	0.001021	1.324141	-2.036101
N	0.391493	2.284157	-2.585803
Cl	-3.600622	0.519987	-0.071068
