13

C	0.014603	-0.018976	0.013446
C	-0.454192	-0.051525	-1.452264
F	1.40549	0.110346	-0.009177
H	-0.04299	-0.926762	-1.963179
H	-1.551792	-0.102206	-1.434296
N	-0.517679	1.021513	0.82503
H	-0.317909	1.907916	0.370299
H	-1.539555	0.910715	0.830407
C	-0.271343	-1.335648	0.6296
N	-0.417068	-2.406647	1.085882
C	-0.018767	1.158993	-2.139993
N	0.351612	2.13182	-2.682297
Cl	-3.556387	0.360103	-0.114612
