13

C	0.027354	-0.027695	0.015149
C	-0.487173	-0.322769	-1.39207
F	1.420638	0.116512	-0.035144
H	-0.13204	-1.30515	-1.713459
H	-1.585641	-0.322421	-1.354452
N	-0.545177	1.167063	0.502364
H	-1.561146	1.149951	0.337224
H	-0.372796	1.273103	1.494435
C	-0.174003	-1.227867	0.878945
N	-0.308733	-2.153989	1.588962
C	-0.011427	0.681679	-2.33877
N	0.381305	1.442014	-3.141239
Cl	-3.606087	0.471037	-0.216302
