18

C	0.0	0.0	0.0
C	-0.414984	0.166039	-1.50191
F	1.370475	0.0	0.0
H	0.511858	-0.080209	-2.030182
N	-0.611631	0.841993	0.898749
H	-0.409842	0.538727	1.845246
H	-1.642802	0.672192	0.695646
N	-0.198927	-1.527873	0.409549
O	-0.656846	-1.77138	1.521812
O	0.212558	-2.381307	-0.375585
C	-0.781458	1.623314	-1.760084
H	-0.044533	2.31818	-1.351956
H	-0.875589	1.767216	-2.839093
H	-1.748734	1.805832	-1.291699
N	-1.470707	-0.669522	-2.041473
H	-2.267598	-0.540154	-1.394073
H	-1.171384	-1.634564	-1.988894
F	-2.921144	0.0	0.0
