18

C	0.0	0.0	0.0
C	-0.213216	0.185395	-1.54909
F	1.387972	0.0	0.0
H	0.467223	1.048773	-1.688168
N	-0.629231	0.899808	0.849783
H	-1.682297	0.614559	0.670553
H	-0.494219	1.825837	0.452599
N	-0.298573	-1.425229	0.527159
O	0.389912	-2.32808	0.04889
O	-1.118749	-1.569933	1.418666
C	-1.554714	0.603489	-2.116312
H	-2.307503	-0.153956	-1.93617
H	-1.924392	1.514576	-1.64902
H	-1.401975	0.791416	-3.189361
N	0.254242	-0.980654	-2.307761
H	0.435815	-0.674616	-3.257812
H	1.118516	-1.326036	-1.913045
F	-2.868304	0.0	0.0
