18

C	0.0	0.0	0.0
C	-0.409216	-0.194047	-1.497531
F	1.378762	0.0	0.0
H	0.517109	-0.568376	-1.948688
N	-0.611993	1.026603	0.677703
H	-1.643409	0.814277	0.516257
H	-0.413739	0.945581	1.668932
N	-0.194567	-1.391556	0.755649
O	0.217947	-2.403053	0.191371
O	-0.655576	-1.369689	1.893004
C	-0.760532	1.163815	-2.096379
H	-1.731372	1.457642	-1.696874
H	-0.022292	1.93124	-1.852566
H	-0.840577	1.052428	-3.180082
N	-1.47108	-1.126566	-1.826055
H	-2.268149	-0.841027	-1.230101
H	-1.180812	-2.053983	-1.54361
F	-2.918338	0.0	0.0
