18

C	0.0	0.0	0.0
C	-0.524781	-0.127983	-1.460669
F	1.388161	0.0	0.0
H	-1.235793	-0.949575	-1.438715
N	-0.556892	1.039327	0.714382
H	-1.592905	0.836012	0.591838
H	-0.304974	0.93836	1.691015
N	-0.212278	-1.386205	0.734187
O	-0.176119	-2.416504	0.068159
O	-0.300988	-1.352549	1.959487
C	0.60778	-0.449812	-2.427023
H	1.160681	-1.341167	-2.127133
H	1.309716	0.38446	-2.500836
H	0.167326	-0.613417	-3.412636
N	-1.28387	1.023008	-1.924716
H	-0.813363	1.867252	-1.615767
H	-2.148244	0.944633	-1.375934
F	-2.831154	0.0	0.0
