18

C	0.0	0.0	0.0
C	-0.434812	0.019946	-1.483304
F	1.399272	0.0	0.0
H	0.490144	-0.223217	-2.017914
N	-0.62148	0.911043	0.821909
H	-0.427136	0.681968	1.790078
H	-1.651211	0.719597	0.636372
N	-0.168818	-1.494712	0.537327
O	-0.867996	-1.663063	1.533207
O	0.480125	-2.36713	-0.024083
C	-0.9029	1.422966	-1.881375
H	-1.027587	1.458786	-2.96991
H	-1.869695	1.591103	-1.406528
H	-0.199786	2.205337	-1.58196
N	-1.409582	-1.023839	-1.778139
H	-1.643844	-0.947563	-2.76209
H	-2.241709	-0.775503	-1.209296
F	-2.968238	0.0	0.0
