18

C	0.0	0.0	0.0
C	-0.22431	-0.054207	-1.558706
F	1.358936	0.0	0.0
H	0.041627	0.987567	-1.804424
N	-0.640324	1.058146	0.612836
H	-1.683225	0.795802	0.407649
H	-0.493404	0.980328	1.61721
N	-0.320328	-1.347847	0.708301
O	-0.144278	-1.335044	1.92953
O	-0.69099	-2.323328	0.072402
C	-1.570892	-0.339633	-2.203806
H	-1.871423	-1.365457	-2.005802
H	-1.451209	-0.196025	-3.286799
H	-2.352182	0.290482	-1.799911
N	0.754466	-0.996234	-2.13381
H	1.681181	-0.594873	-2.107482
H	0.506676	-1.14195	-3.104117
F	-2.884765	0.0	0.0
