18

C	0.0	0.0	0.0
C	-0.245951	-0.00948	-1.555692
F	1.383926	0.0	0.0
H	-0.149748	1.070226	-1.75945
N	-0.642884	1.02453	0.663698
H	-0.484589	0.907695	1.659775
H	-1.679384	0.795096	0.453905
N	-0.269562	-1.37933	0.669667
O	-0.6298	-2.337218	0.002097
O	-0.052966	-1.40738	1.88471
C	-1.544797	-0.486119	-2.182386
H	-1.5651	-0.125034	-3.219597
H	-1.565468	-1.577914	-2.177219
H	-2.404321	-0.132119	-1.606606
N	0.837439	-0.775696	-2.201397
H	1.715377	-0.279656	-2.13133
H	0.598177	-0.85482	-3.181595
F	-2.94378	0.0	0.0
