18

C	0.0	0.0	0.0
C	-0.207194	-0.019891	-1.564786
F	1.386175	0.0	0.0
H	0.249516	0.949747	-1.801426
N	-0.641735	1.02406	0.648765
H	-1.697409	0.754221	0.447267
H	-0.460787	0.949702	1.644658
N	-0.284551	-1.381593	0.67063
O	-0.686731	-2.329288	0.00238
O	-0.06244	-1.428202	1.881417
C	-1.579147	-0.045118	-2.208484
H	-2.241111	0.70383	-1.793582
H	-1.416375	0.09511	-3.282674
H	-2.074794	-0.996603	-2.026342
N	0.610328	-1.036098	-2.24242
H	1.526979	-1.068786	-1.816709
H	0.169391	-1.931478	-2.07126
F	-2.871258	0.0	0.0
