14

C	0.0	0.0	0.0
C	-0.629041	-0.065289	-1.375144
F	1.373262	0.0	0.0
H	-1.77208	-0.0671	-1.008876
H	-0.299625	-0.913583	0.519972
N	-0.464982	1.212724	0.616299
H	-1.486752	1.090103	0.609381
H	-0.154426	1.204148	1.581949
N	-0.360601	-1.35061	-2.063181
O	-0.294829	-1.352479	-3.293215
O	-0.288804	-2.362228	-1.365302
C	-0.28869	1.051916	-2.229413
N	-0.039584	1.969906	-2.91959
F	-2.787229	0.0	0.0
