14

C	0.0	0.0	0.0
C	-0.23129	-0.32249	-1.505908
F	1.400188	0.0	0.0
H	0.235895	0.515265	-2.026362
H	-0.323898	-0.834636	0.627349
N	-0.522017	1.27333	0.315154
H	-0.331149	1.438375	1.299206
H	-1.565234	1.024277	0.237393
N	-1.620462	-0.416046	-2.092373
O	-2.131546	-1.524493	-2.161363
O	-2.049047	0.616299	-2.589467
C	0.477294	-1.556232	-1.853471
N	1.075918	-2.524292	-2.140323
F	-2.64446	0.0	0.0
