14

C	0.0	0.0	0.0
C	-0.232921	-0.342052	-1.500161
F	1.397278	0.0	0.0
H	0.25054	0.479104	-2.032413
H	-0.328219	-0.823591	0.638959
N	-0.51879	1.280437	0.297862
H	-0.317237	1.45961	1.278409
H	-1.560978	1.032734	0.231072
N	-1.622209	-0.41843	-2.089175
O	-2.037888	0.620558	-2.583338
O	-2.143346	-1.521513	-2.166165
C	0.456563	-1.591925	-1.829121
N	1.04259	-2.569937	-2.107875
F	-2.64022	0.0	0.0
