14

C	0.0	0.0	0.0
C	-0.540605	-0.126205	-1.430072
F	1.399647	0.0	0.0
H	-1.411423	0.520808	-1.508841
H	-0.301237	-0.887449	0.557287
N	-0.471109	1.244969	0.527027
H	-0.178022	1.288144	1.498473
H	-1.502014	1.047802	0.50638
N	-1.11372	-1.492405	-1.732366
O	-0.75037	-2.453109	-1.065388
O	-1.88381	-1.536803	-2.683157
C	0.471162	0.136687	-2.45299
N	1.255386	0.342288	-3.302484
F	-2.653209	0.0	0.0
