14

C	0.0	0.0	0.0
C	-0.230294	-0.274372	-1.514817
F	1.400409	0.0	0.0
H	0.262193	0.56619	-2.006572
H	-0.323584	-0.853534	0.601128
N	-0.520538	1.263502	0.352656
H	-1.563822	1.016289	0.272693
H	-0.32235	1.403789	1.339488
N	-1.616656	-0.309558	-2.111281
O	-2.147028	-1.402258	-2.247107
O	-2.024414	0.757267	-2.547795
C	0.450888	-1.513398	-1.894512
N	1.032025	-2.484534	-2.205346
F	-2.641815	0.0	0.0
