14

C	0.0	0.0	0.0
C	-0.62502	-0.01368	-1.380239
F	1.373523	0.0	0.0
H	-1.766681	-0.027976	-1.026522
H	-0.299565	-0.933445	0.483202
N	-0.470075	1.186482	0.657565
H	-1.492227	1.055211	0.640085
H	-0.16538	1.14554	1.624304
N	-0.354045	-1.274351	-2.115714
O	-0.281333	-1.231358	-3.345788
O	-0.289711	-2.310579	-1.454315
C	-0.278442	1.133752	-2.191261
N	-0.028246	2.071874	-2.852796
F	-2.787647	0.0	0.0
