14

C	0.0	0.0	0.0
C	-0.420867	-0.030755	-1.484284
F	1.368488	0.0	0.0
H	0.37907	-0.562241	-2.006766
H	-0.321691	-0.948576	0.446441
N	-0.484778	1.172737	0.642406
H	-1.516483	1.005547	0.559391
H	-0.225307	1.114937	1.621863
N	-0.334909	1.367253	-2.042405
O	0.801755	1.759997	-2.30299
O	-1.362761	2.016407	-2.180257
C	-1.690361	-0.666082	-1.855111
N	-2.371596	-1.327345	-2.553529
F	-2.628681	0.0	0.0
