15

C	-0.5459	0.039903	-1.41479
C	0.0	0.0	0.0
Br	0.420568	-1.173773	-2.623993
H	1.090644	0.0	0.0
H	-1.581557	-0.303658	-1.462274
C	-0.4606	1.376001	-1.991948
N	-0.443883	2.452707	-2.463053
N	-0.485215	-1.221797	0.674926
O	-0.161893	-1.375832	1.853161
O	-1.169667	-2.037553	0.04383
C	-0.387709	1.213072	0.833841
H	-1.470107	1.38964	0.87765
H	0.108507	2.090915	0.420612
H	-0.002663	1.058584	1.840392
F	2.507477	0.0	0.0
