15

C	-0.447095	0.002866	-1.45506
C	0.0	0.0	0.0
Br	0.263087	1.560836	-2.403657
H	1.09487	0.0	0.0
H	-0.018389	-0.858377	-1.962452
C	-1.899811	0.001658	-1.610797
N	-3.072407	-0.006104	-1.698702
N	-0.390423	-1.308099	0.572813
O	-0.518272	-1.390606	1.795518
O	-0.503627	-2.276228	-0.190658
C	-0.535055	1.130569	0.846582
H	-1.625072	1.098483	0.956339
H	-0.079754	1.078667	1.833877
H	-0.246549	2.07906	0.392074
F	2.510862	0.0	0.0
