15

C	-0.337505	0.050659	-1.458152
C	0.0	0.0	0.0
Br	-2.286394	0.252287	-1.849116
H	1.093209	0.0	0.0
H	0.098833	0.976104	-1.838645
C	0.167142	-1.0413	-2.282512
N	0.572133	-1.878034	-3.000522
N	-0.500899	-1.209717	0.659287
O	-0.772006	-2.195006	-0.032731
O	-0.589323	-1.192763	1.889614
C	-0.390598	1.243912	0.769134
H	-1.47124	1.341983	0.909014
H	0.097947	1.219671	1.741472
H	-0.013631	2.116823	0.230222
F	2.481675	0.0	0.0
