15

C	-0.38954	-0.002865	-1.474294
C	0.0	0.0	0.0
Br	0.278033	1.604316	-2.371621
H	1.092871	0.0	0.0
H	0.115557	-0.830006	-1.967016
C	-1.828388	-0.082205	-1.70546
N	-2.990484	-0.154436	-1.865417
N	-0.403158	-1.307691	0.558182
O	-0.506449	-2.269337	-0.214125
O	-0.5541	-1.397957	1.777951
C	-0.556681	1.131267	0.829304
H	-0.161292	1.054468	1.840485
H	-1.651798	1.12563	0.875157
H	-0.217907	2.077525	0.407476
F	2.513466	0.0	0.0
