17

C	-0.629236	0.225886	-1.377964
C	0.0	0.0	0.0
Cl	0.091079	1.533841	-2.323715
H	1.103418	0.0	0.0
N	-0.302025	-1.052382	-2.218002
O	-1.136759	-1.343812	-3.072924
O	0.744667	-1.638787	-2.001683
N	-2.023274	0.411251	-1.258043
H	-2.384168	-0.375565	-0.726348
H	-2.446325	0.405881	-2.177879
N	-0.534471	-1.243705	0.510534
H	-1.026193	-1.049366	1.375591
H	0.251906	-1.850497	0.711253
N	-0.422372	1.15814	0.877185
O	-1.167876	0.924741	1.831453
O	0.010652	2.262074	0.581857
Cl	3.274608	0.0	0.0
