17

C	-0.294157	-0.247258	-1.503645
C	0.0	0.0	0.0
Cl	-1.969936	-0.813811	-1.814632
H	1.093386	0.0	0.0
N	-0.202489	1.096229	-2.317569
O	-1.09334	1.921033	-2.162966
O	0.773573	1.207984	-3.050835
N	0.631336	-1.202763	-1.934452
H	0.614443	-1.321338	-2.938385
H	1.57171	-0.949484	-1.618774
N	-0.440052	-1.022361	0.88542
H	0.227743	-1.781027	0.85705
H	-1.365191	-1.357895	0.655035
N	-0.55655	1.313943	0.441263
O	0.151138	2.306091	0.291378
O	-1.695141	1.305166	0.904411
Cl	3.272798	0.0	0.0
