17

C	-0.284427	-0.003555	-1.511872
C	0.0	0.0	0.0
Cl	0.144863	-1.678312	-2.135381
H	1.09156	0.0	0.0
N	-1.764203	0.114333	-1.888623
O	-2.539184	-0.64654	-1.32227
O	-2.064684	0.930011	-2.752363
N	0.436734	1.03988	-2.077937
H	1.410779	1.00186	-1.772376
H	0.350993	1.093654	-3.083251
N	-0.531121	-1.013218	0.836325
H	-1.406455	-1.373506	0.489399
H	0.150434	-1.747525	0.947734
N	-0.4768	1.340877	0.508518
O	-1.691258	1.543929	0.430578
O	0.345089	2.111607	0.990502
Cl	3.283585	0.0	0.0
