16

C	0.0	0.0	0.0
C	-0.558334	0.008514	-1.415633
Cl	1.803689	0.0	0.0
H	-1.652805	-0.063827	-1.248079
H	-0.206651	-0.905828	-1.908303
C	-0.357303	1.242853	0.701929
N	-0.530429	2.254556	1.273773
C	-0.523743	-1.200455	0.766867
H	-0.137563	-1.214899	1.788859
H	-0.222884	-2.116313	0.250643
H	-1.622799	-1.093087	0.757621
C	-0.224926	1.246335	-2.233734
H	0.852241	1.418826	-2.309241
H	-0.625134	1.140754	-3.245755
H	-0.688132	2.129482	-1.787697
H	-3.260508	0.0	0.0
