16

C	0.0	0.0	0.0
C	-0.379701	-0.048241	-1.498153
Cl	1.803571	0.0	0.0
H	0.341853	0.577258	-2.032651
H	-0.189313	-1.080586	-1.815991
C	-0.363594	1.300415	0.577875
N	-0.595132	2.353072	1.04517
C	-0.604881	-1.131717	0.803855
H	-0.309834	-2.087607	0.36444
H	-1.698898	-1.023097	0.760952
H	-0.275439	-1.094618	1.84425
C	-1.796617	0.39489	-1.835646
H	-1.875942	1.484089	-1.779744
H	-2.590846	0.014619	-1.168935
H	-2.027838	0.094233	-2.863647
H	-4.091417	0.0	0.0
