16

C	-0.267901	0.023224	-1.484737
C	0.0	0.0	0.0
Cl	-2.045569	-0.095833	-1.900173
H	1.102919	0.0	0.0
H	0.032758	0.999878	-1.875912
C	0.528038	-1.06566	-2.164638
H	0.484034	-0.984031	-3.256937
H	1.555357	-0.942525	-1.797211
H	0.151218	-2.040465	-1.845751
N	-0.456846	-1.241127	0.601621
H	0.188498	-1.479382	1.340678
H	-1.37013	-1.07407	1.005861
N	-0.573493	1.170961	0.692334
H	0.096125	1.411709	1.429726
H	-0.566524	1.966372	0.049626
F	2.730978	0.0	0.0
