16

C	-0.43168	0.153638	-1.454594
C	0.0	0.0	0.0
Cl	-0.212933	-1.388621	-2.358402
H	1.100016	0.0	0.0
H	-1.500479	0.386645	-1.521769
C	0.446906	1.218843	-2.101844
H	0.377146	1.206084	-3.192032
H	1.475478	1.022607	-1.775297
H	0.133224	2.209431	-1.755288
N	-0.569395	-1.155776	0.648231
H	0.050297	-1.441955	1.395063
H	-1.474547	-0.916389	1.042756
N	-0.452713	1.256655	0.686079
H	-0.274117	1.079158	1.671136
H	0.241003	1.961411	0.44332
F	2.738063	0.0	0.0
