16

C	-0.593836	0.024403	-1.399507
C	0.0	0.0	0.0
Cl	-0.139747	1.549926	-2.274087
H	1.100122	0.0	0.0
H	-0.102665	-0.772331	-1.958821
C	-2.103097	-0.121352	-1.444921
H	-2.366092	-1.068731	-0.969792
H	-2.58015	0.693606	-0.897805
H	-2.470133	-0.122749	-2.474809
N	-0.382122	-1.291028	0.589065
H	-1.129573	-1.127019	1.255354
H	0.434107	-1.625929	1.088422
N	-0.550325	1.101562	0.822277
H	-0.407964	1.961895	0.299456
H	0.093399	1.176478	1.606195
F	2.707534	0.0	0.0
