16

C	-0.576378	0.048614	-1.407222
C	0.0	0.0	0.0
Cl	-0.127737	1.593516	-2.239823
H	1.100171	0.0	0.0
H	-0.08075	-0.734371	-1.980506
C	-2.083178	-0.114742	-1.485455
H	-2.344366	-1.060329	-1.008448
H	-2.426061	-0.126536	-2.522939
H	-2.598484	0.699924	-0.970546
N	-0.396644	-1.316233	0.547227
H	0.441935	-1.68482	0.984178
H	-1.064812	-1.131592	1.288427
N	-0.463994	1.096804	0.863239
H	0.373449	1.604977	1.130581
H	-1.044474	1.749358	0.348311
F	2.691197	0.0	0.0
