17
Coordinates from ORCA-job run
  C   0.74930865767173     -0.61710908536131     -0.41906654884287
  C   -0.42429791713379     -0.10246870402667      0.41859345332541
  H   0.46785968924458     -0.57348312078599     -1.47947658633712
  H   -0.14095019163715     -0.18858501252717      1.47727184885701
  H   0.90109954147134     -1.67783504691586     -0.18592950083860
  C   2.05959685935171      0.13571259689487     -0.20263033109737
  H   2.88166723093380     -0.34985833801093     -0.73445811362479
  H   2.00148362308422      1.16500772385108     -0.56173816087216
  H   2.32157777858870      0.16434894624990      0.85915249268786
  C   -1.66062375507336     -0.96885259240496      0.18688684618048
  H   -1.98333535867423     -0.90374999550515     -0.85737638935441
  H   -2.49590540331660     -0.64678442287847      0.81506740771738
  H   -1.45737350591212     -2.02006582809104      0.40996606343132
  C   -0.73891026683539      1.36315101581744      0.12711313139237
  H   0.08970768598810      2.02354793204560      0.39078544360687
  H   -0.95667078175926      1.50229531959262     -0.93741864569035
  H   -1.61523388599229      1.69272861205604      0.69225758945901
