17

C	0.0	0.0	0.0
C	-0.516411	-0.031638	-1.459614
Cl	1.794407	0.0	0.0
H	0.332977	0.205592	-2.108749
H	-0.260299	0.988898	0.379093
C	-0.548881	-1.056303	0.934548
H	-0.169235	-0.897757	1.946369
H	-0.272154	-2.062261	0.612611
H	-1.64095	-0.967348	0.9507
N	-1.469608	1.070017	-1.609058
H	-1.761154	1.109481	-2.58119
H	-2.319812	0.852046	-1.082364
C	-1.06752	-1.396666	-1.87854
H	-0.338067	-2.203632	-1.740536
H	-1.332414	-1.364864	-2.940068
H	-1.97615	-1.62072	-1.316496
Br	-4.379753	0.0	0.0
