15

C	0.0	0.0	0.0
C	-0.380686	-0.315556	-1.462557
Cl	1.784087	0.0	0.0
H	0.352306	0.186612	-2.104957
H	-0.366221	-0.788737	0.647937
C	-0.433266	1.367934	0.501103
H	-0.060697	2.154743	-0.15739
H	-1.525441	1.325328	0.519011
H	-0.011825	1.516108	1.500141
N	-1.690659	0.211952	-2.028813
O	-1.743389	1.432019	-2.122539
O	-2.423548	-0.58771	-2.595158
C	-0.271477	-1.752436	-1.712791
N	-0.072883	-2.895581	-1.896774
F	-2.594623	0.0	0.0
