15

C	0.0	0.0	0.0
C	-0.555779	-0.121983	-1.433136
Cl	1.78408	0.0	0.0
H	0.282204	-0.093734	-2.145183
H	-0.312875	-0.893911	0.529403
C	-0.393738	1.209543	0.847642
H	0.066944	2.120552	0.471505
H	-0.024999	1.023383	1.86115
H	-1.481208	1.246789	0.831974
N	-1.427567	1.00155	-1.933487
O	-1.062005	2.139202	-1.658454
O	-2.30863	0.71505	-2.729205
C	-1.247172	-1.395445	-1.610268
N	-1.590926	-2.494315	-1.840944
F	-2.542099	0.0	0.0
