15

C	0.0	0.0	0.0
C	-0.474168	0.123006	-1.444951
Cl	1.784282	0.0	0.0
H	0.003696	-0.672896	-2.020576
H	-0.331687	-0.9763	0.347041
C	-0.409049	1.085141	0.989595
H	0.039423	2.041032	0.714935
H	-1.492724	1.137031	0.985091
H	-0.03864	0.802856	1.979107
N	0.079638	1.376206	-2.080619
O	-0.319942	2.455681	-1.656974
O	0.8983	1.232313	-2.987983
C	-1.934922	0.084504	-1.748388
N	-2.647414	0.060093	-2.699952
F	-2.628841	0.0	0.0
