15

C	0.0	0.0	0.0
C	-0.553345	-0.46765	-1.360043
Cl	1.784122	0.0	0.0
H	0.279176	-0.575276	-2.068861
H	-0.31434	-0.734732	0.734184
C	-0.39307	1.38237	0.519598
H	-1.480802	1.4124	0.506131
H	0.056801	2.172365	-0.079101
H	-0.012842	1.459472	1.542933
N	-1.473493	0.47004	-2.100522
O	-1.156456	1.653768	-2.111753
O	-2.337116	-0.037548	-2.79918
C	-1.192451	-1.772742	-1.225627
N	-1.496918	-2.904162	-1.161384
F	-2.54492	0.0	0.0
