15

C	0.0	0.0	0.0
C	-0.565668	0.058977	-1.40289
Br	1.926931	0.0	0.0
H	-1.659541	0.269635	-1.129293
H	-0.381932	-0.862784	0.53916
N	-0.397416	1.198299	0.831451
O	-0.566608	2.260669	0.24729
O	-0.42263	1.027046	2.045466
C	-0.527401	-1.326717	-2.040702
H	0.472988	-1.76981	-2.016893
H	-0.85321	-1.269603	-3.081863
H	-1.230983	-1.961431	-1.492343
C	0.046304	1.057252	-2.25776
N	0.495509	1.820057	-3.03414
H	-2.763971	0.0	0.0
