16
Coordinates from ORCA-job run
  C   0.65707699830646     -0.00983736624934      0.42392031142578
  C   -0.63626206415012     -0.01812367150916     -0.42827619821068
  Cl  0.55911934675948      1.28768317204757      1.65980573021197
  H   -0.50506341456162     -0.83198169932906     -1.15385763433650
  C   0.75223007384722     -1.29479791238815      1.11985202020652
  N   0.83067716001927     -2.34791611902477      1.63535480776822
  C   1.90290926649410      0.21848024056916     -0.42521546580171
  H   2.79404263953150      0.18951843581190      0.20242908552159
  H   1.84375627659501      1.19327300332585     -0.91121464098831
  H   1.97950149607675     -0.56278472005063     -1.18610653714621
  C   -0.73108266824414      1.22916354216085     -1.18929750610341
  N   -0.82570307120681      2.22602459876530     -1.80267681981513
  C   -1.91656636889081     -0.27068838638616      0.37064859005178
  H   -1.84326273041103     -1.21594132900659      0.91154673588425
  H   -2.09502782048307      0.53488506446792      1.08232936656947
  H   -2.76734511968218     -0.32695685320470     -0.31024184523764
