16
Coordinates from ORCA-job run
  C   0.60897755890525     -0.12889877812379      0.47274346358113
  C   -0.58432245097021      0.10749939419251     -0.48613210778238
  Cl  0.25444314699403      0.60548752963873      2.07159576941776
  H   -0.29668365507365     -0.36257675560211     -1.43611975135101
  C   0.76464717571399     -1.57255888326049      0.66096120820648
  N   0.89956249988129     -2.73518640695999      0.76666026169957
  C   1.90391624689553      0.47151385420027     -0.06346574129829
  H   1.79282134385759      1.55137176742267     -0.16976004230692
  H   2.72468662032972      0.26648599014088      0.62435834951542
  H   2.13915014090751      0.03281446395104     -1.03668137449432
  C   -0.73350223671090      1.54215933251704     -0.73914175125500
  N   -0.87315872526038      2.68958055947582     -0.94547142879967
  C   -1.90471775638688     -0.50364098304363     -0.01201112846393
  H   -1.78796628679967     -1.57720996137879      0.14788096969233
  H   -2.67274388749207     -0.34848733241090     -0.77151420816835
  H   -2.23610973479113     -0.03835379075924      0.91609751180718
