16
Coordinates from ORCA-job run
  C   0.60696044943699     -0.10509223520047      0.48181944772874
  C   -0.58548533846876      0.07983856478687     -0.48900281213950
  Cl  0.29734269987222      0.79913481618661      2.00082279819895
  H   -0.32766162114040     -0.50056187210544     -1.38504579573014
  C   0.70847476415145     -1.52835242921891      0.81194494701581
  N   0.79859252506540     -2.68025343458112      1.02659988776103
  C   1.91902829149020      0.38692927863195     -0.11934026840634
  H   1.85154253709472      1.45584781021371     -0.32565444799462
  H   2.12359579879105     -0.15000604015259     -1.04929564013557
  H   2.73913479065279      0.21233778084493      0.57755327760969
  C   -0.67466556560507      1.48383917459945     -0.89579492303487
  N   -0.76174873337134      2.60531826694319     -1.23212307700958
  C   -1.92519396473595     -0.42082366754551      0.05430195437734
  H   -2.69493752149099     -0.31058696377732     -0.71102854573978
  H   -1.85231983986686     -1.47647720058366      0.32186806884135
  H   -2.22565927187543      0.14990815095830      0.93237512865748
