16
Coordinates from ORCA-job run
  C   0.57519466056177     -0.08547269019331      0.51958611844815
  C   -0.55434170971201      0.06201730444764     -0.52962904118466
  Cl  0.12362801288888      0.78736064714131      2.02129242024218
  H   -0.20998412626857     -0.49291836123787     -1.41253771003445
  C   0.71575715213274     -1.50656642856338      0.84429458252890
  N   0.86770475147285     -2.65101426069225      1.06375665629520
  C   1.90376134763219      0.46729748800855      0.01493200947479
  H   2.19623333286755     -0.05294309097966     -0.90100782888012
  H   2.67944633433763      0.32190516560975      0.76726016184672
  H   1.80445425096889      1.53415126913159     -0.18979562266225
  C   -0.67984144814209      1.46697363682977     -0.92228337461737
  N   -0.80132757488679      2.59098789413004     -1.23978819057428
  C   -1.90441261785291     -0.50503466092203     -0.08583610879950
  H   -2.29184443986204      0.04250967527828      0.77287607819632
  H   -1.80178839815555     -1.55905617180170      0.17895593690317
  H   -2.62263952798254     -0.42219741618676     -0.90307608718286
