16
Coordinates from ORCA-job run
  C   0.73260464045079      0.21430143084451      0.48521765334681
  C   -0.61378498112319      0.65753313563592     -0.13313264443572
  Cl  1.46838064973269      1.64378495915664      1.28603790843209
  H   -0.37751309463439      1.48493582080910     -0.81279792842438
  C   0.49795533616681     -0.81214353433198      1.50173579937335
  N   0.30059341221492     -1.67729462557472      2.27236773413425
  C   1.70772123890449     -0.30092708451307     -0.56850957490868
  H   1.82733517382074      0.44871394015147     -1.35370666419857
  H   1.34629130700543     -1.23395121709065     -1.00286654948948
  H   2.67954923163257     -0.48712908832409     -0.11076201354178
  C   -1.50436602577765      1.17894746484399      0.90680628426996
  N   -2.25534085270633      1.57257600495314      1.71924171669402
  C   -1.31473362353025     -0.46724493028788     -0.90308544780907
  H   -0.73111357805000     -0.76712134709404     -1.77377042864094
  H   -1.47675162825649     -1.33561943418356     -0.26071406820126
  H   -2.28782720585013     -0.11836149499479     -1.25206177660056
