16
Coordinates from ORCA-job run
  C   0.76337036101004      0.32292602877546      0.37849807905505
  C   -0.75108752624469      0.52761526035249      0.10649539385695
  Cl  1.65234164538956      1.69667109929096     -0.36830882185653
  H   -1.01378431304922      1.51151124929253      0.51134222037771
  C   0.99840202067183      0.39297575324514      1.82261901398851
  N   1.18832948399210      0.41963143344939      2.98213843194530
  C   1.30734431635342     -0.98571135016983     -0.17945113677541
  H   2.36056020384467     -1.08909361315374      0.08303292598155
  H   0.75328902591494     -1.82733021846470      0.24354456626282
  H   1.21852778364310     -0.99762491805024     -1.26572979441821
  C   -1.49911551689343     -0.48440373682749      0.85774183381608
  N   -2.09646026842474     -1.32935889643419      1.41370476175095
  C   -1.13881933839067      0.46804222889365     -1.37371679239362
  H   -0.99877072542918     -0.53378686326804     -1.78071954351728
  H   -2.19370122510826      0.72729321960799     -1.47750661437192
  H   -0.55042592727941      1.17964332346067     -1.95268452370193
