17
Coordinates from ORCA-job run
  C   0.83419007534623      0.48297834240555      0.12826996718867
  C   -0.66291839739831      0.31941364207492      0.34092868085749
  F   1.26441875303399      1.68192647241539      0.51270396642326
  H   -0.86547666738236      0.83143122925380      1.28806484059284
  N   1.53689696403282     -0.54949202942373      1.01258204204523
  O   1.97949720382394     -1.55311811226664      0.47225997179781
  O   1.53267628006782     -0.27025337476287      2.20333760396249
  N   1.31687677696656      0.21810563819502     -1.28525004172456
  O   0.62826749938527     -0.53267888600191     -1.96103958883513
  O   2.37065560894657      0.75374313394249     -1.58809765224126
  C   -1.18651973052001     -1.10291908439746      0.39648547790853
  H   -2.26375346605364     -1.06897858861728      0.54840850188815
  H   -0.74431880055277     -1.63023714806849      1.24293205655928
  H   -0.96746478828775     -1.64135764281960     -0.52257396824197
  N   -1.40395667612860      1.14162091753805     -0.69326506819502
  O   -0.75161132602382      1.94304982369467     -1.35416163101596
  O   -2.61545930925596      0.97776566683809     -0.74258515896983
