17
Coordinates from ORCA-job run
  C   0.84190901485987      0.39466722194075      0.03464335540452
  C   -0.62722461960624      0.31687679488951      0.41461472925185
  F   1.25466232676447      1.66646363604931      0.03409057189832
  H   -0.69808938743893      0.71166311492126      1.42876305910398
  N   1.72874104262636     -0.34242115528416      1.03413140695371
  O   1.20772152416024     -0.74425576273850      2.06735809309850
  O   2.90859393563811     -0.40266106859672      0.71765656876110
  N   1.18897760012948     -0.22837222599554     -1.30633950195417
  O   1.03710654571548     -1.44303414568078     -1.33867287519727
  O   1.58902205278365      0.51244502660137     -2.18549134135406
  C   -1.32260212501012     -1.02550412785081      0.29095215168515
  H   -2.34678661261854     -0.91022962476981      0.65157905590490
  H   -0.82111864275367     -1.77205044692873      0.90360417313560
  H   -1.34294945637472     -1.36282964650835     -0.74299307054344
  N   -1.34807926642143      1.31073792007424     -0.45371087325109
  O   -2.00530560501092      2.17455121073802      0.11610699936743
  O   -1.24557832744311      1.14395327913892     -1.66629250226502
