17
Coordinates from ORCA-job run
  C   0.73726159095494      0.10322066034009     -0.36659291079551
  C   -0.58139627850796     -0.00159513082358      0.36582198831501
  F   0.61959898656425      0.43437521105638     -1.64113217125316
  H   -0.38935126339399     -0.34415002655127      1.38157717561020
  N   1.72047349878269      1.05215982796149      0.31048686747815
  O   1.60702553516338      1.15644886427787      1.52382079084211
  O   2.54576201868981      1.57234250945350     -0.42330570846905
  N   1.42690143816320     -1.26718307190762     -0.29540180103154
  O   1.56008374446010     -1.72362880615117      0.83325338744406
  O   1.76559128787409     -1.76401702104114     -1.35747563013429
  C   -1.55711451245733     -0.90834097001538     -0.36473621048300
  H   -2.49239031438161     -0.94573608444801      0.19190306489295
  H   -1.15758476771433     -1.92172536503955     -0.43246634104399
  H   -1.75058455750935     -0.53627485152639     -1.37159138496461
  N   -1.19214978532927      1.36773441043213      0.51208431945359
  O   -0.64850620572744      2.31138780663386     -0.05491713729000
  O   -2.21162041563120      1.41398203734878      1.18867170142908
