17
Coordinates from ORCA-job run
  C   0.73136183158501      0.10476532322571     -0.37819537849083
  C   -0.57858666273858      0.00662733771589      0.37052445513755
  F   0.59508946469109      0.36480034328183     -1.66766541199557
  H   -0.36842323239410     -0.26860760780188      1.40315255651492
  N   1.69687650007348      1.11143900924373      0.23765356445357
  O   2.50641920724647      1.60657984612985     -0.53019111050048
  O   1.58728684494415      1.28274322677416      1.44373684187383
  N   1.45386636926562     -1.24370290556810     -0.24132727726168
  O   1.61724217055872     -1.62976900212428      0.90939195059995
  O   1.78280173193248     -1.79544679698926     -1.27893601370849
  C   -1.53220307012337     -0.97095018188658     -0.29497623259307
  H   -1.73672835998213     -0.67295794189939     -1.32402858327454
  H   -2.46516773081592     -0.99411909232384      0.26623544229155
  H   -1.10730208596313     -1.97620558171110     -0.29491725614828
  N   -1.22701119328302      1.36518212929574      0.44024913290214
  O   -2.25146321030470      1.41928743911479      1.10864894179124
  O   -0.70405857469206      2.29233445552271     -0.17135562159180
