17
Coordinates from ORCA-job run
  C   0.74336585475911      0.11087543423035     -0.35173230021286
  C   -0.59253754548008      0.00430274457645      0.34820743330510
  F   0.65236573776613      0.34648380946117     -1.64982393523524
  H   -0.41737616404350     -0.24521322789667      1.39388856737856
  N   1.66828286165395      1.14421982809903      0.28279898799213
  O   1.51330966049167      1.33077239153379      1.48153560382894
  O   2.49614626706039      1.64240133593544     -0.46319832058874
  N   1.48198559769686     -1.22216926519582     -0.16351182163574
  O   1.60532446280189     -1.58755033126836      0.99887272300535
  O   1.86195820147664     -1.78419694004076     -1.17797137473710
  C   -1.50273912054401     -1.00421244690181     -0.33154521197340
  H   -1.05999314905940     -2.00109616061762     -0.29613518586666
  H   -2.45546619198952     -1.03434386092652      0.19495637131144
  H   -1.67442129914565     -0.72983006549262     -1.37317322659822
  N   -1.26692030768171      1.35229607550820      0.36367322403382
  O   -2.32266856482441      1.39969562469851      0.98182586499065
  O   -0.73061630093834      2.27856505429723     -0.23766739899801
