17
Coordinates from ORCA-job run
  C   0.82042232908450     -0.25017805958823      0.31389499482021
  C   -0.65106226407759      0.12375636106680      0.43295227801194
  F   1.04950268698412     -1.33032140583944      1.07129253513793
  H   -0.79073744860136      0.49476143171219      1.45062309402453
  N   1.29053668488158     -0.58904189478433     -1.09876664629400
  O   0.89474055019782     -1.66904486400862     -1.51054165221861
  O   2.01438524697769      0.21889669129645     -1.65892055019565
  N   1.73711236889823      0.85818580384933      0.80261112714078
  O   2.82272951947831      0.49985113280574      1.23165564474407
  O   1.30141887961753      1.99777534546299      0.69687688417359
  C   -1.59354184931693     -1.03155998468759      0.13208992988611
  H   -1.36424808335028     -1.88342713538293      0.77095217256949
  H   -2.61445929074858     -0.70393495183148      0.33606875780674
  H   -1.51262728460696     -1.33632668225589     -0.90980241980210
  N   -1.02219868320785      1.26774290409674     -0.46151266061231
  O   -1.69505364909572      2.15865587446754      0.03992795906906
  O   -0.68691971311457      1.17120943362073     -1.63840144826171
