17
Coordinates from ORCA-job run
  C   0.86059163665429     -0.23561897271758      0.19485364022230
  C   -0.60299391244826      0.04099433002603      0.51109743919889
  F   1.22052758502166     -1.37456793144950      0.79997806085747
  H   -0.64397709482260      0.29219696699960      1.57320644178991
  N   1.18285023556339     -0.39797138766556     -1.28878754807825
  O   1.79983408580742      0.50474228803017     -1.83181352792211
  O   0.79232753687013     -1.45011651179271     -1.77167538709698
  N   1.77748671220350      0.86466658105263      0.70136650128422
  O   2.91945031667000      0.52406692529832      0.96761905982945
  O   1.28166224273774      1.98192201157861      0.77625659856272
  C   -1.52193244746037     -1.12628784109952      0.18444176395095
  H   -1.18449345554679     -2.02783662201887      0.69407720616287
  H   -1.54657209387947     -1.31183030237562     -0.88792166911226
  H   -2.52647561139220     -0.88038316685010      0.53322538873005
  N   -1.12105229315819      1.25145886092007     -0.20469413384765
  O   -0.91578855898626      1.29902846664691     -1.41406154159941
  O   -1.77144488383397      2.04553630541714      0.46183170706784
