17
Coordinates from ORCA-job run
  C   0.79848668250843     -0.25245976168449      0.32708100052904
  C   -0.68483964339852      0.06559960330917      0.40949077357682
  F   1.05192958142349     -1.31694708431695      1.10096059619043
  H   -0.86291573805716      0.29999771682041      1.46381966491962
  N   1.25499588237010     -0.56682788994830     -1.08134263203882
  O   2.09647724596272     -1.44329306966261     -1.20224189491930
  O   0.73503382058658      0.11239193611730     -1.95810185715691
  N   1.69445045523180      0.86781110348151      0.85364400862082
  O   1.50136149167909      1.12938496378927      2.03010469405690
  O   2.51905761677457      1.34496571102959      0.09069711258452
  C   -1.53568388728055     -1.09499140409110     -0.06174179390345
  H   -2.58477075615947     -0.88568717184484      0.13967254137279
  H   -1.25138776699343     -2.00067770410829      0.47499137991262
  H   -1.42232438647160     -1.25154690396092     -1.13400726877416
  N   -1.01655888788975      1.34515823856142     -0.32348709526041
  O   -0.29370806299898      2.30490072163276     -0.07848609154400
  O   -1.99860364728730      1.34322099487606     -1.05205313816654
