17
Coordinates from ORCA-job run
  C   0.79921759146505     -0.24979947873567      0.32719566101102
  C   -0.68419383298207      0.06753041093803      0.40994985177275
  F   1.05422173129749     -1.30971481751573      1.10691684726484
  H   -0.86105386129675      0.30712015493480      1.46335481840510
  N   1.25377269479517     -0.57239248138865     -1.08011007985973
  O   2.09577422400067     -1.44887606446098     -1.19705112021342
  O   0.73175144792494      0.10105273655087     -1.96007893479615
  N   1.69552144230756      0.87374374374173      0.84548265476280
  O   2.51955164993974      1.34583897871590      0.07877879777908
  O   1.50342233233726      1.14313835124900      2.02042654845347
  C   -1.53491261626216     -1.09649508557666     -0.05289309820716
  H   -2.58416687381731     -0.88445630196539      0.14458461256788
  H   -1.25224723006000     -1.99751498470577      0.49245795236919
  H   -1.41994313590479     -1.26308089344019     -1.12352035479139
  N   -1.01852173947350      1.34276626265761     -0.32932569038132
  O   -2.00367702058649      1.33632076921754     -1.05368889006768
  O   -0.29451680368478      2.30381869978357     -0.09347957606927
