17
Coordinates from ORCA-job run
  C   0.76009169488380      0.03092043765958     -0.33030396215223
  C   -0.60311364320988      0.06586283262305      0.32247783244739
  F   0.72922377337274      0.14257828816740     -1.64740129892725
  H   -0.48153956137332     -0.10535152878846      1.39104422379409
  N   1.71946773785259      1.07040356453397      0.23976477696097
  O   1.53490334795900      1.37774788258225      1.40914500821110
  O   2.60059048823049      1.44861411926623     -0.51570724715207
  N   1.41581496005018     -1.31475944934164      0.01478771530572
  O   1.46700302807884     -1.57611080891793      1.21021445005136
  O   1.81265479350274     -1.98567755678928     -0.92424235428247
  C   -1.55292675312571     -0.93738589631965     -0.30960477452805
  H   -1.17026470885851     -1.95255139839388     -0.19057152903857
  H   -1.68126390366008     -0.73044919427142     -1.37279507047306
  H   -2.51894523592331     -0.87500613674702      0.18936243471587
  N   -1.19088141803936      1.44755362467616      0.20042036619787
  O   -0.59565388175739      2.27482860495785     -0.48426756743467
  O   -2.24516071798282      1.61978261510286      0.79867699630399
