17
Coordinates from ORCA-job run
  C   0.83080480511771     -0.23227687048581      0.29946385257770
  C   -0.64894895130587      0.09768159923314      0.44244526547001
  F   1.09881409581070     -1.31852660510005      1.03527229851988
  H   -0.78634227014094      0.44355089111757      1.46928537029393
  N   1.29295231827858     -0.53362734937477     -1.12417207876171
  O   1.98680363209927      0.30376304109885     -1.67895871314657
  O   0.92155450724653     -1.61682629586412     -1.55016663205517
  N   1.72257265319397      0.89241214890909      0.79697351995613
  O   2.82274467994120      0.55671286389366      1.20673293040315
  O   1.25249481672340      2.02074310560860      0.72187676413456
  C   -1.56268680397000     -1.07748200477538      0.12994032485711
  H   -1.48636445482363     -1.35995252966042     -0.91856296650494
  H   -2.58962171114234     -0.78205767361835      0.35217242585785
  H   -1.30236720997400     -1.93460409763566      0.74959476378095
  N   -1.06219299127198      1.24771993400041     -0.42484073929585
  O   -1.75494856419488      2.10899460424634      0.10058579174191
  O   -0.73626855158772      1.18377523840689     -1.60664217782893
