17
Coordinates from ORCA-job run
  C   0.80176761638041     -0.25267226371584      0.31931581431068
  C   -0.68033439068244      0.06656905712320      0.41675699176854
  F   1.06199469783547     -1.31673017343460      1.09142917645439
  H   -0.84807620021098      0.29974267057228      1.47309655738341
  N   1.24179563253471     -0.56873183024060     -1.09401440986325
  O   2.07548313967290     -1.45107938874467     -1.22535859606252
  O   0.71672937605094      0.11504779994691     -1.96418316808182
  N   1.70498966920058      0.86653211237363      0.83490687051311
  O   1.52478650773290      1.12957758798238      2.01316451818873
  O   2.52253718404789      1.34142566016306      0.06299381476284
  C   -1.53660766271124     -1.09351263766253     -0.04569317338188
  H   -1.25059715044901     -1.99802059662891      0.49211646676016
  H   -2.58393784753261     -0.88126383294375      0.16155279942573
  H   -1.43090345215256     -1.25411067134600     -1.11820959145109
  N   -1.01928883601920      1.34673897456687     -0.31165877633005
  O   -2.00967712573024      1.34574660593954     -1.02892150055362
  O   -0.29266115796756      2.30574092604905     -0.07529379384333
