17
Coordinates from ORCA-job run
  C   0.84219785433710     -0.06262070200026      0.48263917236689
  C   -0.67771014193865     -0.09611904105717      0.43495769439906
  F   1.30151039578619     -0.03529829943644      1.73113787607351
  H   -0.96654766606334     -0.74339324437904      1.27035672922810
  N   1.34856687036294     -1.35973698742513     -0.15217693665497
  O   1.20507893662662     -2.34820886091145      0.55361819907217
  O   1.78376241337651     -1.30136113120498     -1.29335399773228
  N   1.48606968385394      1.06453339774124     -0.30214118570051
  O   2.60504662406915      1.38567727674426      0.06361455949600
  O   0.84078611209868      1.50776611838482     -1.24119966972247
  C   -1.30300569131335     -0.59766520711033     -0.85247248178249
  H   -2.38573612367446     -0.56708473418715     -0.74587289101674
  H   -1.00534445241601      0.01389758511039     -1.70099652107545
  H   -1.01198914504324     -1.63401251339197     -1.02961464665013
  N   -1.21632268006759      1.26749072887462      0.81686541577460
  O   -0.42880213459357      2.07188995301451      1.30401734667094
  O   -2.41856085540094      1.43324566123404      0.66162133725374
