17
Coordinates from ORCA-job run
  C   0.83946945365523      0.40032107908182     -0.00565898443980
  C   -0.62348115738287      0.34245642197429      0.40013627929954
  F   1.24415117124499      1.67096060640937     -0.10438086849323
  H   -0.68255119295752      0.80801775465963      1.38463719402177
  N   1.74571109791319     -0.25767279648705      1.03146827652755
  O   2.92221047756650     -0.32757467417435      0.70473268022239
  O   1.24094386066881     -0.59338151789316      2.09582019174727
  N   1.17202422029016     -0.31662616358755     -1.30301330551344
  O   1.55429815548141      0.36059729264131     -2.23943703918359
  O   1.02807720926297     -1.53133032621262     -1.24450751774215
  C   -1.31273480811376     -1.00868858207758      0.38184922534486
  H   -1.34695822311695     -1.41713968300916     -0.62577492195086
  H   -2.33177304050045     -0.87372550848812      0.75003131935039
  H   -0.79686943995091     -1.70823068544343      1.03654082916364
  N   -1.36216386437821      1.26887122840829     -0.52626235554882
  O   -1.27664684480803      1.01606114576592     -1.72522302127052
  O   -2.01470707487453      2.16908440843243     -0.00995798153498
