17
Coordinates from ORCA-job run
  C   0.83875749465029      0.40005816274098      0.02467503947896
  C   -0.64954911700854      0.37054109524472      0.32781679078057
  F   1.25453918896046      1.66043396220753     -0.13925320757838
  H   -0.77755289930666      0.90994994766793      1.26699994405034
  N   1.66621457824162     -0.17730785276228      1.16979777542880
  O   1.08686723313896     -0.42550742790419      2.22005401065032
  O   2.86182436710771     -0.27593397592751      0.93173250590192
  N   1.25867938151518     -0.41080031284570     -1.18938402927566
  O   1.70468296030009      0.19649408539114     -2.14550096024754
  O   1.10926310413203     -1.61821521943846     -1.05064922901053
  C   -1.33884245251830     -0.98012900440454      0.36356421621232
  H   -1.30155768495991     -1.46483274016830     -0.60950034846949
  H   -0.87315083847459     -1.62562714242587      1.10562680955679
  H   -2.38153701743748     -0.82101102217692      0.64589890350753
  N   -1.31570105152862      1.22240257749665     -0.71755102458216
  O   -1.98550607142649      2.16950995538414     -0.32097679108072
  O   -1.15843117538575      0.86897491192068     -1.88335040532309
