17
Coordinates from ORCA-job run
  C   0.87889154973473     -0.05024665599448      0.30004391868936
  C   -0.62178066599282     -0.18412894751705      0.49537030364002
  F   1.46971394316876      0.27712178646296      1.45420359813725
  H   -0.76185250777274     -0.99725434026251      1.20855858080344
  N   1.51512214152322     -1.36326246839228     -0.14830154002227
  O   0.81489254536672     -2.36814716832223     -0.13136779313237
  O   2.70368072067922     -1.28251365931898     -0.42503284271603
  N   1.29880081100819      0.95218754678873     -0.76114971834397
  O   1.91190265740835      1.93778016125298     -0.39453896713717
  O   0.97585692084359      0.62973287151085     -1.89750880734564
  C   -1.48475537519034     -0.37176733163029     -0.73789273370146
  H   -2.51854814426393     -0.50065557988600     -0.41091840426831
  H   -1.17987119141084     -1.26248233428580     -1.28369461714060
  H   -1.42203368896605      0.49253901539851     -1.39535095305445
  N   -1.07355363604448      1.05913757200667      1.21100754160232
  O   -1.66236317886040      0.90638434604280      2.27531616565845
  O   -0.84510290123114      2.12357518614609      0.64225626833143
