14

C	0.0	0.0	0.0
C	-0.531994	0.013849	-1.446641
Br	1.949633	0.0	0.0
H	-0.048998	-0.813876	-1.980772
H	-0.320348	0.897037	0.534231
C	-0.437612	-1.194963	0.710118
N	-0.726513	-2.189755	1.264467
C	-0.107891	1.261539	-2.085404
N	0.228962	2.285901	-2.550695
C	-2.054626	-0.147668	-1.476476
H	-2.347437	-1.142097	-1.142283
H	-2.439826	0.005594	-2.485502
H	-2.573543	0.55339	-0.823165
Br	-5.173432	0.0	0.0
