14

C	0.0	0.0	0.0
C	-0.55721	0.028008	-1.429524
Br	1.949616	0.0	0.0
H	-1.635151	-0.177921	-1.292081
H	-0.351771	0.880326	0.538687
C	-0.387525	-1.20827	0.726021
N	-0.593677	-2.188469	1.340331
C	0.032346	-1.015273	-2.262383
N	0.50017	-1.821208	-2.978236
C	-0.418429	1.40876	-2.066827
H	-1.022775	2.114032	-1.491871
H	0.622056	1.741262	-2.091615
H	-0.804152	1.388506	-3.087313
Br	-3.579499	0.0	0.0
