14

C	0.0	0.0	0.0
C	-0.547701	0.107554	-1.43113
Br	1.94923	0.0	0.0
H	-1.620993	-0.123985	-1.312397
H	-0.359687	0.847538	0.584096
C	-0.388642	-1.250115	0.652454
N	-0.585085	-2.271363	1.198942
C	0.062631	-0.869832	-2.327193
N	0.537705	-1.619593	-3.097049
C	-0.431729	1.528249	-1.97468
H	-1.062684	2.177079	-1.3641
H	-0.798638	1.567534	-3.00114
H	0.599781	1.886581	-1.956992
Br	-3.550632	0.0	0.0
