14

C	0.0	0.0	0.0
C	-0.560873	-0.211132	-1.412345
Br	1.948762	0.0	0.0
H	-1.64293	-0.368693	-1.239023
H	-0.346332	0.960633	0.382819
C	-0.388815	-1.068639	0.919722
N	-0.581117	-1.952549	1.669501
C	0.003445	-1.398469	-2.046099
N	0.444928	-2.334699	-2.602615
C	-0.394844	1.031467	-2.284304
H	0.65399	1.322057	-2.381603
H	-0.801121	0.842944	-3.279485
H	-0.967548	1.846431	-1.835752
Br	-3.590235	0.0	0.0
