18

C	0.0	0.0	0.0
C	-0.296289	0.003523	-1.521729
F	1.416315	0.0	0.0
H	0.181393	-0.9115	-1.897681
C	-0.573439	1.182966	0.730715
H	-0.212637	1.184088	1.76374
H	-1.667497	1.092926	0.722005
H	-0.269424	2.116169	0.254047
N	-0.468974	-1.221046	0.549529
H	-0.63113	-1.16658	1.54416
H	0.157828	-1.981859	0.325793
C	0.409494	1.123651	-2.155478
N	0.939712	2.038249	-2.667739
C	-1.77419	0.004497	-1.902659
H	-2.245448	0.967035	-1.712851
H	-2.346687	-0.696334	-1.292977
H	-1.87469	-0.234693	-2.966595
H	-4.17964	0.0	0.0
