18

C	0.0	0.0	0.0
C	-0.358502	0.012603	-1.50547
F	1.416318	0.0	0.0
H	-0.125749	-0.996224	-1.871575
C	-0.511578	1.208943	0.741726
H	-0.196531	2.124406	0.237739
H	-0.093996	1.210729	1.753047
H	-1.604251	1.16397	0.790615
N	-0.492257	-1.197632	0.571719
H	-0.597877	-1.139592	1.573601
H	0.078748	-1.990107	0.311546
C	0.524293	0.935043	-2.230677
N	1.189164	1.704034	-2.819588
C	-1.825695	0.344376	-1.794459
H	-2.537644	-0.095563	-1.075039
H	-2.087696	0.011297	-2.802365
H	-1.989168	1.423107	-1.746196
H	-4.241411	0.0	0.0
