18

C	0.0	0.0	0.0
C	-0.482622	0.036737	-1.464338
F	1.39543	0.0	0.0
H	-1.588682	-0.011745	-1.342948
C	-0.446982	1.238768	0.747309
H	-0.153743	1.11802	1.791842
H	-1.538447	1.302051	0.673131
H	0.03355	2.131816	0.342628
N	-0.481974	-1.152117	0.704465
H	-1.509096	-1.024319	0.709447
H	-0.288126	-1.983885	0.152644
C	-0.029826	-1.166251	-2.157783
N	0.33752	-2.12749	-2.726454
C	-0.071922	1.282134	-2.252378
H	-0.350937	1.181585	-3.304296
H	1.007722	1.440945	-2.191544
H	-0.585213	2.157696	-1.852891
H	-3.112249	0.0	0.0
