18

C	0.0	0.0	0.0
C	-0.569685	-0.049433	-1.415029
F	1.418611	0.0	0.0
H	-1.673127	-0.12514	-1.206609
C	-0.502172	1.207677	0.747907
H	-1.601868	1.16386	0.700958
H	-0.116174	2.129926	0.310142
H	-0.165625	1.156732	1.788327
N	-0.404558	-1.1934	0.674846
H	0.090809	-1.987908	0.288048
H	-0.196649	-1.121585	1.661831
C	-0.11468	-1.260945	-2.090246
N	0.262414	-2.226672	-2.645146
C	-0.252936	1.182597	-2.262839
H	-0.566463	1.02331	-3.297104
H	0.81827	1.402149	-2.253013
H	-0.803071	2.042603	-1.877916
H	-3.320838	0.0	0.0
