18

C	0.0	0.0	0.0
C	-0.313782	2.6e-05	-1.516706
F	1.416398	0.0	0.0
H	0.10039	-0.94624	-1.889903
C	-0.561424	1.192698	0.726258
H	-0.184223	1.203806	1.753428
H	-0.260635	2.119368	0.234564
H	-1.655589	1.110121	0.734924
N	-0.473388	-1.215223	0.559829
H	-0.660925	-1.146291	1.548981
H	0.162783	-1.975167	0.362993
C	0.439123	1.072514	-2.178162
N	1.002386	1.953962	-2.713008
C	-1.798765	0.08906	-1.862712
H	-1.948626	-0.18762	-2.911511
H	-2.417437	-0.534509	-1.209992
H	-2.185353	1.096931	-1.713702
H	-4.213573	0.0	0.0
