18

C	0.0	0.0	0.0
C	-0.479326	0.003043	-1.466797
F	1.395394	0.0	0.0
H	-1.585462	-0.043317	-1.347358
C	-0.447631	1.256258	0.717088
H	-0.15809	1.160264	1.76522
H	0.034691	2.139068	0.292723
H	-1.538881	1.318626	0.638391
N	-0.484864	-1.133461	0.731159
H	-1.512125	-1.002657	0.73113
H	-0.295203	-1.978875	0.199021
C	-0.022885	-1.215091	-2.131319
N	0.34704	-2.188211	-2.677573
C	-0.066814	1.23045	-2.281939
H	1.013257	1.388471	-2.226219
H	-0.577793	2.115733	-1.90098
H	-0.347484	1.107721	-3.331042
H	-3.111775	0.0	0.0
