18

C	0.0	0.0	0.0
C	-0.574109	-0.046572	-1.414108
F	1.418594	0.0	0.0
H	-1.676506	-0.12494	-1.202436
C	-0.498973	1.206869	0.752303
H	-1.597884	1.162698	0.712027
H	-0.117355	2.130323	0.314434
H	-0.155771	1.154296	1.790408
N	-0.402881	-1.19495	0.673436
H	0.080173	-1.991334	0.273966
H	-0.177395	-1.129843	1.657084
C	-0.11729	-1.254108	-2.093767
N	0.263619	-2.218504	-2.647715
C	-0.267025	1.18944	-2.258584
H	-0.818355	2.04575	-1.867112
H	-0.586527	1.032598	-3.291469
H	0.803379	1.412782	-2.253766
H	-3.336262	0.0	0.0
