17

C	0.0	0.0	0.0
C	-0.66477	0.022567	-1.36846
Cl	1.794578	0.0	0.0
H	-1.788775	0.052255	-1.005459
C	-0.462222	1.197049	0.822532
H	-0.054553	1.147148	1.834164
H	-1.560277	1.143735	0.839332
H	-0.124434	2.116921	0.340348
C	-0.371643	-1.247742	0.690014
N	-0.546412	-2.26304	1.255649
C	-0.431125	-1.222013	-2.215429
H	-0.920978	-1.107472	-3.185231
H	-0.873631	-2.086132	-1.713837
H	0.633938	-1.410413	-2.382298
C	-0.333237	1.236889	-2.084117
N	-0.097963	2.215446	-2.696014
H	-2.99593	0.0	0.0
