17

C	0.0	0.0	0.0
C	-0.651253	0.027812	-1.37686
Cl	1.794768	0.0	0.0
H	-1.770876	0.060915	-1.037331
C	-0.466469	1.194602	0.822982
H	-0.064951	1.1407	1.836876
H	-0.125087	2.115968	0.346217
H	-1.56486	1.140436	0.832813
C	-0.375001	-1.250691	0.680884
N	-0.550318	-2.27013	1.23891
C	-0.406997	-1.214681	-2.224002
H	-0.879554	-1.095678	-3.20188
H	-0.859799	-2.07936	-1.732649
H	0.660103	-1.404789	-2.373111
C	-0.302225	1.24198	-2.086999
N	-0.044149	2.215091	-2.697659
H	-3.012671	0.0	0.0
