17

C	0.0	0.0	0.0
C	-0.650758	0.024269	-1.376912
Cl	1.794891	0.0	0.0
H	-1.771817	0.054714	-1.035333
C	-0.466796	1.195926	0.820272
H	-0.125419	2.116418	0.341893
H	-0.066081	1.144126	1.834647
H	-1.565163	1.141255	0.829375
C	-0.374852	-1.249698	0.683686
N	-0.548517	-2.268299	1.243964
C	-0.40006	-1.21832	-2.222906
H	-0.875389	-1.103997	-3.199859
H	0.668188	-1.400772	-2.373866
H	-0.845579	-2.085149	-1.729269
C	-0.305477	1.238958	-2.087926
N	-0.050304	2.213101	-2.698447
H	-3.005841	0.0	0.0
