17

C	0.0	0.0	0.0
C	-0.674443	0.020177	-1.365525
Cl	1.794811	0.0	0.0
H	-1.795427	0.050673	-0.995556
C	-0.459993	1.197934	0.822963
H	-1.557858	1.146653	0.84304
H	-0.123031	2.117004	0.33997
H	-0.050765	1.147663	1.834096
C	-0.369923	-1.247732	0.692941
N	-0.548391	-2.263966	1.257568
C	-0.451116	-1.227278	-2.212494
H	-0.946907	-1.111956	-3.179345
H	-0.895512	-2.087153	-1.706598
H	0.612193	-1.421162	-2.384967
C	-0.352065	1.233625	-2.085186
N	-0.123816	2.21506	-2.695276
H	-3.007665	0.0	0.0
