17

C	0.0	0.0	0.0
C	-0.25434	0.028554	-1.560843
Cl	1.798715	0.0	0.0
H	0.418179	-0.745515	-1.964513
C	-0.259495	1.32859	0.738774
H	0.290596	2.139267	0.262583
H	-1.319824	1.552865	0.756551
H	0.117734	1.215171	1.760524
C	-0.82301	-1.085394	0.572012
N	-0.826381	-2.169845	1.091465
C	0.106167	1.356645	-2.250416
H	-0.559755	2.154474	-1.919617
H	1.144284	1.633294	-2.041532
H	-0.006043	1.258598	-3.334092
C	-1.602266	-0.354863	-2.015051
N	-2.609659	-0.740424	-2.490224
H	-2.061778	0.0	0.0
