17

C	0.0	0.0	0.0
C	-0.655898	0.025524	-1.373691
Cl	1.794817	0.0	0.0
H	-1.776383	0.058108	-1.026175
C	-0.464325	1.196009	0.822606
H	-1.562713	1.142508	0.835105
H	-0.060457	1.143401	1.835633
H	-0.123899	2.116497	0.343571
C	-0.373201	-1.249428	0.684759
N	-0.548403	-2.267533	1.24499
C	-0.416469	-1.218412	-2.21982
H	0.649758	-1.411031	-2.372304
H	-0.869138	-2.081565	-1.725645
H	-0.892083	-1.100163	-3.196171
C	-0.313216	1.23939	-2.086734
N	-0.061969	2.21364	-2.698785
H	-3.007406	0.0	0.0
