17

C	0.0	0.0	0.0
C	-0.659514	0.02896	-1.371383
Cl	1.794826	0.0	0.0
H	-1.782429	0.055376	-1.01636
C	-0.463761	1.193036	0.827066
H	-0.124036	2.11517	0.350904
H	-0.059134	1.137389	1.839674
H	-1.561856	1.139677	0.840483
C	-0.372586	-1.251397	0.682188
N	-0.54731	-2.269795	1.24239
C	-0.416339	-1.20994	-2.224223
H	-0.89977	-1.091428	-3.196777
H	-0.858796	-2.078551	-1.730652
H	0.650463	-1.393259	-2.384874
C	-0.326822	1.247942	-2.079318
N	-0.087344	2.227862	-2.687161
H	-3.000337	0.0	0.0
