17

C	-0.446935	0.005352	-1.456998
C	0.0	0.0	0.0
F	0.058799	-1.147899	-2.030917
H	1.095745	0.0	0.0
C	-1.926363	0.070252	-1.693968
H	-2.38946	-0.718346	-1.10142
H	-2.147553	-0.060914	-2.751723
H	-2.311199	1.037057	-1.366073
N	0.248897	1.143449	-2.217062
O	1.354841	1.486726	-1.826481
O	-0.314474	1.584085	-3.216857
N	-0.610329	-1.164553	0.650234
H	-0.126386	-1.992047	0.318799
H	-0.450999	-1.101874	1.649181
C	-0.48964	1.22329	0.615373
N	-0.792635	2.214737	1.184598
Br	2.742645	0.0	0.0
