17

C	-0.362927	0.020856	-1.478327
C	0.0	0.0	0.0
F	0.121609	1.173304	-2.027233
H	1.095597	0.0	0.0
C	0.159919	-1.173415	-2.229383
H	-0.05844	-1.050691	-3.291733
H	1.239705	-1.214357	-2.064363
H	-0.296219	-2.081946	-1.840089
N	-1.876835	0.105763	-1.685555
O	-2.259154	0.555833	-2.759404
O	-2.608458	-0.313606	-0.788586
N	-0.386288	-1.245178	0.644816
H	0.281945	-1.435675	1.381863
H	-1.320066	-1.185879	1.026987
C	-0.486219	1.218047	0.664726
N	-0.873526	2.182537	1.212671
Br	3.425164	0.0	0.0
