17

C	-0.509685	0.041295	-1.436826
C	0.0	0.0	0.0
F	-1.869644	0.242713	-1.434953
H	1.092866	0.0	0.0
C	0.17472	1.069556	-2.297217
H	-0.076932	2.062144	-1.919657
H	-0.177155	0.983525	-3.327904
H	1.25422	0.923616	-2.2454
N	-0.29246	-1.339598	-2.033993
O	-1.280316	-2.020491	-2.280368
O	0.875306	-1.647691	-2.228838
N	-0.452934	-1.207118	0.669616
H	-1.377874	-1.090716	1.062986
H	0.203683	-1.436907	1.404898
C	-0.437021	1.241597	0.663177
N	-0.813481	2.19385	1.240039
Br	3.4354	0.0	0.0
