17

C	-0.466704	0.059915	-1.462044
C	0.0	0.0	0.0
F	0.171721	-0.955441	-2.135193
H	1.095711	0.0	0.0
C	-1.944252	-0.059306	-1.678755
H	-2.464304	0.779582	-1.218741
H	-2.260222	-0.990261	-1.215195
H	-2.158156	-0.070705	-2.747129
N	0.062313	1.354612	-2.087636
O	-0.694098	1.965835	-2.844813
O	1.217174	1.659209	-1.817855
N	-0.452023	-1.285284	0.576384
H	-0.367255	-1.196605	1.584961
H	0.271385	-1.949837	0.310218
C	-0.585706	1.128124	0.709645
N	-1.148753	2.011413	1.242005
Br	3.495448	0.0	0.0
