17

C	-0.504989	0.070979	-1.436664
C	0.0	0.0	0.0
F	-1.868176	0.255607	-1.429889
H	1.092846	0.0	0.0
C	0.163561	1.132041	-2.268508
H	-0.186289	1.067699	-3.301694
H	1.246082	1.000232	-2.218688
H	-0.103614	2.111666	-1.865607
N	-0.267353	-1.292614	-2.067399
O	0.905623	-1.58326	-2.259544
O	-1.246471	-1.977434	-2.338932
N	-0.456994	-1.22114	0.640741
H	0.185876	-1.459928	1.386128
H	-1.391062	-1.11584	1.01767
C	-0.438257	1.227485	0.689047
N	-0.813303	2.169058	1.284264
Br	3.444802	0.0	0.0
