17

C	-0.504126	-0.158845	-1.437303
C	0.0	0.0	0.0
F	-0.121981	-1.397126	-1.863512
H	1.099452	0.0	0.0
C	-1.994072	-0.008098	-1.615128
H	-2.303002	1.012613	-1.390727
H	-2.481169	-0.702168	-0.930777
H	-2.256502	-0.254618	-2.6463
N	0.18297	0.846881	-2.344892
O	0.0632	2.020255	-2.002806
O	0.727443	0.432308	-3.358759
N	-0.506915	-1.171636	0.749233
H	-0.38296	-0.972236	1.736458
H	0.137298	-1.927569	0.536911
C	-0.516643	1.21056	0.630916
N	-0.969013	2.122789	1.215835
Br	3.428439	0.0	0.0
