17

C	-0.364487	0.031678	-1.475088
C	0.0	0.0	0.0
F	-0.029244	1.257995	-1.988769
H	1.095587	0.0	0.0
C	0.30371	-1.059655	-2.263252
H	0.077784	-0.928264	-3.321399
H	-0.045806	-2.030557	-1.914483
H	1.379883	-0.979224	-2.085238
N	-1.882492	-0.048645	-1.681697
O	-2.608049	-0.16331	-0.696142
O	-2.273648	0.027281	-2.842762
N	-0.400839	-1.260296	0.609045
H	-1.317239	-1.179653	1.028374
H	0.284057	-1.50446	1.313365
C	-0.475286	1.199643	0.70077
N	-0.906102	2.114474	1.298268
Br	3.447593	0.0	0.0
