17

C	-0.436919	0.086449	-1.471275
C	0.0	0.0	0.0
F	-1.793955	0.302259	-1.53956
H	1.093318	0.0	0.0
C	0.308981	1.122875	-2.263817
H	0.057381	2.106554	-1.863835
H	1.38217	0.955749	-2.158841
H	0.013168	1.078536	-3.314813
N	-0.220675	-1.291243	-2.078643
O	0.917872	-1.552993	-2.452165
O	-1.186866	-2.051005	-2.109102
N	-0.470883	-1.160745	0.730857
H	0.206266	-1.905546	0.631758
H	-1.373304	-1.470756	0.393307
C	-0.460089	1.234565	0.651424
N	-0.834774	2.226377	1.156507
Br	3.443411	0.0	0.0
