17

C	-0.375879	0.020393	-1.483099
C	0.0	0.0	0.0
F	-0.014138	1.230082	-1.995408
H	1.095778	0.0	0.0
C	0.270764	-1.09203	-2.257563
H	-0.00257	-1.013011	-3.312654
H	-0.040587	-2.052013	-1.855116
H	1.351588	-0.978254	-2.138009
N	-1.897596	-0.043123	-1.609574
O	-2.412705	-1.154833	-1.495393
O	-2.504339	1.01033	-1.76965
N	-0.39847	-1.245163	0.636055
H	0.225821	-1.417587	1.414845
H	-1.352512	-1.206867	0.974593
C	-0.498067	1.207512	0.674329
N	-0.899502	2.124333	1.290448
Br	3.430976	0.0	0.0
