13

C	-0.073391	0.009312	0.010452
C	-0.493123	0.179471	-1.419817
F	1.295726	-0.146584	0.096815
H	-1.587554	0.237012	-1.437881
H	-0.580757	-0.805919	0.513374
H	-0.0258	1.041444	-1.886263
N	-0.360269	1.259468	0.798558
O	-0.497792	2.316253	0.186522
O	-0.334427	1.13133	2.017371
N	-0.091942	-1.01416	-2.210839
O	0.123948	-0.830184	-3.408128
O	-0.036972	-2.101664	-1.642969
Cl	-3.293021	-0.313611	0.09901
