13

C	-0.076086	0.005705	0.008813
C	-0.497162	0.566042	-1.317599
F	1.292403	-0.173461	0.045065
H	-0.026476	1.521328	-1.529371
H	-0.586407	-0.914748	0.268229
H	-1.591313	0.63081	-1.316241
N	-0.356157	0.990512	1.112425
O	-0.330522	0.530373	2.248281
O	-0.487488	2.1761	0.816619
N	-0.102544	-0.364396	-2.40856
O	0.113949	0.142281	-3.508721
O	-0.052984	-1.56673	-2.163449
Cl	-3.297043	-0.316218	0.012326
