16

C	-0.312254	0.06001	-1.484077
C	0.0	0.0	0.0
Cl	-2.094477	0.253895	-1.790087
H	1.09573	0.0	0.0
H	-0.078568	-0.906531	-1.93159
N	0.394037	1.184146	-2.040859
H	1.36051	1.127882	-1.71725
H	0.393213	1.116816	-3.051141
N	-0.437742	-1.316454	0.552566
O	-0.986981	-1.332	1.654807
O	-0.19684	-2.321764	-0.114835
C	-0.521721	1.158073	0.814829
H	-0.074623	1.142652	1.808187
H	-0.230365	2.078827	0.308412
H	-1.607045	1.128241	0.912065
Cl	3.292412	0.0	0.0
