16

C	-0.297812	0.032493	-1.496533
C	0.0	0.0	0.0
Cl	-2.068261	0.240905	-1.79399
H	1.098268	0.0	0.0
H	-0.041262	-0.938074	-1.914985
N	0.431982	1.048238	-2.212891
H	0.239894	1.955986	-1.803708
H	1.422202	0.855835	-2.05826
N	-0.44849	-1.301795	0.580448
O	-0.977635	-1.296137	1.692814
O	-0.241045	-2.318627	-0.080392
C	-0.509393	1.165713	0.813689
H	-0.085822	1.125263	1.816141
H	-0.173545	2.096323	0.351171
H	-1.596992	1.17183	0.886535
Cl	3.294912	0.0	0.0
