16

C	-0.431747	0.003275	-1.453242
C	0.0	0.0	0.0
Cl	-2.283078	-0.355774	-1.533026
H	1.093638	0.0	0.0
H	0.001592	-0.851265	-1.96487
N	-0.092929	1.202395	-2.098446
H	-0.24968	1.152555	-3.094318
H	-0.573979	2.001599	-1.711566
N	-0.386506	-1.318745	0.596754
O	-0.915733	-1.334116	1.707712
O	-0.119263	-2.320805	-0.061956
C	-0.509818	1.157599	0.825128
H	-1.599327	1.225403	0.813862
H	-0.067039	2.07818	0.439209
H	-0.17504	1.045605	1.854496
Cl	3.323443	0.0	0.0
