16

C	-0.43915	-0.002921	-1.450527
C	0.0	0.0	0.0
Cl	-2.293216	-0.36056	-1.517107
H	1.093697	0.0	0.0
H	-0.010942	-0.860436	-1.96135
N	-0.104298	1.193282	-2.10387
H	-0.581076	1.994533	-1.71518
H	-0.272777	1.139709	-3.097758
N	-0.383344	-1.315916	0.606554
O	-0.135266	-2.321428	-0.054594
O	-0.888043	-1.324948	1.728366
C	-0.506473	1.160538	0.823111
H	-0.069094	2.080451	0.42948
H	-0.163108	1.054787	1.850167
H	-1.59618	1.226018	0.81937
Cl	3.320744	0.0	0.0
