15

C	-0.383773	-0.053668	-1.461279
C	0.0	0.0	0.0
F	-0.179636	1.160663	-2.046385
H	1.093455	0.0	0.0
H	-0.319061	-0.922876	0.48967
C	0.386666	-1.113381	-2.206619
H	0.160604	-1.050213	-3.273778
H	1.447878	-0.92309	-2.016284
H	0.127653	-2.10268	-1.83109
N	-1.885914	-0.333658	-1.604784
O	-2.27121	-1.405447	-1.141254
O	-2.593306	0.499354	-2.160094
C	-0.563717	1.147901	0.685629
N	-1.011348	2.070727	1.258956
H	2.752817	0.0	0.0
