15

C	-0.388999	-0.024732	-1.46067
C	0.0	0.0	0.0
F	-0.158742	1.193442	-2.02701
H	1.093467	0.0	0.0
H	-0.321826	-0.930575	0.4736
C	0.355049	-1.089226	-2.22572
H	0.074399	-2.078672	-1.865157
H	0.126816	-1.005268	-3.290838
H	1.420178	-0.923866	-2.040246
N	-1.898339	-0.266347	-1.599071
O	-2.592132	0.604087	-2.112338
O	-2.304669	-1.344357	-1.168295
C	-0.55879	1.13634	0.709449
N	-1.003482	2.046288	1.30518
H	2.749907	0.0	0.0
