15

C	-0.510308	-0.001072	-1.428587
C	0.0	0.0	0.0
F	-0.254597	-1.22986	-1.970763
H	1.093229	0.0	0.0
H	-0.302286	-0.958187	0.435377
C	-1.973618	0.321225	-1.633838
H	-2.199356	1.319819	-1.262796
H	-2.574074	-0.409997	-1.08934
H	-2.210818	0.256617	-2.699162
N	0.270679	1.013871	-2.258466
O	0.261642	2.157293	-1.815924
O	0.763737	0.644661	-3.31483
C	-0.540014	1.075373	0.809181
N	-0.963783	1.934531	1.490757
H	2.709234	0.0	0.0
