15

C	-0.461058	0.127477	-1.434496
C	0.0	0.0	0.0
F	-1.793285	0.482935	-1.508074
H	1.091016	0.0	0.0
H	-0.288427	0.929589	0.502634
C	0.382538	1.114954	-2.193935
H	0.183089	2.108783	-1.787248
H	0.124566	1.10344	-3.254691
H	1.437123	0.875494	-2.036381
N	-0.37568	-1.236196	-2.113161
O	0.717951	-1.555669	-2.569894
O	-1.394486	-1.921334	-2.124926
C	-0.572852	-1.119671	0.723169
N	-1.00418	-2.018575	1.345664
H	2.73429	0.0	0.0
