15

C	-0.379195	0.032532	-1.457107
C	0.0	0.0	0.0
F	-1.75692	0.024036	-1.653187
H	1.09321	0.0	0.0
H	-0.36224	-0.9115	0.474926
C	0.250771	1.176788	-2.188196
H	-0.128687	2.105555	-1.760251
H	0.017995	1.133752	-3.249596
H	1.33017	1.122653	-2.020769
N	0.046409	-1.297482	-2.093584
O	-0.074651	-2.311523	-1.411968
O	0.387555	-1.276689	-3.274267
C	-0.506569	1.169033	0.691309
N	-0.891997	2.122578	1.260537
H	2.726101	0.0	0.0
