16

C	-0.288605	-0.127179	-1.51011
C	0.0	0.0	0.0
F	-1.657471	-0.30202	-1.718605
H	1.096353	0.0	0.0
C	0.119328	1.135619	-2.245351
H	1.175812	1.336346	-2.052482
H	-0.482645	1.990534	-1.931883
H	-0.031284	0.97962	-3.317889
N	0.374771	-1.328436	-1.934376
H	0.384008	-1.368677	-2.947824
H	1.340398	-1.30556	-1.609794
C	-0.507883	-1.152189	0.73994
N	-0.928049	-2.052213	1.36513
C	-0.518746	1.239748	0.563964
N	-0.934553	2.250142	0.994427
Cl	3.201295	0.0	0.0
