16

C	-0.343876	0.067773	-1.509376
C	0.0	0.0	0.0
F	-0.031038	-1.221912	-2.005866
H	1.097446	0.0	0.0
C	-1.808008	0.287521	-1.816222
H	-2.136848	1.252531	-1.430871
H	-2.405691	-0.511072	-1.373302
H	-1.954336	0.265064	-2.899625
N	0.482443	1.067609	-2.066251
H	0.388576	1.092841	-3.073679
H	1.456218	0.909491	-1.808774
C	-0.53757	-1.202471	0.62587
N	-1.0062	-2.156131	1.125272
C	-0.479476	1.192886	0.693065
N	-0.896345	2.140279	1.248048
Cl	3.223168	0.0	0.0
