16

C	-0.434042	-0.044747	-1.482018
C	0.0	0.0	0.0
F	0.063433	1.151912	-2.03737
H	1.095681	0.0	0.0
C	0.241248	-1.18751	-2.203334
H	0.023851	-1.113615	-3.272686
H	-0.1252	-2.143701	-1.827348
H	1.319267	-1.115292	-2.047293
N	-1.852031	-0.095033	-1.595984
H	-2.26296	0.733524	-1.178712
H	-2.113975	-0.124938	-2.57445
C	-0.472854	-1.188291	0.708009
N	-0.840953	-2.150433	1.271393
C	-0.515352	1.208587	0.639794
N	-0.961217	2.188882	1.108474
Cl	3.226979	0.0	0.0
