16

C	-0.44059	0.001818	-1.483467
C	0.0	0.0	0.0
F	-0.118151	1.25005	-1.992251
H	1.096313	0.0	0.0
C	0.358383	-1.022262	-2.26658
H	0.108623	-2.033438	-1.936696
H	0.110177	-0.925115	-3.327365
H	1.426485	-0.852993	-2.115668
N	-1.878759	-0.096734	-1.571856
H	-2.188024	-0.980926	-1.184658
H	-2.145208	-0.070649	-2.550967
C	-0.466771	-1.227816	0.640111
N	-0.860972	-2.239071	1.090128
C	-0.514941	1.171339	0.704826
N	-0.917671	2.113917	1.276762
Cl	3.235133	0.0	0.0
