16

C	-0.343921	0.067067	-1.509387
C	0.0	0.0	0.0
F	-0.030978	-1.222844	-2.00528
H	1.097516	0.0	0.0
C	-1.808068	0.286519	-1.81631
H	-2.137	1.251629	-1.431208
H	-2.405625	-0.512041	-1.373195
H	-1.954445	0.263704	-2.899673
N	0.482321	1.066786	-2.066595
H	0.388522	1.091552	-3.074034
H	1.456119	0.908912	-1.808958
C	-0.537607	-1.202181	0.626389
N	-1.006196	-2.155729	1.126089
C	-0.479413	1.193248	0.692443
N	-0.895508	2.140979	1.247439
Cl	3.223215	0.0	0.0
