16

C	-0.296075	-0.039439	-1.512457
C	0.0	0.0	0.0
F	-1.669474	-0.181346	-1.722832
H	1.096239	0.0	0.0
C	0.128656	1.255172	-2.179718
H	-0.449878	2.102365	-1.805954
H	-0.040902	1.165312	-3.256913
H	1.191826	1.423158	-1.991035
N	0.345725	-1.226384	-2.005677
H	0.346362	-1.215655	-3.019194
H	1.31239	-1.239432	-1.684324
C	-0.508352	-1.191269	0.675244
N	-0.92046	-2.129688	1.24763
C	-0.513406	1.206802	0.638116
N	-0.929067	2.187783	1.132258
Cl	3.208467	0.0	0.0
