9
Coordinates from ORCA-job run
  C   1.38373248287636      0.14394463111939     -0.05202048429130
  C   0.19656257652870     -0.13605371143871      0.49777083204968
  H   1.46699569866827      0.47104103350236     -1.08431814789227
  H   2.30464801118800      0.05384053035303      0.51313726973286
  H   0.16392772814922     -0.46060666540025      1.53711005781211
  C   -1.11786108112822     -0.03618525770611     -0.21620968777843
  H   -0.98229398640829      0.29639827024901     -1.24740613918338
  H   -1.62996295400890     -1.00267280150135     -0.23260923273135
  H   -1.78474847586515      0.67029397082262      0.28654553228208
