9
Coordinates from ORCA-job run
  C   1.35517120451754     -0.29336011090370     -0.12359828730707
  C   0.19693459344202     -0.07649026873429      0.51004003603157
  H   2.26252562196940     -0.53001537338209      0.42074335219492
  H   1.42756530167575     -0.23956214322639     -1.20592275918793
  H   0.17420009575822     -0.14169057817551      1.59717372052310
  C   -1.09729712633667      0.25491155830829     -0.17010096961157
  H   -1.48210807082280      1.22142497972303      0.16811312023802
  H   -0.97375185623446      0.29656731552683     -1.25424021257725
  H   -1.86323976396901     -0.49178537913617      0.05879199969621
