17

C	-0.457886	0.066519	-1.449487
C	0.0	0.0	0.0
F	-1.879291	-0.135651	-1.472283
H	1.094183	0.0	0.0
N	-0.234605	1.365028	-2.032503
H	-1.116764	1.811876	-2.223731
H	0.305908	1.240905	-2.872053
N	0.168417	-0.948567	-2.2445
H	-0.525228	-1.371307	-2.847457
H	0.595222	-1.654438	-1.66695
C	-0.454881	-1.251114	0.595119
N	-0.805392	-2.26144	1.085256
C	-0.452826	1.197194	0.830782
H	-0.027892	1.114691	1.833236
H	-1.53995	1.263917	0.910413
H	-0.059801	2.095567	0.361043
H	2.832873	0.0	0.0
