17

C	-0.310195	0.031613	-1.496093
C	0.0	0.0	0.0
F	-0.031679	-1.292681	-1.987626
H	1.095832	0.0	0.0
N	-1.686397	0.321129	-1.786467
H	-1.804672	0.392202	-2.792818
H	-2.238131	-0.469641	-1.465892
N	0.572077	0.96105	-2.109008
H	1.510226	0.785981	-1.726636
H	0.591173	0.799721	-3.112268
C	-0.554929	-1.185848	0.627249
N	-1.047121	-2.11889	1.147944
C	-0.450344	1.273167	0.715125
H	-1.537925	1.362938	0.75064
H	-0.042824	2.131255	0.178611
H	-0.047219	1.277225	1.731225
H	2.801728	0.0	0.0
