17

C	-0.302981	0.09809	-1.495011
C	0.0	0.0	0.0
F	-0.023191	-1.203503	-2.041972
H	1.09723	0.0	0.0
N	-1.673701	0.401238	-1.787429
H	-1.777975	0.505228	-2.791986
H	-2.231093	-0.397404	-1.502443
N	0.58222	1.051636	-2.059949
H	1.518004	0.865581	-1.677148
H	0.613779	0.928514	-3.066754
C	-0.552532	-1.213047	0.574197
N	-1.021125	-2.165288	1.081392
C	-0.453033	1.239635	0.768701
H	-0.06144	1.194557	1.788254
H	-0.036228	2.119419	0.277588
H	-1.540552	1.332574	0.796072
H	2.800638	0.0	0.0
