17

C	-0.508391	0.055568	-1.434595
C	0.0	0.0	0.0
F	-1.953523	-0.014188	-1.365924
H	1.094368	0.0	0.0
N	-0.210827	1.310134	-2.065863
H	0.261782	1.146623	-2.941146
H	-1.053407	1.851009	-2.188563
N	-0.021658	-1.024444	-2.21625
H	-0.704808	-1.258151	-2.9249
H	0.179544	-1.837339	-1.651129
C	-0.465239	-1.227974	0.633283
N	-0.822871	-2.228005	1.138628
C	-0.42287	1.224933	0.806672
H	-1.50946	1.324371	0.878251
H	-0.000169	1.154374	1.81066
H	0.001025	2.105344	0.322275
H	2.79526	0.0	0.0
