17

C	-0.304176	0.039683	-1.497713
C	0.0	0.0	0.0
F	-0.030326	-1.283125	-1.993517
H	1.095818	0.0	0.0
N	-1.673638	0.33777	-1.798222
H	-1.777453	0.430643	-2.803277
H	-2.232968	-0.454797	-1.501416
N	0.584121	0.966657	-2.100869
H	0.620454	0.793856	-3.099607
H	1.517564	0.797021	-1.706796
C	-0.555908	-1.188724	0.619487
N	-1.047044	-2.121749	1.140545
C	-0.451828	1.269155	0.719333
H	-0.057121	1.265847	1.738792
H	-0.037568	2.129195	0.192244
H	-1.539408	1.361861	0.745935
H	2.804119	0.0	0.0
