17

C	-0.312324	-0.055294	-1.495779
C	0.0	0.0	0.0
F	-4.8e-05	1.26357	-2.001498
H	1.096994	0.0	0.0
N	0.543668	-1.012699	-2.091215
H	0.579525	-0.862148	-3.093112
H	1.484275	-0.876217	-1.702548
N	-1.691067	-0.309944	-1.799067
H	-2.221979	0.528716	-1.590522
H	-1.784586	-0.503031	-2.789008
C	-0.467676	-1.213316	0.653392
N	-0.837101	-2.152337	1.256234
C	-0.511344	1.243308	0.717424
H	-0.104795	2.129062	0.230369
H	-0.158504	1.228426	1.751421
H	-1.605416	1.300426	0.729933
H	2.814545	0.0	0.0
