17

C	-0.27472	0.137833	-1.503612
C	0.0	0.0	0.0
F	-1.584838	-0.352379	-1.787146
H	1.094198	0.0	0.0
N	-0.160438	1.490621	-1.913015
H	-0.909101	2.046857	-1.522308
H	-0.202573	1.507374	-2.924721
N	0.625895	-0.649827	-2.303307
H	1.55848	-0.520363	-1.886006
H	0.380782	-1.624718	-2.162483
C	-0.450855	-1.301778	0.464848
N	-0.808913	-2.347977	0.863328
C	-0.522058	1.124335	0.884621
H	-1.605528	1.259201	0.793274
H	-0.289882	0.909178	1.929349
H	-0.007156	2.04775	0.615232
H	2.788492	0.0	0.0
