17

C	-0.329614	0.002751	-1.497488
C	0.0	0.0	0.0
F	-1.650046	0.536688	-1.666963
H	1.093957	0.0	0.0
N	0.529594	0.877429	-2.253916
H	1.482672	0.708255	-1.911367
H	0.292383	1.830929	-2.00598
N	-0.234003	-1.292841	-2.046541
H	-0.861355	-1.940266	-1.589046
H	-0.416253	-1.241417	-3.039879
C	-0.525945	-1.168758	0.679572
N	-0.951785	-2.113415	1.237592
C	-0.430158	1.278829	0.715087
H	-1.515492	1.386679	0.759911
H	-0.006503	2.143458	0.199303
H	-0.019514	1.277143	1.727587
H	2.770613	0.0	0.0
