17

C	-0.318192	0.053779	-1.493367
C	0.0	0.0	0.0
F	-0.019627	-1.253713	-2.011034
H	1.095831	0.0	0.0
N	-1.699126	0.322642	-1.772565
H	-1.824694	0.398281	-2.776922
H	-2.234833	-0.479146	-1.455977
N	0.542408	1.009917	-2.092817
H	0.574897	0.849223	-3.092456
H	1.482489	0.851209	-1.71117
C	-0.54858	-1.198634	0.607773
N	-1.035008	-2.143994	1.110765
C	-0.451885	1.257367	0.739229
H	-0.048911	1.242147	1.755544
H	-1.539876	1.34434	0.776158
H	-0.046455	2.126955	0.221125
H	2.800095	0.0	0.0
