15

C	0.0	0.0	0.0
C	-0.451909	0.088176	-1.486016
Cl	1.755647	0.0	0.0
H	0.455866	-0.031157	-2.093221
H	-0.356977	-0.904783	0.470272
N	-0.418716	1.094414	0.938511
O	-0.610149	0.751815	2.098266
O	-0.394936	2.252779	0.53745
C	-1.147995	1.361731	-1.976359
H	-1.410864	1.214171	-3.028864
H	-2.041919	1.481121	-1.372801
H	-0.488718	2.224778	-1.894383
C	-1.267917	-1.090275	-1.798867
N	-1.734396	-2.072158	-2.246961
F	-2.361305	0.0	0.0
