15

C	0.0	0.0	0.0
C	-0.320299	-0.056277	-1.544333
Cl	1.757445	0.0	0.0
H	0.570389	0.352964	-2.033041
H	-0.415912	-0.814496	0.572314
N	-0.423221	1.270101	0.663006
O	-0.61391	1.213114	1.871084
O	-0.391437	2.301732	-0.005822
C	-1.514583	0.628033	-2.2223
H	-2.431196	0.152883	-1.898301
H	-1.549741	1.675837	-1.925981
H	-1.344009	0.563555	-3.305037
C	-0.313307	-1.481513	-1.885474
N	-0.281195	-2.615599	-2.192724
F	-2.349943	0.0	0.0
