15

C	0.0	0.0	0.0
C	-0.453011	-0.261686	-1.464748
Cl	1.755659	0.0	0.0
H	0.453736	-0.516327	-2.029229
H	-0.36068	-0.76743	0.669379
N	-0.421127	1.28443	0.651541
O	-0.386854	2.315654	-0.010576
O	-0.631274	1.222786	1.856245
C	-1.153257	0.859314	-2.236945
H	-0.48653	1.707642	-2.382079
H	-1.437083	0.460306	-3.21557
H	-2.034596	1.132957	-1.66713
C	-1.265737	-1.48185	-1.493925
N	-1.741845	-2.535388	-1.709612
F	-2.372388	0.0	0.0
