15

C	0.0	0.0	0.0
C	-0.456724	-0.032612	-1.47073
Cl	1.75542	0.0	0.0
H	0.183951	-0.78835	-1.92536
H	-0.343501	-0.880287	0.530625
N	-0.442022	1.16189	0.846997
O	-0.664239	0.916205	2.022653
O	-0.451268	2.270168	0.32894
C	-0.210828	1.230072	-2.312999
H	-0.818121	2.068973	-1.980911
H	-0.477196	0.979418	-3.343415
H	0.842531	1.525903	-2.28553
C	-1.850551	-0.509362	-1.689097
N	-2.577756	-1.030142	-2.474949
F	-2.438496	0.0	0.0
