15

C	0.0	0.0	0.0
C	-0.449669	-0.252479	-1.468306
Cl	1.757399	0.0	0.0
H	0.460123	-0.49819	-2.033675
H	-0.358255	-0.773527	0.663552
N	-0.420312	1.279985	0.661839
O	-0.397553	2.314708	0.004711
O	-0.611768	1.212598	1.869136
C	-1.155362	0.87172	-2.232914
H	-2.041599	1.131037	-1.662599
H	-1.429871	0.482309	-3.218996
H	-0.494235	1.727576	-2.364232
C	-1.250524	-1.480541	-1.502065
N	-1.698536	-2.55187	-1.685003
F	-2.36267	0.0	0.0
