17
Coordinates from ORCA-job run
  C   0.94419186483805      0.33881953817619      0.07109800169151
  C   -0.44158359196107     -0.29046614080320      0.29965534612568
  Br  0.87903787133381      1.71471849933308     -1.33862949835507
  H   -0.25518727645828     -1.05007815287401      1.07549327106879
  C   1.38547175272005      1.04342045471771      1.28734246563056
  N   1.77368658971905      1.52793501689134      2.28668341092010
  N   1.88653872884571     -0.66638304473287     -0.36764449423982
  H   1.94906377991740     -1.39210909102797      0.34058447191212
  H   2.80712367165110     -0.26051386724261     -0.49402216705444
  C   -0.96484583181889     -0.99568116543636     -0.94791030540570
  H   -1.83968953279730     -1.59518979945185     -0.68370544767704
  H   -1.27124725648534     -0.26716059199728     -1.70115328328390
  H   -0.21041621742437     -1.64784710846029     -1.38667076428555
  C   -1.45907787078654      0.70161250366288      0.85278041527092
  H   -2.39294817669705      0.17890795453257      1.07270048546162
  H   -1.11577534055940      1.17682351387449      1.77417171470629
  H   -1.67534316403692      1.48219148083820      0.12022637751395
