17
Coordinates from ORCA-job run
  C   0.96981801460168      0.42877081729809     -0.02464823463679
  C   -0.56623063214333      0.34239278741212     -0.10618361090911
  Br  1.69966755633248      1.20983846288506     -1.68178430791860
  H   -0.91538857510939      1.36481379689330     -0.29081634608153
  C   1.36159184392535      1.37366736323205      1.03698333789868
  N   1.66646608558417      2.07207775630877      1.93337589758720
  N   1.56400867240682     -0.88048407427216      0.12498231588055
  H   2.57514203566445     -0.80817259088119      0.14457552310429
  H   1.25921025977993     -1.28724282176800      1.00369389315342
  C   -1.14483761590057     -0.12793298026195      1.23262370656520
  H   -0.91102179071749     -1.17969766970012      1.42167051944700
  H   -0.79314513417346      0.47136083815229      2.07544493738966
  H   -2.23367925430046     -0.04641504039922      1.20057651262537
  C   -1.03720227976820     -0.56232039450947     -1.24052666875203
  H   -0.70460573222048     -0.19988568744585     -2.21312595288491
  H   -2.12969833970276     -0.59379256745830     -1.24622018714050
  H   -0.66009511425876     -1.57697799548544     -1.10662133532793
