17
Coordinates from ORCA-job run
  C   0.93389518699244      0.47122722714597     -0.10017075574664
  C   -0.59396078234585      0.27509975621102     -0.12503317262501
  Br  1.57172955560445      1.10407433983974     -1.85455879384841
  H   -1.01716948211770      1.24586317236278     -0.40755329854487
  C   1.28122207994549      1.55489792670703      0.83757064293672
  N   1.55515118717006      2.36834417542155      1.64209964451505
  N   1.62016418558598     -0.77040134999990      0.17848880002515
  H   1.36947006341267     -1.08863839690880      1.10930202660511
  H   2.62405076808699     -0.63048170542665      0.15325210051142
  C   -1.10654036613033     -0.08356924685886      1.27395316666981
  H   -0.77497137616965      0.62479894369329      2.03652258069292
  H   -2.19880444645697     -0.07553662233594      1.26822576786553
  H   -0.79787572193852     -1.09158658819945      1.56570675854052
  C   -1.02798580359735     -0.77735949157730     -1.14039953888139
  H   -0.75461112148092     -0.49679594498013     -2.15747267808503
  H   -0.56937863385383     -1.74118560626867     -0.91614502138340
  H   -2.11438529270696     -0.88975058882569     -1.10078822924748
