17
Coordinates from ORCA-job run
  C   0.97500458190152      0.25324088285007      0.26661004223647
  C   -0.46720213983900     -0.27967270722294      0.33706253565018
  Br  1.04403274300626      1.81910305501821     -1.05055236717080
  H   -0.40930965693795     -1.02559910500192      1.14132305736312
  C   1.36254257413263      0.85721216719445      1.54251198049565
  N   1.67202226419952      1.30631463608207      2.58352291451747
  N   1.90078503327009     -0.76301157594097     -0.06753549810746
  H   1.71841255926271     -1.13987140869857     -0.98848657184688
  H   2.85736287714312     -0.43380139837859     -0.02470366356289
  C   -0.88698416360659     -0.99233553422944     -0.94528813518949
  H   -0.82752550062875     -0.32122336625975     -1.80524643082184
  H   -0.28643909240026     -1.88321535207228     -1.14212122173014
  H   -1.92354653326680     -1.32339101499945     -0.84990362923482
  C   -1.48135099050676      0.78586775487706      0.73907311872386
  H   -2.43312856628817      0.30353137608369      0.97481131940406
  H   -1.65145189438949      1.49536883877797     -0.07212885152432
  H   -1.16222409505207      1.34248275192041      1.62305140079782
