17
Coordinates from ORCA-job run
  C   0.99587076466582      0.40494344666560      0.15381003605804
  C   -0.39268734449809     -0.25754062722294      0.31978658319125
  Br  0.89843691679118      1.84791410859555     -1.19279132083239
  H   -0.21680648509620     -1.00796185158729      1.10613270402811
  C   1.38091690191045      1.03964906933845      1.42016496701124
  N   1.66536905595248      1.48783740909906      2.46865869103401
  N   2.08320020938678     -0.45854864476146     -0.25133129979187
  H   2.21113569036484     -1.19299889077296      0.43803601526402
  H   1.88600546671210     -0.87414116772803     -1.15324447450838
  C   -0.85139021029627     -0.98843421108146     -0.93781392396903
  H   -1.02043050613461     -0.28863779336724     -1.75874418265261
  H   -1.79438945188386     -1.50083553439325     -0.73370816002774
  H   -0.13713783814681     -1.74654186672745     -1.26572439968184
  C   -1.46545776159478      0.70625104821320      0.81850943947432
  H   -1.14861094279754      1.24447574200951      1.71423933232579
  H   -2.37111152053429      0.14759702306793      1.06757820391692
  H   -1.71991294480118      1.43697274065279      0.04844178916015
