17
Coordinates from ORCA-job run
  C   0.99873143573218      0.49832752881691      0.08237013933712
  C   -0.44628385504074      0.11130152750004     -0.30886889016876
  Br  1.31887454344246      2.37837226090250     -0.46757702081058
  H   -0.50812735025701      0.28386519933684     -1.39165650866913
  C   1.15159609729585      0.44594348346123      1.53910228167686
  N   1.22939270020622      0.34220410265898      2.70726010600021
  N   2.05580322845569     -0.27866254267414     -0.51505657313660
  H   2.10888285145980     -1.19784414705052     -0.09238653146037
  H   1.90424614241472     -0.36763212798896     -1.51357706302238
  C   -1.50904632475756      0.95133140016621      0.39352915700116
  H   -1.47297783884844      0.79604178731737      1.47546205031257
  H   -2.50089236703013      0.65123864141846      0.04668164843944
  H   -1.38947104889126      2.01562441304835      0.19315080147376
  C   -0.67857946075560     -1.37472837680561     -0.02608979976641
  H   -1.70040001246804     -1.64339743266679     -0.30343187933877
  H   -0.00591500621452     -2.01794585080650     -0.59577725235412
  H   -0.55683373474363     -1.59503986663438      1.03886533448600
