17
Coordinates from ORCA-job run
  C   0.98000437024928      0.54353259864778     -0.02212057542430
  C   -0.54708228667159      0.30215429639134     -0.12167143542696
  Br  1.60399410982016      1.31893749931471     -1.74125485882907
  H   -0.99088700232596      1.25487889353590     -0.43169663798816
  C   1.24862882083997      1.57110324782495      0.98917007866800
  N   1.41942045194030      2.37076803734375      1.83328684239654
  N   1.81497727051481     -0.59491911578403      0.25922574509426
  H   1.61392155173208     -1.35775185889872     -0.37479491557410
  H   1.70275108640923     -0.89738804890113      1.21958194828711
  C   -1.11012820354136     -0.07719963147796      1.24962810771130
  H   -0.92551092223648      0.69256607619491      2.00137297492892
  H   -0.68513911082274     -1.02089417733453      1.60363979049639
  H   -2.19102191807032     -0.21688333085957      1.17361197671780
  C   -0.90237556073644     -0.76581529666668     -1.15187076984240
  H   -0.56095050149053     -1.75485489028435     -0.83276806853031
  H   -1.98851779735658     -0.82163894909764     -1.25429430857418
  H   -0.48408435825383     -0.54859534994873     -2.13504589411085
