17
Coordinates from ORCA-job run
  C   0.99663386073550      0.29307257506465      0.16504210293520
  C   -0.44402381576488      0.09241262356173     -0.33677854010490
  Br  1.58066204699632      2.19374572563595     -0.31369289840273
  H   -0.40307561345465      0.25405110889808     -1.42247970041591
  C   1.05981796547919      0.25172679203443      1.62635102500740
  N   1.08010220923416      0.19062943812731      2.80001668684214
  N   1.88008422213870     -0.66734497799291     -0.38131109196015
  H   1.86322021719905     -0.63857249199188     -1.39385478447601
  H   2.83050397214140     -0.54430922362527     -0.05483473755499
  C   -1.43386977461464      1.07873701122491      0.27461584177494
  H   -2.43224386052731      0.87868327770580     -0.12108903127968
  H   -1.47672876520979      0.95993502102276      1.36089822585115
  H   -1.18112300818115      2.11399404666248      0.04906998380684
  C   -0.88769251118542     -1.34608946001990     -0.05473346158453
  H   -0.90094403475735     -1.54005316437404      1.02167495605093
  H   -0.23012879868451     -2.07779136772527     -0.52202888356997
  H   -1.90219431154460     -1.49182693420881     -0.43386569291973
