17
Coordinates from ORCA-job run
  C   0.93260057725005      0.46985689589123     -0.10749193640905
  C   -0.59297641888702      0.25901609028503     -0.14337206578589
  Br  1.58713658416764      1.03566984267378     -1.87911764625730
  H   -1.02068827869150      1.21346960918556     -0.47107963372106
  C   1.26008439191453      1.59432154385104      0.78817433182083
  N   1.51670224596736      2.44340814134355      1.56101372497513
  N   1.62590494414015     -0.75280482101816      0.23043741084755
  H   2.62875285243645     -0.60472659981944      0.21434396518762
  H   1.36353690215031     -1.03729952213720      1.16885667798414
  C   -1.12041770456480     -0.04658737214074      1.26262624386133
  H   -0.80882273916134     -1.03988610468244      1.59851581623522
  H   -2.21254988718448     -0.04669669698111      1.24355634717710
  H   -0.80287820991226      0.69390041665654      2.00022856276300
  C   -1.00450756885039     -0.83833874253464     -1.11990904044219
  H   -2.09005641428038     -0.96087376861569     -1.08748275722282
  H   -0.72247048695891     -0.59617010011222     -2.14444334079875
  H   -0.53835078953540     -1.78725881184510     -0.85185666021487
