17
Coordinates from ORCA-job run
  C   0.96051236497054      0.44218370350797      0.00520764601494
  C   -0.50266299752752      0.12282409039739     -0.33961309066945
  Br  1.40010025138552      2.27847489952352     -0.55380384641020
  H   -0.58429135142720      0.31621652715951     -1.41497905990974
  C   1.16328767415188      0.39887491003788      1.46405273847246
  N   1.31443303313200      0.27667814545772      2.62438040704912
  N   1.86440320870143     -0.42489913258739     -0.72516767637925
  H   2.82240621068880     -0.12386488317427     -0.58190168259531
  H   1.78126741550555     -1.37077348449509     -0.36655280760070
  C   -1.49204680193281      0.99846779684284      0.42324016418100
  H   -1.31106750773738      2.06114855833664      0.25955517968506
  H   -2.50777998545067      0.77540851168506      0.08846160079175
  H   -1.44346936943712      0.80056150926142      1.49762819821708
  C   -0.79520569606835     -1.35742006632687     -0.07828701001813
  H   -0.59110953398859     -1.62539731452410      0.96328331305835
  H   -1.85297449033658     -1.55527745748224     -0.26532622966707
  H   -0.22480242462949     -2.01320631361999     -0.73817784421992
