17
Coordinates from ORCA-job run
  C   0.97354869591254      0.26463517549729      0.25971392045961
  C   -0.46299197617829     -0.28247703255318      0.34276797486525
  Br  1.02228710136418      1.80945380763554     -1.08330997208715
  H   -0.39377215536458     -1.01584077734180      1.15761981853735
  C   1.35590496596346      0.89588623448477      1.52375780450542
  N   1.65008255620204      1.37126147685469      2.55764308992950
  N   1.90939881137162     -0.74673135169476     -0.05993822067751
  H   1.72918592322228     -1.14059348136746     -0.97412865048029
  H   2.86260347272116     -0.40712868244563     -0.02391757922553
  C   -0.87851065726456     -1.01822737048379     -0.92802799970254
  H   -1.91213978825552     -1.35667817931292     -0.82671353434133
  H   -0.82606318973836     -0.35933876095322     -1.79790836933721
  H   -0.27005292909969     -1.90647017189490     -1.11199226189041
  C   -1.48721139074550      0.77799895551285      0.73191999162243
  H   -1.17145292029829      1.35215433463806      1.60579727881142
  H   -1.66781913413439      1.47285398534022     -0.08970480696672
  H   -2.43299738567810      0.28924183808425      0.97842151597771
