17
Coordinates from ORCA-job run
  C   1.00249713266925      0.38615794944871      0.17316515474864
  C   -0.40214246754893     -0.24825136493987      0.31238017848524
  Br  0.96606725431712      1.81167516806118     -1.19513886261318
  H   -0.25937917714707     -0.99244774381747      1.11121531882063
  C   1.36623922850145      1.03243221697245      1.43995503960267
  N   1.63026957583425      1.49106869244104      2.48924313956755
  N   2.08330263073384     -0.50260662594473     -0.19135307630714
  H   1.89946040298432     -0.93250948138609     -1.08928030964726
  H   2.18543128452846     -1.22484813664426      0.51487027233896
  C   -0.84372759031999     -0.98538988369806     -0.94776004513881
  H   -0.13639711457847     -1.76071010195141     -1.24942204691957
  H   -1.80104225724071     -1.47747510497114     -0.76119748969960
  H   -0.97919175639427     -0.29247481550122     -1.78063251209988
  C   -1.46840981031030      0.74116767339434      0.77320539151613
  H   -1.16514859067954      1.28173124675377      1.67225710418547
  H   -2.39151887673259      0.20298273074833      1.00251641513635
  H   -1.68730986861682      1.46949758103444     -0.01002367197620
