16
Coordinates from ORCA-job run
  C   0.68040151820813     -0.72227959199204     -0.05042366120394
  C   -0.46489594886293      0.27044139047483     -0.33079347884702
  H   0.35694864170263     -1.48051760068781      0.66610475541529
  H   -0.10617418384656      0.94553334831899     -1.11362493032464
  N   1.81498078091614      0.01408658523229      0.60746024671023
  O   2.00507649619225     -0.21308157163284      1.79879858128558
  O   2.41072676260197      0.83155706259858     -0.08666238839077
  C   1.15601698152538     -1.34681799027814     -1.27882531506638
  N   1.54497443867072     -1.84096498260359     -2.26990012925777
  C   -0.81843134944573      1.07401072039429      0.91653439699753
  H   -1.67359746249093      1.71733410431015      0.69847959917088
  H   0.00331827530162      1.71134591914451      1.24970658115413
  H   -1.09013808076827      0.40822597454611      1.74174351572243
  N   -1.55262952206208     -0.52965947447304     -0.87444696964008
  H   -2.09736192501254      0.00222258531460     -1.53890895222045
  H   -2.17121542262980     -0.84143647866687     -0.13524185150503
