16
Coordinates from ORCA-job run
  C   0.87042387913110     -0.28266562892460     -0.40372270146345
  C   -0.59806589703899      0.14352069652767     -0.27396158819588
  H   1.29485479941027      0.06233712787314     -1.35385502227948
  H   -1.08549302751337     -0.16322470677223     -1.20702183832490
  N   0.95262422026426     -1.79711029678411     -0.47466416698426
  O   0.08354051895175     -2.34194792386865     -1.14865123518804
  O   1.88242464854875     -2.35194946420908      0.09372210850610
  C   1.68360543180852      0.20021379898275      0.70536589720035
  N   2.32324684629120      0.67637953085733      1.56682469565532
  C   -0.68966390511912      1.65437950073952     -0.12483813884820
  H   -0.16036149778286      2.17071049828720     -0.92908018049630
  H   -0.26377372467301      1.97075575869983      0.83000052388465
  H   -1.73683407027302      1.96437152563421     -0.15911117403146
  N   -1.14475549517528     -0.52827097508222      0.89529161079940
  H   -1.85137429676238      0.03865187163017      1.34397442736489
  H   -1.56039843006782     -1.41515131359093      0.64172678240126
