16
Coordinates from ORCA-job run
  C   0.90126382845851     -0.25893393931376     -0.39224899978512
  C   -0.59142733393796      0.09100140263678     -0.28256022022081
  H   1.34142485222438      0.18847542153142     -1.28826677659323
  H   -1.04488713419286     -0.29046639110016     -1.20155827283031
  N   1.02227568200365     -1.75353899969679     -0.58512345626776
  O   0.50076309448757     -2.17651781708116     -1.61038874288626
  O   1.60380859868732     -2.41028330344666      0.26601273657057
  C   1.63292763925086      0.16046278033193      0.79728734303716
  N   2.16300901059795      0.57925046725718      1.75782194380329
  C   -0.78212324766158      1.60255039674312     -0.19893237776541
  H   -1.84916810420142      1.83517567794595     -0.18048003572062
  H   -0.33680167301730      2.11897880368450     -1.05438252905206
  H   -0.33263992592261      2.00045234212042      0.71511217550361
  N   -1.13323676217043     -0.67745512920501      0.82626003613918
  H   -0.96372267228632     -0.20901656717682      1.70940821424224
  H   -2.13146585231978     -0.80113514523094      0.72203896182556
