16
Coordinates from ORCA-job run
  C   0.66453166508930     -0.71016443343250     -0.00053388954256
  C   -0.47692988383853      0.29270353278675     -0.25446346036084
  H   0.38486302693240     -1.39083854235449      0.80474285813069
  H   -0.12337752717867      0.98745383917493     -1.02967796217359
  N   1.88060126035658      0.04184912647587      0.46223765843681
  O   2.42938452599394      0.76156895357361     -0.36630356124061
  O   2.18401888258894     -0.07733160591165      1.64563596049247
  C   0.98678025603553     -1.44994948884243     -1.21582774571184
  N   1.18764777378998     -2.03658045438127     -2.21293564595485
  C   -0.79869990413211      1.06328296375856      1.01499280595797
  H   0.05453509257902      1.64461455549635      1.36727247220838
  H   -1.61513150441007      1.76420286591019      0.82265513337326
  H   -1.11138031883752      0.37606341599371      1.80473857998687
  N   -1.62538333918843     -0.50959425952567     -0.65573139242691
  H   -2.47525147796565      0.03230793778441     -0.56094953895680
  H   -1.54620852781473     -0.78958840650636     -1.62685227221846
