16
Coordinates from ORCA-job run
  C   0.60523772020161     -0.69253023970221      0.01115472265890
  C   -0.48328873578037      0.37002487824500     -0.30790057023944
  H   0.27639882838275     -1.34633909783204      0.82242301196768
  H   -0.06565735270960      1.00820086407429     -1.09302799828163
  N   1.84106305668264      0.00240026663695      0.51107775102997
  O   2.45337429425215      0.68057483099709     -0.30772331230392
  O   2.09247103035629     -0.11060914375843      1.70712145758991
  C   0.93100538114460     -1.47111075053894     -1.17731372345811
  N   1.12470658715139     -2.09008449828216     -2.15636078160280
  C   -0.78520344564672      1.20446479995006      0.92660748836264
  H   -1.57249092996491      1.91706275743799      0.67983393469459
  H   -1.13717000698165      0.57207884927254      1.74776486191861
  H   0.08827682872033      1.75749167662186      1.27508729401129
  N   -1.70108655978037     -0.22315906755454     -0.81750562516796
  H   -1.54542520849331     -0.72956299216953     -1.68056248933325
  H   -2.12121148753482     -0.84790313339793     -0.13967602184648
