16
Coordinates from ORCA-job run
  C   -0.33517000396371      0.29306960984941     -0.57583111740590
  C   0.89217567429795     -0.52997803201658     -0.16121988756981
  F   -0.01044953307946      0.82562915582954     -1.79873385069484
  H   1.02430073747306     -1.33134800509705     -0.89437004107392
  C   -0.75321900264690      1.38056347573500      0.36517807638544
  H   -1.10168923678316      0.97015258593215      1.31088500731685
  H   -1.56416805189177      1.94778932155950     -0.08893542351845
  H   0.09635457297573      2.04491978682882      0.53325200598333
  N   -1.47810624367448     -0.67592671749688     -0.88579616305908
  O   -2.60634621409988     -0.34653662434683     -0.54859103034916
  O   -1.16268812678991     -1.67807712936322     -1.51831186962245
  N   0.68943789524996     -1.22906462129667      1.16890137817814
  O   1.69671616248117     -1.52823877189891      1.79240006512419
  O   -0.47081436914946     -1.48641919659577      1.47006931722647
  C   2.07491215728341      0.31494663889944     -0.10053236209422
  N   3.00775358231742      1.02751852347806     -0.06936410482659
