16
Coordinates from ORCA-job run
  C   -0.27976705207008      0.38773206493128     -0.37251593329879
  C   0.62064445286772     -0.73659576476949      0.16015425407400
  F   0.46524203463037      1.25183576930625     -1.09631010720414
  H   0.00340145878049     -1.50169854283627      0.63099417938959
  C   -1.07826056804338      1.12308399361556      0.67168568282484
  H   -0.40694873980500      1.70588674902119      1.30258246567711
  H   -1.75924549660791      1.80860476635118      0.16375161181060
  H   -1.64772511194327      0.42943406404568      1.28832854015022
  N   -1.25626166119993     -0.29759677128872     -1.33148782979608
  O   -1.32402153352530      0.13296232395249     -2.47119382560343
  O   -1.90784640894145     -1.21129750035889     -0.83512617084568
  N   1.48940506153027     -0.15673480083686      1.25283028946251
  O   2.52419884664705      0.40171780969909      0.91305511904616
  O   1.03780305609984     -0.26303738037364      2.38903720575451
  C   1.44547076843114     -1.29866863594486     -0.89961438121848
  N   2.07591089314943     -1.77662814451398     -1.76717110022295
