16
Coordinates from ORCA-job run
  C   -0.35501433735280      0.32696144906952     -0.55055887424021
  C   0.83035166568420     -0.59292087792111     -0.23411105870741
  F   -0.10299352862608      0.79804594538471     -1.81596334937911
  H   0.87599573539003     -1.36193905797478     -1.00989612809257
  C   -0.59645915024759      1.47060198005769      0.38478082076479
  H   -1.38090750817464      2.10071117279978     -0.03025373413055
  H   -0.91105656675610      1.11286808876388      1.36277266326981
  H   0.31866435297031      2.05809181028897      0.47741546773182
  N   -1.59837943354613     -0.55077422152678     -0.71754513026618
  O   -2.66883395165102     -0.08669808881351     -0.35147026798559
  O   -1.41632999676626     -1.62500965572177     -1.28071737961254
  N   0.66635954354552     -1.34783160999222      1.07068197866474
  O   -0.44705126416536     -1.34566870469265      1.58242713330784
  O   1.66198295123355     -1.93089091171475      1.47369605243633
  C   2.07180521752560      0.16472198657522     -0.19270845446822
  N   3.05286627093676      0.80973069541782     -0.16854973929297
