16
Coordinates from ORCA-job run
  C   -0.36317334508922      0.26136375878602     -0.55800339066944
  C   0.94473667626485     -0.32869077479399     -0.02274588990450
  F   -0.38433400397089      0.09549900619357     -1.90521014357030
  H   1.73172441476715     -0.02117282681956     -0.72092641250437
  C   -0.54982662330767      1.72043947447850     -0.22164522567693
  H   -1.46243535264469      2.06275199335421     -0.71274919157278
  H   -0.63214623855911      1.86799769232503      0.85480343792133
  H   0.29376971033562      2.29752776190827     -0.60502201046045
  N   -1.54263792792960     -0.49970671708185      0.02708505160784
  O   -2.51696998492049     -0.64959110601697     -0.69014605006154
  O   -1.41582424213709     -0.82687828158631      1.20220778094267
  N   0.97526833966517     -1.85303537335771     -0.08182602193963
  O   1.88474082410420     -2.38401931302036      0.53757011661588
  O   0.13957618017435     -2.39493506492365     -0.79029465840002
  C   1.29445113336204      0.11506691341550      1.31795183909773
  N   1.60208043988537      0.53638285713932      2.36995076857453
