19
Coordinates from ORCA-job run
  C   0.62964482403512     -0.33631602373248     -0.12801682282594
  C   -0.76024673427217      0.17374322928300      0.28997532045616
  Cl  0.43089221079611     -1.45982016228181     -1.54293450493623
  H   -0.56978393348486      0.77540566633767      1.18988121552219
  C   1.27255894974271     -1.13635477635512      0.99345075104287
  H   1.44002509140497     -0.47826966863957      1.85252199776908
  H   0.62148761135604     -1.95051680814128      1.30369710638074
  H   2.23571057522744     -1.53653132056059      0.67045594827526
  C   1.54194130058264      0.79296337916981     -0.58071797099239
  H   2.54140407323557      0.40513399484083     -0.78682622865016
  H   1.61940050654173      1.54280712953845      0.21356594018701
  H   1.17507957876763      1.27627154349275     -1.48574558516730
  N   -1.58779266046399     -0.95246288684852      0.71862948950999
  H   -1.87120771317456     -1.48530898111056     -0.09680282440076
  H   -2.43092706849840     -0.59858740286113      1.15524462376728
  C   -1.43241325475897      1.07314804864789     -0.74816051657754
  H   -1.55271560217704      0.54488066219412     -1.69699895775007
  H   -2.42607611061956      1.35484959807029     -0.38957810826291
  H   -0.87598164424042      1.99496477895627     -0.93064087334727
