19
Coordinates from ORCA-job run
  C   0.57976421221508     -0.30899385720634     -0.11294732912035
  C   -0.82973008549655      0.24008373991176      0.22315452265543
  Cl  0.44389052710987     -1.44820958409694     -1.51689966690791
  H   -0.67093837386733      0.87443298809614      1.10697885137815
  C   1.15144820719688     -1.10725436808712      1.04950202565443
  H   0.52712851612841     -1.96713795343842      1.29285789948969
  H   2.14718032435589     -1.47968007328687      0.80210729946390
  H   1.23099418894194     -0.46467454161416      1.93259200034882
  C   1.54219810840056      0.79803701859874     -0.51653647419960
  H   1.57659071961745      1.55945239339707      0.26980261353831
  H   1.24234890032675      1.27266967736595     -1.44992820092069
  H   2.54835809218640      0.39560628256351     -0.65098112768194
  N   -1.82108573394957     -0.75652379587312      0.60449281829812
  H   -1.53451805176714     -1.26096450394157      1.43317762416974
  H   -1.93582013515489     -1.42868735731020     -0.14583526637829
  C   -1.42569734333273      1.11017661655503     -0.87709114812386
  H   -1.52747713108702      0.54538316615828     -1.80697951042074
  H   -0.82523512554531      1.99831062076070     -1.07735301029080
  H   -2.41939981627871      1.42797353144756     -0.56011392095240
