16

C	-0.317496	-0.017296	-1.474801
C	0.0	0.0	0.0
Cl	0.029239	-1.56211	-2.293686
H	1.102083	0.0	0.0
H	-0.354923	0.949616	0.402545
N	-1.803069	0.227153	-1.738704
O	-2.595142	-0.257093	-0.934307
O	-2.114827	0.870766	-2.738205
C	0.534384	1.062291	-2.110794
H	1.554413	0.862752	-1.763278
H	0.452037	1.043287	-3.195674
H	0.217661	2.04236	-1.743571
N	-0.574762	-1.032996	0.86763
O	-0.47692	-2.21386	0.544754
O	-1.074553	-0.644405	1.927507
F	2.569515	0.0	0.0
