16

C	-0.298202	0.307229	-1.453223
C	0.0	0.0	0.0
Cl	-0.173408	-1.257785	-2.329286
H	1.101809	0.0	0.0
H	-0.431016	-0.933736	0.345932
N	-1.749244	0.734183	-1.672171
O	-2.591676	0.237778	-0.93096
O	-1.983741	1.50768	-2.594702
C	0.684903	1.280795	-2.056236
H	1.666635	0.939893	-1.706109
H	0.492055	2.274663	-1.654265
H	0.611197	1.301497	-3.142647
N	-0.463688	1.0525	0.908399
O	-0.692891	2.178489	0.454561
O	-0.558318	0.757199	2.09893
F	2.568749	0.0	0.0
