16

C	-0.284613	0.605925	-1.36225
C	0.0	0.0	0.0
Cl	-0.2314	-0.752238	-2.538387
H	1.095353	0.0	0.0
H	-0.442152	-0.980825	0.13979
N	-1.713198	1.13335	-1.477901
O	-1.907618	2.092933	-2.217833
O	-2.58149	0.527988	-0.857735
C	0.740606	1.636945	-1.766566
H	0.584929	2.53819	-1.175197
H	0.668658	1.874145	-2.826751
H	1.708022	1.19772	-1.493258
N	-0.472496	0.847071	1.09975
O	-0.600329	2.060143	0.904071
O	-0.680432	0.297493	2.181242
F	2.577397	0.0	0.0
