16
Coordinates from ORCA-job run
  C   -0.38504380523341      0.13278694489703     -0.16701559378888
  C   0.85901422404161     -0.74349034889418     -0.16573023579881
  F   -0.48754104080844      0.65097964869007     -1.48078069338535
  H   0.67335403490219     -1.57909740383362     -0.85811891493395
  H   0.98649812864796     -1.16569127878206      0.83610377798505
  C   -1.63874596540950     -0.68161820211153      0.07688546921672
  H   -1.72255879343800     -1.48125939608962     -0.66229541522926
  H   -2.51988788130025     -0.04235117273977     -0.00697825239512
  H   -1.62475448989618     -1.12533294792409      1.07522853528339
  C   -0.26739904059938      1.31812733039615      0.76677944138151
  H   -1.13804388439295      1.96726306210122      0.65106500056917
  H   -0.21815488563102      0.98015183944174      1.80493520968904
  H   0.63823229599165      1.87933728923616      0.54293633568049
  N   2.04005508956901      0.04670557765901     -0.49817726699350
  H   2.86536881477154     -0.53828275757629     -0.46620121531408
  H   1.94060719878519      0.38177181552977     -1.44863618196642
