16
Coordinates from ORCA-job run
  C   -0.32823214665912      0.25317160620225     -0.14823301586639
  C   1.13450914596992     -0.15975836634751     -0.07462252840562
  F   -0.63098007710378      0.34725960423261     -1.52827012318306
  H   1.72945481732828      0.65870220671160     -0.50852805645241
  H   1.41756148198587     -0.25249621324260      0.97868478925469
  C   -1.26015731847451     -0.78542740642870      0.43800117942137
  H   -1.09547177727209     -0.87890632195860      1.51436527478521
  H   -1.07630059597928     -1.75350054960616     -0.02488463781663
  H   -2.29742395425411     -0.48932319054390      0.26715302200147
  C   -0.54656418128787      1.63248865666624      0.43857053031848
  H   0.09218463511356      2.36387923524232     -0.06133663960460
  H   -1.58687624882232      1.93450882730023      0.30204331254850
  H   -0.31978973032242      1.63950595116710      1.50735107458877
  N   1.33491832555836     -1.44726810547084     -0.73184124927837
  H   2.30439625239559     -1.72680873082679     -0.65218287277619
  H   1.12977137182393     -1.33602720309724     -1.71727005953522
