16
Coordinates from ORCA-job run
  C   -0.30874305039508      0.26930008234314     -0.16082887206989
  C   1.13114524618626     -0.19620721074327     -0.00099810083653
  F   -0.50988854706596      0.42170308798103     -1.55429865598781
  H   1.33543171973189     -0.33664975915513      1.06516353706246
  H   1.78137779134264      0.61615304245211     -0.36057888873862
  C   -1.31249076865961     -0.75639867029640      0.31998289385700
  H   -1.12805270678911     -1.71303820304856     -0.16587732872347
  H   -1.22625140217042     -0.89410131287796      1.40075350736309
  H   -2.32524317963454     -0.41841994386445      0.09004381797680
  C   -0.52381865609541      1.63414921045395      0.45992911741297
  H   0.17077048005231      2.36022129819468      0.03192457120630
  H   -0.37140202577221      1.59644983768175      1.54121219539866
  H   -1.54213227997095      1.97593519006109      0.26419871869553
  N   1.33637278376576     -1.46574173706016     -0.69125691648118
  H   2.28831255143486     -1.78124370652337     -0.55473623600712
  H   1.20561204403957     -1.31211120559844     -1.68363336012818
