16
Coordinates from ORCA-job run
  C   -0.42231919379414      0.25652497356757     -0.36643356758591
  C   0.91257292233449     -0.29376326001647     -0.87630563727863
  F   -1.07765465344612      0.74521114748610     -1.51483278812162
  H   1.43188852992544      0.52144288768229     -1.38966898259526
  H   0.69015891808437     -1.05028813681015     -1.63524870490285
  C   -1.31299599432732     -0.82066643774015      0.21940149131049
  H   -0.88692624015355     -1.23419547827841      1.13594294398072
  H   -2.29339924241845     -0.40344675228137      0.45830493653571
  H   -1.45085744507682     -1.62910482529655     -0.50254925849970
  C   -0.24894315803220      1.43411579036202      0.57168551537183
  H   0.35960543687908      2.20741528200478      0.09685108718100
  H   -1.22320495226718      1.86433878839083      0.81264290074920
  H   0.22956583804735      1.13167696855116      1.50557546481523
  N   1.81590610255078     -0.87343807318390      0.10526267270520
  H   2.08502500194052     -0.19316930240060      0.80300615106549
  H   1.39157812975376     -1.66265357203716      0.57336577526910
