17
Coordinates from ORCA-job run
  C   -0.90096919453344      0.07403552786489      0.38353816338465
  C   0.62828353560308      0.27403800631674      0.48583116672242
  Cl  -1.66054231456094      0.69923015749715      1.88581481343796
  H   0.91417505648838     -0.17126907983270      1.44529891689264
  C   -1.31288636698950     -1.38589587938377      0.22418040707884
  H   -0.86941760213925     -1.97759302843756      1.02830761971940
  H   -2.39777199522651     -1.47542397528382      0.28397254510739
  H   -0.98480857758324     -1.77756332031224     -0.73959625646124
  C   -1.40139645649359      0.86523513987164     -0.74238189155480
  N   -1.74412035290688      1.46891628543090     -1.69057204424378
  N   0.90674748187547      1.69989534040291      0.56219426699039
  H   0.94503433335850      2.10133155090719     -0.36837115575433
  H   1.80033591010238      1.86097059288998      1.00807490911230
  C   1.36803611035473     -0.43883222093787     -0.64778898470338
  H   1.26087633570971     -1.52449906956935     -0.61199201525367
  H   1.01762144014450     -0.08415940331973     -1.62246901357145
  H   2.43280265679660     -0.20641662410438     -0.57204144690334
