17
Coordinates from ORCA-job run
  C   -0.79128756160346     -0.34739244546319      0.12444320242308
  C   0.57985670542898      0.35122145247664     -0.02323774263244
  Cl  -0.59460320392180     -2.11891697378676     -0.16502396702250
  H   0.35925668730622      1.41565060134159      0.13017869401885
  C   -1.81678503293728      0.18721164614792     -0.86624740122837
  H   -1.97634640515758      1.25282905887476     -0.68000284653659
  H   -2.76561548731146     -0.33801778053729     -0.75211016010723
  H   -1.43110946073899      0.05541821314864     -1.87493498046200
  C   -1.28073604258197     -0.17841677062599      1.49350381772682
  N   -1.67708007247872      0.01184447002897      2.58313494273781
  N   1.02581350556240      0.20619659623015     -1.40351048890741
  H   1.44580313016512     -0.70802483671531     -1.53056468071305
  H   1.73801584156460      0.89823755892372     -1.60136706267197
  C   1.59611966258153     -0.09120728510720      1.02613624958615
  H   1.83423161504067     -1.15070375694613      0.90921716391719
  H   1.23733709870270      0.07240982334480      2.04492394993177
  H   2.51812902037903      0.48066042866468      0.89546130993990
