17
Coordinates from ORCA-job run
  C   -0.75684127732684     -0.38399825524253      0.27302022174998
  C   0.56268080320906      0.35677693059981     -0.07674354912048
  Cl  -0.44006834931225     -2.13493265908587      0.50817394327399
  H   0.27533399718592      1.41938553442098     -0.09044314004109
  C   -1.78802175767380     -0.22910759581231     -0.83741285142091
  H   -1.38096980657018     -0.66907953550937     -1.74722657100442
  H   -2.71644059861527     -0.73554346906997     -0.57210922290630
  H   -1.99800200621557      0.83263508267150     -0.99835272046185
  C   -1.28519242051408      0.15201670269618      1.52764912211567
  N   -1.71215374047812      0.63700941199963      2.50922598502504
  N   1.01877462349542     -0.08349595840985     -1.38589344798812
  H   0.81503244797527      0.59865873693956     -2.10200290868118
  H   2.01234684578291     -0.26472604962887     -1.38705366663719
  C   1.64024011296791      0.16174598835252      0.97821211836717
  H   1.27170697310795      0.37477813175851      1.98299209917057
  H   2.47719306520882      0.83307264322962      0.77147754808069
  H   2.00438108777283     -0.86719563990953      0.95748704047843
