17
Coordinates from ORCA-job run
  C   -0.86531132416162      0.11008486824663      0.32159206268660
  C   0.66561652826796      0.25119383802723      0.40032978510653
  Cl  -1.57081826373494      0.89857513609099      1.78937801048084
  H   0.95406390585061     -0.25059208471974      1.33905526406253
  C   -1.33717586829157     -1.33936206317224      0.31411047931699
  H   -2.42326767607485     -1.37828425881436      0.40079152457440
  H   -1.04799439057110     -1.82871549234789     -0.61692325758108
  H   -0.89804357025503     -1.87288799170239      1.15981264210891
  C   -1.37808915737654      0.81528004298354     -0.85347982267835
  N   -1.80394203569665      1.30230991243621     -1.83393032274560
  N   1.00870949320081      1.66376122967557      0.36410421230258
  H   2.01074268286819      1.77222141236347      0.26970299273084
  H   0.72385882263150      2.12527810103192      1.21891331147292
  C   1.34835701556405     -0.44305917322034     -0.77099890237263
  H   2.42895828437688     -0.29188040644264     -0.69928589010686
  H   1.17232692753287     -1.51883882886337     -0.77384393422956
  H   1.01100862586942     -0.01408424157262     -1.71732815512907
