17
Coordinates from ORCA-job run
  C   -0.83267262844816     -0.07524887145080      0.51822768616798
  C   0.63233562505451      0.40907764177156      0.37321741613304
  Cl  -1.00113970909405     -0.94041481504762      2.08906862117857
  H   0.87529439894355      0.92211246342092      1.31559330053067
  C   -1.29001382475396     -0.98702186383337     -0.61018679353080
  H   -2.35239617252831     -1.21114285244709     -0.50776152447386
  H   -1.10957956927250     -0.48168293779459     -1.55977433542358
  H   -0.73495533149707     -1.92474861050416     -0.58006053520053
  C   -1.69112529885750      1.10970252103846      0.59090559861579
  N   -2.34167710937316      2.08781259569948      0.62033386576187
  N   0.67868267563738      1.28787049256120     -0.79135581223936
  H   1.63413056415958      1.38770741147798     -1.11133822508186
  H   0.33121052056407      2.21136570638033     -0.56035331162779
  C   1.60758379097494     -0.73940638691576      0.17129086626135
  H   1.48201230166691     -1.17457479276643     -0.82197750249007
  H   1.48004491968173     -1.51667478240368      0.92465089708871
  H   2.63126484714205     -0.36373291918645      0.24951978832989
