14

C	0.0	0.0	0.0
C	-0.503472	0.177251	-1.436655
F	1.383061	0.0	0.0
H	0.386827	0.473569	-2.006378
H	-0.336589	0.840673	0.608468
H	-0.338304	-0.937206	0.447703
N	-1.446721	1.292926	-1.49161
H	-1.736048	1.421133	-2.456089
H	-2.297888	1.027572	-0.986114
C	-1.043194	-1.137939	-2.005471
H	-1.961187	-1.40829	-1.476072
H	-0.307908	-1.946345	-1.90679
H	-1.284212	-1.023846	-3.067621
Cl	-4.129949	0.0	0.0
