14

C	0.0	0.0	0.0
C	-0.432871	-0.345889	-1.432831
F	1.391146	0.0	0.0
H	0.348185	0.111819	-2.0557
H	-0.358185	-0.719277	0.740815
H	-0.336111	1.0028	0.277066
N	-1.708454	0.171262	-1.888562
H	-2.487286	-0.185325	-1.332624
H	-1.747439	1.174582	-1.741809
C	-0.398948	-1.852912	-1.644772
H	0.549665	-2.279227	-1.304478
H	-1.216372	-2.317029	-1.081121
H	-0.540645	-2.086218	-2.700344
Cl	-4.391571	0.0	0.0
