14

C	0.0	0.0	0.0
C	-0.508481	-0.414382	-1.357555
F	1.39728	0.0	0.0
H	-1.591436	-0.507007	-1.23226
H	-0.342669	1.001301	0.265859
H	-0.332587	-0.714151	0.752446
N	0.044293	-1.73839	-1.668436
H	1.036279	-1.638048	-1.857376
H	-0.394999	-2.083368	-2.513779
C	-0.205031	0.645014	-2.416322
H	-0.554601	0.312758	-3.398269
H	-0.713458	1.584211	-2.181619
H	0.872344	0.83318	-2.47879
Cl	-3.743141	0.0	0.0
