15
Coordinates from ORCA-job run
  C   -0.28860071413381      0.14803038878354     -0.45771348105745
  C   1.07932383422756     -0.06444038829057      0.24221002716368
  Br  0.20774291669260      0.87562247996780     -2.29259170514147
  H   1.72080338006148     -0.65386477606462     -0.42161028223739
  N   -1.07606444137412      1.03006953640923      0.30248804798128
  H   -0.66618701845006      1.95087154857691      0.40578425366602
  H   -2.01731228382667      1.11352704024345     -0.05880311225957
  C   -1.00248163011189     -1.16942937338002     -0.69284394652816
  H   -0.36629468827879     -1.86715000030184     -1.23841723871782
  H   -1.90361119065869     -1.00081102202486     -1.28531132564081
  H   -1.28555141750622     -1.60275268981516      0.26927653255499
  C   0.89189894226991     -0.80406339070843      1.49695195537217
  N   0.74134166854919     -1.43146027133477      2.47794809921236
  C   1.73788676000811      1.21690109232807      0.51331517613368
  N   2.22710588253139      2.25994982561127      0.74031699949849
