15
Coordinates from ORCA-job run
  C   -0.36331123282636      0.30195816501252     -0.39808418547021
  C   0.86989929616053      0.49483307434823      0.52498069349904
  Br  0.12498168480711      1.26541566508264     -2.10883652839800
  H   1.02319380317878      1.57160677294442      0.67002850729613
  N   -1.48509135581102      0.86583042621954      0.24763064279243
  H   -1.40140721004076      1.86577616422491      0.38426981037496
  H   -2.34519617581574      0.66697113003920     -0.24693545220486
  C   -0.60340127485923     -1.15301577617422     -0.74532406178710
  H   -0.83216734531166     -1.70473361489536      0.17047020347963
  H   -1.45046980521858     -1.23591400581195     -1.42911038013874
  H   0.26840613669592     -1.59128306469852     -1.23039017412740
  C   2.09360672867851     -0.06755025672858     -0.05263929067116
  N   3.07259316733465     -0.53902196269467     -0.49746517133273
  C   0.61157704814284     -0.12083082168553      1.83360488391599
  N   0.41678653488502     -0.61904189518263      2.87880050277202
