15
Coordinates from ORCA-job run
  C   -0.36882824462502      0.30513586070134     -0.39121387325129
  C   0.88413173381073      0.48794648939415      0.50696690061300
  Br  0.09410456778626      1.26039932382950     -2.11336122796057
  H   1.04882117208473      1.56335617249691      0.64941011509157
  N   -1.47218326943040      0.88091089464568      0.27546458889854
  H   -2.34378954553674      0.68943048676869     -0.20163563091102
  H   -1.37636630544719      1.88038740901702      0.40774301570871
  C   -0.62946844054578     -1.14824941785194     -0.73024759080521
  H   -1.48976516296149     -1.22461281696454     -1.39811637551493
  H   -0.84677123719539     -1.69549220241527      0.19100277407067
  H   0.22898717675238     -1.59620009953541     -1.23012248760087
  C   2.09146467551863     -0.08435078206242     -0.09489409481085
  N   3.05802558163361     -0.56421966451671     -0.55749127268015
  C   0.64744706154628     -0.12749473026231      1.81986381430851
  N   0.47319023660940     -0.62794692324468      2.86763134484390
