15
Coordinates from ORCA-job run
  C   -0.33568027693643      0.26056305755352     -0.31324241897631
  C   0.75928155287278     -0.00570852472895      0.75505791224479
  Br  0.36667887136033      1.55329492646150     -1.59841067425163
  H   0.30643269936834     -0.68421333717303      1.49300790784089
  N   -1.43787239842758      0.89101929897920      0.38637695900948
  H   -1.99398999107923      0.17876676808419      0.85095715011902
  H   -2.03769226908982      1.38331893521029     -0.26432172545076
  C   -0.68615930436531     -1.02114898161831     -1.05649654894464
  H   -1.05069188157540     -1.76515907197299     -0.33838509888428
  H   0.16953519612641     -1.43774722017381     -1.58964812595725
  H   -1.48056826545743     -0.81762300069555     -1.77641309396380
  C   1.14562643411258      1.21863883397551      1.46096789102962
  N   1.48432090201453      2.17419114375171      2.05225659873225
  C   1.93460876294803     -0.67914136960542      0.19637718220557
  N   2.85616996812820     -1.24805145804786     -0.25708391475297
