15
Coordinates from ORCA-job run
  C   -0.24881898461421      0.18829156152081     -0.51249827441221
  C   1.10466755459377     -0.04925909045641      0.21328630783625
  Br  0.18775710105259      0.91095172035055     -2.28075050327642
  H   1.69366639806811     -0.76746967424718     -0.36894096233618
  N   -0.96457521211090      1.21187015443361      0.21100651612444
  H   -1.31054736471318      0.83383849778131      1.08875049112326
  H   -1.75514787500148      1.54379697340728     -0.32838363135810
  C   -0.98921683155896     -1.12886003507196     -0.71111224264857
  H   -1.90773453645490     -0.94869908382292     -1.27202113696904
  H   -0.38705961400280     -1.85622188962799     -1.26024696491532
  H   -1.25526898150231     -1.54949714630607      0.26342782909314
  C   0.83983674516640     -0.62637207704771      1.53784320118974
  N   0.56713803019951     -1.09284583057946      2.58075951449298
  C   1.88097512351748      1.18550479828684      0.35741220420655
  N   2.54532844736089      2.14497112137933      0.48246765184948
