15
Coordinates from ORCA-job run
  C   -0.37175745081297      0.22514838871796     -0.30022489438532
  C   0.77209182950291      0.06836131841360      0.73802922660217
  Br  0.14352180508060      1.61681894637726     -1.57057706530082
  H   0.42002218226950     -0.67392405681609      1.46956966927737
  N   -1.52328367326806      0.70722073251083      0.43692262030315
  H   -1.98242435833709     -0.07504130730355      0.89464856281717
  H   -2.19064278127325      1.14131387815218     -0.18880727366075
  C   -0.58722771558953     -1.07404039593933     -1.06438663920182
  H   0.29868358148929     -1.37691224755912     -1.62423226210585
  H   -1.41634138005497     -0.95116634651293     -1.76311367320388
  H   -0.84570902649750     -1.86942988951122     -0.35542845197252
  C   1.02900268189215      1.31509844106698      1.46323781203231
  N   1.26964650813627      2.29260261749522      2.06657178966646
  C   2.00518386983179     -0.45046221141157      0.14001895008097
  N   2.97823392763087     -0.89658786768023     -0.34222837094864
