15
Coordinates from ORCA-job run
  C   -0.36847214258434      0.21268203665934     -0.40091625840532
  C   0.72573713104946     -0.00291215197901      0.70231660203840
  Br  0.39869342217886      1.43918815219985     -1.72614924805151
  H   0.29094295777161     -0.71296246667116      1.42046720997114
  N   -1.56588357411834      0.81510854777255      0.10315735041728
  H   -1.39217132220485      1.69489653841023      0.57484393716638
  H   -2.06612365816856      0.18118480293482      0.71575345405096
  C   -0.69426760730168     -1.10930351748376     -1.07059042722401
  H   0.18905781145908     -1.55766905023646     -1.52495605210528
  H   -1.10166980348600     -1.80580524577173     -0.32876592880725
  H   -1.44642762067065     -0.93910433896439     -1.84011501568385
  C   0.99417894466636      1.24251263826522      1.42355320264077
  N   1.14878806302990      2.24585745689287      2.01386846294862
  C   1.95947626891462     -0.59430256673035      0.18209255716792
  N   2.92614112946454     -1.10837083529802     -0.24255984612424
