13

C	-0.459298	-0.020584	-1.417808
C	0.0	0.0	0.0
F	-1.831792	0.021857	-1.541438
H	1.089626	0.0	0.0
H	-0.077742	-0.868652	-1.977939
H	-0.380455	0.861501	0.542715
N	0.049746	1.218711	-2.103976
O	0.802097	1.065068	-3.063445
O	-0.353827	2.293239	-1.665284
N	-0.423892	-1.20564	0.68414
O	-0.665402	-1.124937	1.895959
O	-0.404403	-2.269965	0.046566
H	2.577361	0.0	0.0
