13

C	-0.620059	0.002641	-1.362697
C	0.0	0.0	0.0
F	-0.248491	1.147367	-2.024516
H	1.087326	0.0	0.0
H	-1.709191	-0.058432	-1.371864
H	-0.254759	0.930228	0.512548
N	-0.171567	-1.142195	-2.247154
O	-0.837098	-1.285283	-3.274173
O	0.810692	-1.793749	-1.926826
N	-0.50898	-1.097228	0.792868
O	-0.206931	-1.126694	1.991565
O	-1.161858	-1.987267	0.213925
H	2.594284	0.0	0.0
