13

C	-0.450295	-0.010241	-1.427388
C	0.0	0.0	0.0
F	0.156946	-1.009747	-2.112065
H	1.091537	0.0	0.0
H	-0.267091	0.945829	-1.916761
H	-0.368091	-0.855129	0.563377
N	-1.954054	-0.252428	-1.551887
O	-2.667445	0.424659	-0.817662
O	-2.345735	-1.069519	-2.378567
N	-0.396212	1.213078	0.691613
O	-0.638015	1.129149	1.900881
O	-0.335893	2.279109	0.064863
H	2.593967	0.0	0.0
