13

C	-0.601058	0.020219	-1.384772
C	0.0	0.0	0.0
F	-0.346288	1.221958	-1.966786
H	1.088443	0.0	0.0
H	-1.680428	-0.155058	-1.387256
H	-0.37105	0.897717	0.497898
N	-0.035408	-1.067711	-2.270451
O	0.727067	-0.762761	-3.173582
O	-0.446487	-2.192194	-1.994742
N	-0.557527	-1.137998	0.767237
O	0.108889	-2.164958	0.857791
O	-1.675031	-0.973016	1.276626
H	2.767218	0.0	0.0
