15

C	0.0	0.0	0.0
C	-0.556005	-0.436135	-1.391312
Cl	1.783708	0.0	0.0
H	-1.367452	-1.125121	-1.149423
H	-0.344779	1.007906	0.208716
C	-0.423939	-0.907283	1.067384
N	-0.56243	-1.69395	1.929134
C	0.437355	-1.120772	-2.318127
H	-0.111415	-1.466789	-3.20141
H	1.23086	-0.447015	-2.647935
H	0.888469	-1.996624	-1.842533
N	-1.118671	0.782173	-1.98023
H	-1.956833	0.847435	-1.374556
H	-1.445222	0.54713	-2.91549
F	-2.640266	0.0	0.0
