15

C	0.0	0.0	0.0
C	-0.488369	-0.099012	-1.450864
Cl	1.793228	0.0	0.0
H	-1.574094	0.040431	-1.274958
H	-0.345391	0.947895	0.401259
C	-0.462451	-1.097079	0.847179
N	-0.624449	-2.026564	1.547658
C	-0.215197	-1.462399	-2.069713
H	-0.7269	-2.248878	-1.509194
H	-0.598792	-1.475923	-3.095434
H	0.856656	-1.694396	-2.105857
N	0.065371	1.030622	-2.201527
H	0.975711	0.786357	-2.579132
H	-0.55017	1.214504	-2.984296
F	-2.624701	0.0	0.0
