15

C	0.0	0.0	0.0
C	-0.480346	-0.23523	-1.45513
Cl	1.79078	0.0	0.0
H	-1.563041	-0.339748	-1.272934
H	-0.368069	0.960588	0.345798
C	-0.448439	-1.051122	0.912695
N	-0.599312	-1.949213	1.655698
C	0.12152	-1.472746	-2.095229
H	0.006677	-2.346998	-1.446504
H	1.184968	-1.352807	-2.327987
H	-0.409442	-1.662418	-3.031278
N	-0.26864	0.935474	-2.300163
H	0.678806	1.284279	-2.183531
H	-0.90832	1.654814	-1.9794
F	-2.596865	0.0	0.0
