15

C	0.0	0.0	0.0
C	-0.197719	0.007412	-1.556161
Cl	1.803415	0.0	0.0
H	0.320363	-0.871742	-1.950972
H	0.364569	0.87159	-1.923512
N	-0.515032	1.129574	0.700772
H	-1.53074	0.994402	0.766537
H	-0.355883	1.977999	0.166444
C	-0.48537	-1.278194	0.646156
H	-0.054898	-2.150621	0.150316
H	-1.575946	-1.299761	0.569346
H	-0.192232	-1.27879	1.697696
C	-1.487393	0.058362	-2.251909
N	-2.286193	0.074886	-3.114626
Br	-3.823614	0.0	0.0
