15

C	0.0	0.0	0.0
C	-0.48894	0.115698	-1.447179
Cl	1.795394	0.0	0.0
H	-0.157929	1.077885	-1.845397
H	-1.588094	0.105848	-1.412108
N	-0.473016	1.182887	0.68201
H	-1.495633	1.155221	0.617568
H	-0.239105	1.103294	1.667084
C	-0.439329	-1.315599	0.630829
H	-1.532094	-1.339091	0.63246
H	-0.048315	-2.174415	0.080643
H	-0.073518	-1.36536	1.659963
C	-0.01967	-0.960221	-2.311172
N	0.35412	-1.820212	-3.017644
Br	-3.838311	0.0	0.0
