15

C	0.0	0.0	0.0
C	-0.478973	0.24474	-1.434172
Cl	1.797396	0.0	0.0
H	-1.577555	0.207461	-1.4127
H	-0.112822	-0.554784	-2.084334
N	-0.470722	1.090063	0.818259
H	-1.49074	1.090148	0.729279
H	-0.253994	0.889495	1.789142
C	-0.443134	-1.383867	0.462699
H	-0.055889	-1.572999	1.467813
H	-0.069241	-2.166136	-0.20364
H	-1.536022	-1.402144	0.482636
C	-0.041457	1.530431	-1.973249
N	0.297251	2.549409	-2.445977
Br	-3.848016	0.0	0.0
