15

C	0.0	0.0	0.0
C	-0.462871	-0.148037	-1.462506
Cl	1.800706	0.0	0.0
H	-1.560794	-0.200974	-1.431145
H	-0.069821	-1.069174	-1.903222
N	-0.472541	1.193738	0.644548
H	-1.490594	1.101383	0.701863
H	-0.266319	2.00328	0.067252
C	-0.452464	-1.211386	0.798472
H	-0.098508	-1.10508	1.824849
H	-1.544748	-1.251494	0.790719
H	-0.044196	-2.128955	0.369524
C	-0.061905	0.984915	-2.289687
N	0.239923	1.908968	-2.948139
Br	-3.830909	0.0	0.0
