15

C	0.0	0.0	0.0
C	-0.471914	0.187185	-1.442407
Cl	1.85205	0.0	0.0
H	-1.569997	0.109398	-1.406937
H	-0.056168	-0.601277	-2.075643
N	-0.503653	1.037486	0.798217
H	-0.389762	0.889664	1.787992
H	-0.227623	1.964174	0.510658
C	-0.447708	-1.347639	0.529346
H	-0.07587	-1.487959	1.548162
H	-1.542212	-1.357201	0.52597
H	-0.049317	-2.153595	-0.090026
C	-0.09193	1.48779	-1.986511
N	0.201034	2.53567	-2.427293
Br	-4.042767	0.0	0.0
