13
Coordinates from ORCA-job run
  C   -0.35817869184764     -0.01048666801732     -0.21675307605537
  C   0.90159925983483     -0.64342017039761      0.36069551034083
  Br  0.00833755072897      0.59080076111292     -2.08258651930362
  H   0.71946940640657     -0.82785839119810      1.42258536678660
  H   1.03714640997900     -1.61088125856626     -0.13261947586947
  N   -1.45785319096901     -0.87289829566788     -0.07652219718079
  H   -1.32347573171742     -1.73934038228981     -0.58114709172577
  H   -2.31504222520464     -0.42273980387685     -0.37534065590153
  N   -0.72966266398560      1.26408539769582      0.53967007251468
  O   -1.84034507831453      1.71775998981517      0.30035552702746
  O   0.09410560389153      1.71304373305435      1.32587630320499
  C   2.12363782587148      0.13571852795211      0.19625264198612
  N   3.14126152532646      0.70621656038345      0.07453359417590
