13
Coordinates from ORCA-job run
  C   -0.46283954059944      0.02372098334146     -0.41900835234120
  C   1.04455718164912     -0.29165079059277     -0.38329612028001
  Br  -0.99030100781310      0.14300610798631     -2.28624402266529
  H   1.60551433964945      0.49039640924241     -0.89827622085519
  H   1.21341815413448     -1.23930391628206     -0.90105470868978
  N   -1.34533112603813     -0.84894614334024      0.25470603180317
  H   -1.30641578091519     -1.78469541084074     -0.12515654584353
  H   -1.19473443026287     -0.84458383356153      1.25593859854908
  N   -0.60080023337564      1.42461390178647      0.21151659334864
  O   -1.25396431226261      1.50349419558682      1.24366592556889
  O   0.01481789964639      2.32683465090834     -0.33888776030964
  C   1.48597508909880     -0.40531323698171      1.00498079036594
  N   1.79010376708872     -0.49857291725280      2.13511579134889
