13
Coordinates from ORCA-job run
  C   -0.36390189905712      0.00078356630205     -0.20865449324145
  C   0.91679940043758     -0.64743412661215      0.30146490093974
  Br  -0.04821031707918      0.71843966924176     -2.04289574280019
  H   0.76144452720711     -0.89735009246886      1.35420355665910
  H   1.05336255512457     -1.58209558034086     -0.25118415887729
  N   -1.44877975375175     -0.88440922250705     -0.09728792054060
  H   -1.31648119382261     -1.71391537602726     -0.66124633380162
  H   -2.31870318381508     -0.42764011509867     -0.34499691753523
  N   -0.73495961772767      1.22172111114454      0.63168543568242
  O   0.10004576892581      1.63320927175974      1.42659485321708
  O   -1.85631796009300      1.67351122118435      0.44451249886940
  C   2.12469503999801      0.15728064486733      0.15666612761171
  N   3.13200663365328      0.74789902855510      0.04613819381691
