13
Coordinates from ORCA-job run
  C   -0.34884401256953     -0.11204139787558     -0.29402315612896
  C   0.99079050802159     -0.56247767699386      0.27805164621558
  Br  -0.19096826168944      0.29525071586198     -2.18206314314764
  H   1.19776504633965     -1.54036292871394     -0.16336053355315
  H   0.88817409587642     -0.68779300411604      1.36080110182960
  N   -1.32477309675172     -1.11910256368561     -0.11355747023546
  H   -2.22165802683528     -0.82494118686584     -0.48109461403368
  H   -1.41825905579233     -1.36217916266767      0.86704810212235
  N   -0.78982791325628      1.21827353740058      0.38313668766326
  O   -0.00966894394955      1.74546070564905      1.16923310050700
  O   -1.92229632983684      1.59650699542384      0.11383142615884
  C   2.10809506411851      0.33508354965670      0.00857447741201
  N   3.04147092632480      1.01732241692638     -0.18957762480975
