13
Coordinates from ORCA-job run
  C   -0.36554792134432     -0.00549199390169     -0.20703370924059
  C   0.91228075066818     -0.64583923774306      0.32022914331681
  Br  -0.05265815342459      0.64412608154778     -2.06655615319660
  H   1.03861379358670     -1.60010614976489     -0.20045299267207
  H   0.75968018307875     -0.85760830729710      1.38171581295867
  N   -1.45687206686024     -0.87739473238765     -0.05901143820842
  H   -1.33201945316471     -1.72912485893485     -0.59048540922073
  H   -2.32383696824717     -0.42401706186881     -0.32276741569603
  N   -0.72239319884980      1.24778917508498      0.59090406838077
  O   0.12097967560300      1.68191585956316      1.36453183983622
  O   -1.84175653677811      1.70083635546619      0.39414700978578
  C   2.12614148037316      0.14303467922711      0.14275883759298
  N   3.13738841535918      0.72188019100882      0.00802040636318
