13
Coordinates from ORCA-job run
  C   -0.25964222091833      0.11307229024539     -0.29548929198036
  C   1.05282120907172      0.00216479404069      0.47445726823284
  Br  0.06477768521624      0.49622836601080     -2.17261301638583
  H   0.82168908175901     -0.07814343232145      1.54405206178850
  H   1.63577843717674      0.91255980870527      0.33720359140050
  N   -1.04345222835940     -1.03988101264265     -0.17694726539692
  H   -1.93612881596867     -0.94686721695562     -0.64330356685495
  H   -1.18206666924330     -1.30275767015954      0.79155427649863
  N   -0.97476301589584      1.40190158213468      0.24021072079735
  O   -2.19190959006181      1.32869927246362      0.35571602472878
  O   -0.27368188991695      2.37270156239445      0.49491162918658
  C   1.82143226706638     -1.16482183049032      0.05681881908798
  N   2.46514575007422     -2.09585651342538     -0.25157125110312
