13
Coordinates from ORCA-job run
  C   -0.31075792590103      0.10249694874328     -0.25448194564185
  C   1.08326041216745      0.12154079618181      0.36520457110515
  Br  -0.25678474075888      0.68142000521191     -2.10845041627992
  H   1.51733503722179      1.11549979670854      0.25951309089783
  H   0.98787632369576     -0.07918016779874      1.43965303839293
  N   -0.91152645672086     -1.15873342362903     -0.17106708787413
  H   -1.85322853789571     -1.16006027121609     -0.54019994393799
  H   -0.91090552764258     -1.51229671554228      0.77851677536145
  N   -1.12951141030541      1.22482329059607      0.47333476406079
  O   -2.30307692429783      0.96417831806775      0.70744451953820
  O   -0.54313381879030      2.26422666733575      0.74628215827425
  C   1.95163973921183     -0.88195278047020     -0.23963072577548
  N   2.67781383001580     -1.67996246418878     -0.70011879812122
