13
Coordinates from ORCA-job run
  C   -0.37300672762291     -0.04223701612130     -0.44167905349549
  C   1.14286126313769     -0.20193484559169     -0.38568235671113
  Br  -0.92262824464422      0.24238932220959     -2.28665491674071
  H   1.62565711646279      0.67843354965589     -0.80786534795519
  H   1.41049236752950     -1.07923727679255     -0.97811847517735
  N   -1.04847588566426     -1.14768780215191      0.09144828429987
  H   -2.05098655509819     -1.01012474195263      0.08894056738060
  H   -0.73549348431660     -1.34954539299451      1.03506544442485
  N   -0.73546525306097      1.30401132383760      0.27361174841540
  O   -1.78472957769112      1.30756252070446      0.90444682756455
  O   0.04128251278954      2.23955227100284      0.13605319682897
  C   1.57080089696925     -0.38751376032784      0.99990869585946
  N   1.85969157120952     -0.55366815147796      2.12552538530617
