13
Coordinates from ORCA-job run
  C   -0.45765357364492      0.05978997703728     -0.42139110929535
  C   1.05583996124687     -0.22483070808645     -0.39470091222079
  Br  -0.96478938387808      0.34862373674115     -2.27577375555867
  H   1.60464795683743      0.61563953917856     -0.82361846410895
  H   1.25328563065273     -1.11351203855086     -0.99962095080115
  N   -1.32804919426800     -0.89382162214636      0.15199519727846
  H   -1.25301592996271     -1.78975130590668     -0.31014111853141
  H   -1.19232231169593     -0.97806414087005      1.15192799334267
  N   -0.63622106693713      1.38921481578529      0.33975474729630
  O   -0.03557208221263      2.35407162225210     -0.11208975998218
  O   -1.30342813811775      1.35308246279946      1.36544765070253
  C   1.48288845230330     -0.46268359849674      0.98228465831778
  N   1.77338967967678     -0.65775873973671      2.10292582356072
