13
Coordinates from ORCA-job run
  C   -0.36495791963493      0.00003989631058     -0.20785922498917
  C   0.91377636178198     -0.64945722390332      0.30617512415288
  Br  -0.05046437647506      0.69561565080698     -2.05031955301323
  H   1.04353524369384     -1.59033312807760     -0.23753703949073
  H   0.75997918132327     -0.88759658772042      1.36185908155143
  N   -1.45407926194956     -0.87816367123332     -0.08359313011531
  H   -1.32619180587482     -1.71663521021516     -0.63502029648618
  H   -2.32192580198903     -0.42091832654736     -0.33750144778939
  N   -0.72713775649284      1.23216646173075      0.62008399855393
  O   -1.84692160321203      1.68739077316009      0.43153773614411
  O   0.11273060874309      1.64840770693056      1.40727085103598
  C   2.12536854971800      0.14741894161416      0.15014862994638
  N   3.13528858036805      0.73206471714406      0.03175527049929
