13
Coordinates from ORCA-job run
  C   -0.37862166799987     -0.08548389219447     -0.43233703032486
  C   1.12848487652453     -0.31030582730896     -0.36055038344270
  Br  -0.93002501761139     -0.00368732084228     -2.29607993310056
  H   1.64909898232617      0.48718526474687     -0.88899655376681
  H   1.34882996409962     -1.26594591574667     -0.84064509188359
  N   -1.10165930613600     -1.08259428089355      0.23531309961764
  H   -0.79332626038101     -1.17786982781927      1.19722584754384
  H   -2.09672047497217     -0.89979738820603      0.21511945625957
  N   -0.66991611345628      1.35486452921820      0.11296984018538
  O   -1.71401250310623      1.48761932606563      0.73842074148320
  O   0.15131903183770      2.22678403498907     -0.13752015818433
  C   1.55781544039149     -0.34547188863637      1.03648837329154
  N   1.84673304848345     -0.38629681337216      2.17359179232170
