13
Coordinates from ORCA-job run
  C   -0.40998599929965      0.01159152992272     -0.34170472276534
  C   0.87577937178203     -0.61505133536207      0.22397852621929
  Br  -0.16257947091840      0.44491173861986     -2.20018753102888
  H   1.08605855139840     -1.52815887486810     -0.33858809168744
  H   0.68240764374529     -0.88523328563748      1.26635645361205
  N   -1.59614100307278     -0.76982439574138     -0.19685473504578
  H   -1.61126335540197     -1.54447033648225     -0.84545670561605
  H   -1.69956106883886     -1.09090354657849      0.75827267484495
  N   -0.65685128386553      1.28413282900254      0.48988942037738
  O   -0.57554397321426      2.38886260517501     -0.01649458409856
  O   -0.91298050631079      1.02593111269537      1.66409215949458
  C   2.02837159959969      0.27831383761215      0.16434595774208
  N   2.95328949439681      0.99989812164210      0.12835117795173
