17
Coordinates from ORCA-job run
  C   0.76226224368668      0.05662216648541     -0.52864324467419
  C   -0.74009615729378      0.04086039013030     -0.19614705585071
  Br  1.19244405641444     -0.97017685268398     -2.09052816204472
  H   -1.21917801741142      0.48547969943352     -1.07904970598560
  N   1.55198516684025     -0.43438879390419      0.68054276297452
  O   1.60083253460206     -1.64750322626041      0.82902312391040
  O   1.98704445881202      0.42478076194585      1.43173914957706
  N   1.26251960427216      1.47693550064326     -0.81051198021764
  O   2.46458582366452      1.60309125798542     -0.97769485970933
  O   0.41453158467971      2.36115282726111     -0.87626100509196
  N   -0.92478366686477      0.80702640423625      1.02127332587003
  H   -1.00433784125105      1.79531067855843      0.82938210590415
  H   -1.74248069822419      0.49166415242039      1.52377381241335
  C   -1.28642152717795     -1.36598487474028      0.01556885770790
  H   -1.06780876549808     -2.02998275591641     -0.81776468853614
  H   -0.87877792812145     -1.80157718777641      0.92839932408609
  H   -2.37232087112916     -1.29431014781824      0.11689823966681
