17
Coordinates from ORCA-job run
  C   0.73978537814182     -0.04086999095493     -0.58285326833838
  C   -0.73893450948954      0.08608487045269     -0.19180242216661
  Br  0.98239104588832     -1.05412213032461     -2.19137519464786
  H   -1.20263025888618      0.44856865029469     -1.11420453432300
  N   1.62051591784806     -0.62091360450279      0.51988414395777
  O   2.72227210996921     -1.04063010145848      0.20481610647614
  O   1.15617604486185     -0.56653474670620      1.65516918461363
  N   1.26590340951360      1.38366331996641     -0.81335620924482
  O   2.13831827054187      1.78399902043765     -0.05980036331416
  O   0.71904889807534      1.99216009568329     -1.71648659983130
  N   -0.85321818807108      1.15621379130951      0.78430329095092
  H   -1.74851953665637      1.61705896524544      0.69897398633447
  H   -0.74123768850177      0.80413826182028      1.72498108955939
  C   -1.38170089527783     -1.24448725028563      0.19409692541337
  H   -2.45362310101702     -1.08143413073964      0.32630765967602
  H   -0.97574617683003     -1.61351888831665      1.13621906055981
  H   -1.24980072011026     -2.00837613192102     -0.57387285567538
