17
Coordinates from ORCA-job run
  C   0.71885126617604      0.68335635287441     -0.10711375824978
  C   -0.76799213788690      0.29467902577302     -0.01176325570511
  Br  0.95536772689871      2.57912621872086     -0.05519919866847
  H   -1.24394404778941      0.95832733363960     -0.74014773679978
  N   1.25607502688810      0.13319866926537     -1.42645480029194
  O   1.97574702175899     -0.85571976631011     -1.36037187595723
  O   0.82639834691896      0.67040865225865     -2.43598148722859
  N   1.58702479774603      0.05199780957347      0.97762099302290
  O   1.07459725678569     -0.85043691519347      1.63187206561955
  O   2.73230620664438      0.46179136835675      1.07540757128113
  N   -1.23747197601712      0.66991682976060      1.30838180900685
  H   -2.20227668343326      0.96668716922552      1.26934995670170
  H   -1.15401154201976     -0.10842201632910      1.94844272189319
  C   -1.05721708630364     -1.14681126247602     -0.43919897821936
  H   -0.77590162843336     -1.33633227439801     -1.47726904446771
  H   -2.13516783749779     -1.30506787354982     -0.35962126121338
  H   -0.55238471043565     -1.86669932119172      0.20304627927602
