17
Coordinates from ORCA-job run
  C   0.72627968281943      0.59969329538176     -0.17424767077465
  C   -0.76476218147681      0.26284474597250     -0.01789753739478
  Br  1.01511379392815      2.49734331688043     -0.05212562243193
  H   -1.26789533912581      0.87981486077569     -0.77284885180804
  N   1.29883323685313      0.18703573899331     -1.52255406386794
  O   0.50683670173878      0.16657355130689     -2.45679774906471
  O   2.50196731000732     -0.02371748562010     -1.56841405921676
  N   1.53723503657173     -0.14390614742902      0.87948898468671
  O   2.03222948996280      0.47256844600321      1.80422100374757
  O   1.56950630613486     -1.35455157126843      0.68646117130200
  N   -1.10813157222081      0.59940919768464      1.35694732569727
  H   -1.96020027149932      0.12423638075992      1.62398504661145
  H   -1.24841101985857      1.59483461474881      1.47259511064743
  C   -1.12447177407793     -1.19741868132410     -0.27056995639619
  H   -2.21529146371479     -1.26583594687333     -0.30996276999835
  H   -0.73523297620828     -1.56599572442386     -1.21707025273486
  H   -0.76260495983386     -1.83092859156832      0.53778989099579
