17
Coordinates from ORCA-job run
  C   0.83022426214783      0.18170378733102      0.12048323373652
  C   -0.65350121545937     -0.07091985514849     -0.15627271835081
  Br  1.18889675670662      0.71606857305670      1.91615759499693
  H   -0.66868899351801     -0.48741966086389     -1.16682059008378
  N   1.30108272726086      1.25112827061113     -0.88056169111670
  O   1.23168967312699      0.86135557958852     -2.04019959525051
  O   1.66574690831117      2.33750300387769     -0.47989481321329
  N   1.72348229097155     -1.01213049513156     -0.22064241438032
  O   1.17164824186035     -2.02851615846450     -0.62500316313721
  O   2.92586140588996     -0.82835127064325     -0.09601108427811
  N   -1.27697879234031      1.24390543105648     -0.21278963305810
  H   -1.56899775755098      1.54204778105422      0.71025755506526
  H   -2.09111932382095      1.21995117159569     -0.81187644849403
  C   -1.30809448968570     -1.05167847447698      0.80920876680495
  H   -2.32116900543764     -1.25771719088927      0.45521312083346
  H   -1.38068605484793     -0.61903032135738      1.80875267253218
  H   -0.76939663361445     -1.99690017119614      0.86999920739357
