17
Coordinates from ORCA-job run
  C   0.81141396539586      0.30895478022184      0.05299352669130
  C   -0.68751332849314     -0.00608556333155     -0.08129622085602
  Br  1.29895248756172      1.09695937761232      1.71139100580330
  H   -0.79453699536752     -0.35925951603680     -1.11546269347982
  N   1.29698528475984      1.22800559919568     -1.07200693208212
  O   0.44783263851389      1.68678015185031     -1.82722596209281
  O   2.50383459238497      1.40821747031844     -1.12949981242135
  N   1.57853760255135     -0.98848210148279     -0.20747100282021
  O   2.12630675340503     -1.56059563708055      0.71917238413688
  O   1.49075520985278     -1.37188107374181     -1.37066902315298
  N   -1.45322179927513      1.18940440482618      0.20019974626311
  H   -2.36815581926876      0.94953512384946      0.55544141801284
  H   -1.55280837586062      1.75625334765501     -0.62983289444825
  C   -1.08549934637918     -1.12501692313740      0.87213859608774
  H   -2.13951344803151     -1.36247247731489      0.70852820761817
  H   -0.51580335624202     -2.03957121785738      0.70583277606536
  H   -0.95656606550754     -0.80974574554605      1.90876688067486
