17
Coordinates from ORCA-job run
  C   0.68451847975155      0.58932606585523     -0.17821114596263
  C   -0.83331600835907      0.26522609194194     -0.07360777422116
  Br  1.06077897744541      2.44315757932756      0.14343437782776
  H   -1.27418597412221      0.76916584969500     -0.93773124525778
  N   1.28042531242084      0.27737511987682     -1.55104878674494
  O   2.49726213353366      0.33666415069905     -1.63650850072566
  O   0.48645393274932      0.03350370939277     -2.45239252512218
  N   1.42038680160128     -0.29106359472511      0.81761493036204
  O   1.42825366618473      0.08687012117726      1.98194421731721
  O   1.82269048607260     -1.36535990374757      0.38722804459699
  N   -1.47572887718065      0.76477232952867      1.11801321404513
  H   -1.06236563587926      0.36959998241826      1.95402663239470
  H   -1.42237511993229      1.77246312980957      1.18083795459601
  C   -1.08952064797888     -1.23499008721663     -0.17752349209401
  H   -2.16673710173556     -1.37598457785818     -0.26569598988643
  H   -0.75902328910844     -1.75157655919087      0.72742202469540
  H   -0.59951713546301     -1.68814940698377     -1.03680193582045
