17
Coordinates from ORCA-job run
  C   0.69454183229515      0.06355993841514     -0.56284870508546
  C   -0.82837893632866      0.02868843919641     -0.24364007483364
  Br  1.10902708761972     -0.81059925366700     -2.21743816589811
  H   -1.30535362321702      0.30739130185589     -1.18687882730032
  N   1.45371188762849     -0.55502363519933      0.59776796774604
  O   1.37893654608704      0.10436039523784      1.63193038392629
  O   1.97782803632801     -1.64833450500143      0.46189909996838
  N   1.22660165425003      1.48386272960977     -0.70619229042105
  O   0.43441004668627      2.30674869231294     -1.14890656359378
  O   2.40303168616996      1.66633171321882     -0.42974575967944
  N   -1.28573658198379      0.94946028186173      0.76494602764983
  H   -0.83071672323972      0.78907342056873      1.65393624065227
  H   -1.14432270402794      1.90970808945720      0.48402902485005
  C   -1.23352922795715     -1.38956987786035      0.14286953224608
  H   -0.83205295164333     -1.64879878635991      1.12669572777981
  H   -0.89626503178208     -2.13603078354033     -0.57609749114351
  H   -2.32073299688500     -1.42182816010610      0.20967387313656
