17

C	0.0	0.0	0.0
C	-0.269044	0.489093	-1.476499
F	1.383198	0.0	0.0
H	0.464997	-0.113633	-2.028306
C	-0.404686	1.006782	1.006103
N	-0.628537	1.874906	1.764881
N	-0.520864	-1.273384	0.362693
H	-0.460172	-1.906299	-0.428012
H	-1.507633	-1.172405	0.604677
C	0.108015	1.956885	-1.62466
H	0.134323	2.214372	-2.68594
H	1.079452	2.171003	-1.176179
H	-0.64576	2.582064	-1.140191
N	-1.561563	0.275062	-2.068913
H	-2.264344	0.83683	-1.59463
H	-1.886828	-0.669599	-1.902774
Br	-4.041671	0.0	0.0
