17

C	0.0	0.0	0.0
C	-0.410002	-0.383576	-1.476668
F	1.377947	0.0	0.0
H	0.559599	-0.689223	-1.887723
C	-0.343611	1.400784	0.372064
N	-0.53092	2.51129	0.707388
N	-0.477621	-0.964271	0.938283
H	-0.242027	-0.659708	1.877469
H	-1.4981	-0.97017	0.865328
C	-0.928438	0.804197	-2.276501
H	-0.235422	1.648817	-2.245314
H	-1.898937	1.118579	-1.887877
H	-1.050332	0.482866	-3.31386
N	-1.313035	-1.503237	-1.631911
H	-2.242379	-1.222247	-1.320352
H	-1.005332	-2.26014	-1.032794
Br	-3.874021	0.0	0.0
