17

C	0.0	0.0	0.0
C	-0.534025	0.203917	-1.409209
F	1.418759	0.0	0.0
H	-1.605207	0.395059	-1.261378
C	-0.32929	1.165625	0.853652
N	-0.509228	2.068252	1.580564
N	-0.498416	-1.170078	0.596215
H	-0.252965	-1.247956	1.571807
H	-0.245247	-2.00136	0.084403
C	-0.376771	-1.051037	-2.266168
H	-1.04088	-1.847917	-1.923906
H	0.661371	-1.402741	-2.269812
H	-0.660552	-0.815649	-3.294893
N	0.100783	1.400615	-1.951245
H	-0.449871	1.747268	-2.726419
H	1.028323	1.175564	-2.291951
Br	-4.048491	0.0	0.0
