17

C	0.0	0.0	0.0
C	-0.365785	0.019211	-1.49505
Br	1.958296	0.0	0.0
H	0.198755	-0.778577	-1.979892
H	-0.266555	-1.001401	0.346437
C	-0.62922	1.029008	0.908732
H	-1.720228	0.902583	0.845578
H	-0.315551	0.847011	1.939546
H	-0.360463	2.043171	0.621764
N	0.155308	1.251172	-2.176129
O	-0.190755	2.346924	-1.739825
O	0.86253	1.086256	-3.171885
C	-1.8405	-0.118195	-1.816511
H	-2.492218	0.591677	-1.305355
H	-1.971425	-0.056576	-2.902587
H	-2.209129	-1.083994	-1.470121
H	-4.110117	0.0	0.0
