18

C	-0.383697	0.07704	-1.487524
C	0.0	0.0	0.0
F	-0.078272	-1.215557	-1.982875
H	1.087198	0.0	0.0
C	-1.833209	0.339785	-1.828666
H	-2.468026	-0.435299	-1.408019
H	-1.933804	0.329675	-2.91806
H	-2.14179	1.316292	-1.457248
N	0.463629	1.063898	-2.035132
H	0.365623	1.105394	-3.041368
H	1.437005	0.907216	-1.775363
N	-0.512829	-1.192371	0.729184
O	0.086286	-1.458767	1.768393
O	-1.490083	-1.795968	0.292804
N	-0.508923	1.193238	0.738439
O	-1.627431	1.094011	1.250083
O	0.201256	2.188638	0.751797
Cl	3.250726	0.0	0.0
