18

C	-0.381419	-0.003806	-1.479314
C	0.0	0.0	0.0
F	-1.764109	0.027678	-1.642569
H	1.090159	0.0	0.0
C	0.210467	1.185911	-2.215732
H	0.020297	1.04808	-3.284907
H	1.288841	1.211111	-2.041347
H	-0.2427	2.120642	-1.896206
N	0.079243	-1.27754	-1.973075
H	1.014258	-1.470192	-1.620186
H	0.12935	-1.236245	-2.984414
N	-0.535026	-1.221547	0.671728
O	-1.707048	-1.175278	1.041314
O	0.2172	-2.183014	0.769942
N	-0.481888	1.150883	0.81523
O	-1.078353	2.076114	0.270979
O	-0.215156	1.081313	2.011552
Cl	3.215294	0.0	0.0
