18

C	-0.460781	0.058556	-1.464016
C	0.0	0.0	0.0
F	-1.766293	0.606494	-1.502689
H	1.089342	0.0	0.0
C	0.445607	0.955912	-2.279506
H	0.133616	0.904095	-3.326943
H	1.479495	0.628363	-2.168022
H	0.362773	1.982475	-1.9366
N	-0.434696	-1.257726	-1.988381
H	-1.198199	-1.814178	-1.630798
H	-0.438335	-1.243952	-2.996956
N	-0.505176	-1.200876	0.72537
O	0.236397	-1.694656	1.565527
O	-1.644964	-1.591917	0.459652
N	-0.467133	1.183103	0.793351
O	-0.179403	2.282875	0.338765
O	-1.071607	0.978805	1.842295
Cl	3.249895	0.0	0.0
