16

C	-0.371386	-0.014136	-1.499882
C	0.0	0.0	0.0
F	-0.154314	1.277107	-1.991581
H	1.091008	0.0	0.0
N	0.49629	-0.963137	-2.094967
H	0.397956	-0.949692	-3.102821
H	1.466192	-0.784258	-1.831825
N	-1.773412	-0.248471	-1.719359
H	-1.995304	-0.009466	-2.678515
H	-1.968004	-1.230561	-1.5678
C	-0.520709	-1.187878	0.654359
N	-0.929779	-2.16398	1.162404
N	-0.541834	1.230338	0.656682
O	0.153262	2.238158	0.591976
O	-1.656136	1.150926	1.175947
Cl	3.254709	0.0	0.0
