16

C	-0.463784	0.032363	-1.471011
C	0.0	0.0	0.0
F	-1.880632	-0.067155	-1.424627
H	1.090662	0.0	0.0
N	-0.015482	1.16408	-2.164669
H	-0.276787	2.022839	-1.707736
H	-0.338873	1.110127	-3.119821
N	-0.015301	-1.123164	-2.188787
H	-0.361863	-1.968254	-1.751252
H	1.000367	-1.128188	-2.169835
C	-0.474412	-1.230612	0.624224
N	-0.852785	-2.257546	1.049934
N	-0.444492	1.154569	0.854845
O	-0.595742	0.936683	2.052702
O	-0.573345	2.256039	0.323542
Cl	3.170923	0.0	0.0
