18

C	-0.419034	0.039086	-1.476377
C	0.0	0.0	0.0
F	0.02292	-1.192083	-2.028046
H	1.095622	0.0	0.0
N	-1.835361	0.147098	-1.622617
H	-2.286254	-0.651795	-1.192554
H	-2.069448	0.147098	-2.609017
C	0.30449	1.129969	-2.232084
H	-0.006628	2.110068	-1.868609
H	0.074271	1.051274	-3.298965
H	1.378979	1.00889	-2.083617
C	-0.481376	-1.246214	0.74572
H	-1.56913	-1.265953	0.865545
H	-0.029622	-1.265861	1.738881
H	-0.15377	-2.133392	0.204553
C	-0.460971	1.213454	0.670422
N	-0.851388	2.178211	1.215128
Br	3.555568	0.0	0.0
