18

C	-0.369211	-0.015129	-1.501405
C	0.0	0.0	0.0
F	-0.154772	1.288697	-1.956239
H	1.097721	0.0	0.0
N	0.505894	-0.855368	-2.272286
H	0.283435	-1.830575	-2.120455
H	1.467495	-0.69953	-1.967647
C	-1.821481	-0.341563	-1.785496
H	-1.999526	-0.196024	-2.85184
H	-2.472345	0.326818	-1.217309
H	-2.059532	-1.375295	-1.524266
C	-0.42642	-1.275324	0.733062
H	-0.048991	-2.150636	0.199504
H	-1.511714	-1.353814	0.835945
H	0.021034	-1.285164	1.728368
C	-0.543216	1.170136	0.67666
N	-1.033237	2.069234	1.253084
Br	3.514733	0.0	0.0
