18

C	-0.298293	-0.000595	-1.511475
C	0.0	0.0	0.0
F	-1.687489	0.088967	-1.687457
H	1.096254	0.0	0.0
N	0.282176	1.130742	-2.192213
H	-0.001508	1.981866	-1.715947
H	1.293511	1.061031	-2.091475
C	0.18626	-1.276663	-2.165315
H	-0.396635	-2.130101	-1.818076
H	1.241496	-1.433603	-1.927232
H	0.062657	-1.175319	-3.244482
C	-0.531423	-1.206329	0.771906
H	-0.000705	-2.106873	0.461798
H	-1.602925	-1.337515	0.602557
H	-0.35677	-1.074323	1.841295
C	-0.487469	1.244882	0.586935
N	-0.89666	2.234504	1.070677
Br	3.493756	0.0	0.0
