18

C	-0.371291	-0.031878	-1.49994
C	0.0	0.0	0.0
F	-0.128557	1.259783	-1.97452
H	1.097797	0.0	0.0
N	0.48274	-0.905222	-2.256033
H	1.447389	-0.788005	-1.942324
H	0.215074	-1.871616	-2.117398
C	-1.831461	-0.325616	-1.776903
H	-2.003536	-0.210219	-2.848203
H	-2.103628	-1.341402	-1.479851
H	-2.460831	0.38309	-1.23318
C	-0.430999	-1.263265	0.750633
H	-0.060593	-2.147199	0.226504
H	0.019392	-1.263209	1.744628
H	-1.516452	-1.333797	0.85809
C	-0.54034	1.181175	0.660176
N	-1.041728	2.084354	1.219897
Br	3.51205	0.0	0.0
