17

C	0.0	0.0	0.0
C	-0.583717	-0.093777	-1.405287
F	1.426899	0.0	0.0
H	-1.685096	-0.150375	-1.195346
N	-0.358782	1.272354	0.575945
H	0.335517	1.531214	1.277849
H	-1.296881	1.153662	0.970733
N	-0.414977	-1.116952	0.783028
H	0.232049	-1.267885	1.544586
H	-0.535393	-1.958494	0.240632
C	-0.142373	-1.313215	-2.074972
N	0.18803	-2.293484	-2.632739
C	-0.269929	1.134895	-2.259848
H	-0.71927	1.030752	-3.250942
H	0.810589	1.26992	-2.370587
H	-0.68684	2.007943	-1.76278
H	-3.357884	0.0	0.0
