17

C	0.0	0.0	0.0
C	-0.175739	-0.068664	-1.557147
F	1.405595	0.0	0.0
H	0.289107	0.861677	-1.906996
N	-0.396453	1.288774	0.466818
H	-0.625885	1.275481	1.449424
H	0.306547	1.994383	0.253237
N	-0.633607	-1.081018	0.628299
H	-1.667239	-0.846437	0.41666
H	-0.52498	-0.986138	1.621321
C	-1.506415	-0.115243	-2.206297
N	-2.479484	-0.27057	-2.851058
C	0.61237	-1.255414	-2.138374
H	1.674432	-1.172595	-1.901357
H	0.495608	-1.298189	-3.224416
H	0.23442	-2.181722	-1.698569
H	-2.966396	0.0	0.0
