17

C	0.0	0.0	0.0
C	-0.572283	-0.218217	-1.393267
F	1.426524	0.0	0.0
H	-1.675233	-0.307686	-1.156676
N	-0.471568	1.2526	0.487181
H	-1.504579	1.110687	0.458941
H	-0.227887	1.31122	1.471728
N	-0.353266	-1.112338	0.860136
H	0.376844	-1.197439	1.55701
H	-0.383219	-1.97917	0.335961
C	-0.080401	-1.458876	-1.975362
N	0.288923	-2.461624	-2.468524
C	-0.330984	0.959519	-2.334582
H	0.737408	1.171747	-2.42767
H	-0.738957	0.738992	-3.324285
H	-0.829167	1.840043	-1.932414
H	-3.091862	0.0	0.0
