17

C	0.0	0.0	0.0
C	-0.591082	-0.070134	-1.400177
F	1.427169	0.0	0.0
H	-1.683211	-0.099411	-1.16959
N	-0.380597	1.254453	0.606188
H	0.442359	1.717425	0.998595
H	-1.139439	1.088119	1.285037
N	-0.418205	-1.119557	0.778676
H	-0.433439	-1.978103	0.245701
H	0.201541	-1.21878	1.567707
C	-0.182946	-1.292243	-2.085573
N	0.196504	-2.253744	-2.643724
C	-0.245931	1.166926	-2.224009
H	0.838503	1.29959	-2.287213
H	-0.65304	1.074081	-3.234743
H	-0.693111	2.028988	-1.730386
H	-3.441675	0.0	0.0
