17

C	0.0	0.0	0.0
C	-0.125723	-0.038221	-1.583582
F	1.41577	0.0	0.0
H	0.53961	-0.854764	-1.873495
C	-0.488808	1.278995	0.620615
H	0.021252	2.135366	0.179299
H	-1.568821	1.355249	0.47685
H	-0.268569	1.239868	1.689139
N	-0.517931	-1.133376	0.651951
H	-0.423997	-1.964182	0.079587
H	-1.520462	-0.974802	0.792359
C	0.360154	1.191342	-2.198007
N	0.809621	2.163366	-2.678659
N	-1.441878	-0.429198	-2.199748
O	-2.09888	0.429628	-2.769152
O	-1.69452	-1.628394	-2.129703
Cl	-3.671561	0.0	0.0
