17

C	0.0	0.0	0.0
C	-0.17166	-0.019353	-1.563678
F	1.418147	0.0	0.0
H	0.144004	0.956842	-1.934093
C	-0.531508	1.273538	0.598882
H	-0.271278	1.302925	1.659541
H	-0.08879	2.143541	0.110693
H	-1.623284	1.268706	0.493075
N	-0.53147	-1.124153	0.606685
H	-0.680727	-1.079787	1.601587
H	-0.232659	-2.01118	0.239356
C	-1.430652	-0.396925	-2.201341
N	-2.314185	-0.715924	-2.910021
N	0.865715	-0.968936	-2.136791
O	0.786893	-2.150078	-1.816517
O	1.709693	-0.485399	-2.881913
Cl	-3.940903	0.0	0.0
