17

C	0.0	0.0	0.0
C	-0.469806	-0.034251	-1.473264
F	1.405165	0.0	0.0
H	-1.56611	0.071059	-1.433211
C	-0.500977	1.221863	0.724723
H	-0.159918	1.162192	1.761953
H	-1.592213	1.226583	0.684866
H	-0.100647	2.129234	0.274663
N	-0.480775	-1.199828	0.575646
H	0.160349	-1.972423	0.473548
H	-0.872029	-1.104933	1.497495
C	-0.072536	-1.284974	-2.110005
N	0.242003	-2.306757	-2.59461
N	0.10817	1.112739	-2.251306
O	-0.493929	2.180881	-2.172654
O	1.15324	0.925451	-2.872182
Cl	-3.704209	0.0	0.0
