17

C	0.0	0.0	0.0
C	-0.127282	-0.030203	-1.58589
F	1.415757	0.0	0.0
H	0.560047	-0.826684	-1.879418
C	-0.485002	1.276614	0.629718
H	0.033537	2.133378	0.198978
H	-1.56403	1.364558	0.484401
H	-0.268155	1.226359	1.698607
N	-0.516843	-1.137122	0.644974
H	-0.434918	-1.962803	0.062916
H	-1.516807	-0.974533	0.80026
C	0.325067	1.214634	-2.193706
N	0.749366	2.201012	-2.668478
N	-1.431012	-0.457361	-2.203554
O	-2.101553	0.377271	-2.792797
O	-1.659118	-1.660481	-2.116517
Cl	-3.66515	0.0	0.0
