17

C	0.0	0.0	0.0
C	-0.128592	0.026989	-1.584147
F	1.415582	0.0	0.0
H	0.539636	-0.774757	-1.908058
C	-0.488927	1.252021	0.673778
H	0.018862	2.12662	0.266587
H	-0.266652	1.169462	1.739269
H	-1.569634	1.331649	0.534818
N	-0.512689	-1.160707	0.606428
H	-1.513844	-1.009878	0.764901
H	-0.42544	-1.964446	-0.0036
C	0.351927	1.282426	-2.147324
N	0.79655	2.276957	-2.585224
N	-1.444046	-0.346096	-2.214349
O	-2.094653	0.52598	-2.770118
O	-1.698622	-1.545817	-2.173049
Cl	-3.668439	0.0	0.0
