12
Coordinates from ORCA-job run
  C   -0.36822557101029      0.50971577273321     -0.46622804744752
  C   0.34313470262612     -0.58316413039907      0.30598208145040
  F   -0.09168034209221      0.35914273241420     -1.81435361233800
  H   -0.07254785978789     -0.63628558728131      1.32184570000705
  H   0.04428390097072      1.49202823958171     -0.19497141413180
  H   0.08542660215134     -1.51872153373240     -0.19573628541408
  N   -1.79613718404201      0.38139412515316     -0.32018230268523
  H   -2.25955726320663      1.10547844534338     -0.85494658930187
  H   -2.06150492211641      0.48663795451584      0.65057747524908
  N   1.78677525198580     -0.36707409810786      0.28670517959935
  H   2.27878875009813     -1.23006618438494      0.11138794661052
  H   2.11124393442333      0.00191426416409      1.16891986840208
