12
Coordinates from ORCA-job run
  C   -0.71592549660565      0.52810448126489      0.32049424717465
  C   0.71741326822857      0.05936847456391      0.49545092331307
  F   -0.83919274753726      1.73312492275174      1.01357489808531
  H   0.93298378812623     -0.00735738628625      1.56892773975248
  H   -1.41983470055198     -0.15080488296582      0.82509352352981
  H   1.34639382960655      0.84595571498524      0.07242049293661
  N   -0.98482626456322      0.73882915295528     -1.06031754642338
  H   -0.49919298047729      0.02727496557987     -1.59249005999153
  H   -1.97360047000417      0.70574182327924     -1.26410017097282
  N   0.93728117062686     -1.17652973753332     -0.25526848390032
  H   0.56994919775003     -1.96720808752550      0.26016841664402
  H   1.92755140540134     -1.33649944106929     -0.38295398014790
