12
Coordinates from ORCA-job run
  C   -0.39116661761233      0.86385332749760      0.01007951403404
  C   0.39218476409009     -0.19977883118521      0.75976609887111
  F   0.58374449667594      1.68292353351689     -0.60756717178015
  H   -0.30348594339731     -0.75520744184517      1.39503370968025
  H   -0.92185231241306      1.52275183195430      0.70262459440887
  H   1.12882226412307      0.29790266345161      1.40441993712894
  N   -1.26350588053865      0.33282265438691     -0.96208019772409
  H   -2.23851043925209      0.51381135975832     -0.80178393708057
  H   -1.05664962402843     -0.63145792939810     -1.17493932044381
  N   0.96992428782804     -1.12306839241625     -0.21369826554825
  H   1.65479783002389     -0.62395695582396     -0.76809315915112
  H   1.44569717450084     -1.88159581989695      0.25623819760477
