12
Coordinates from ORCA-job run
  C   -0.35556210034368      0.71661412720303     -0.29671200575505
  C   0.34632944530439     -0.57543677503367      0.09540948728076
  F   0.10016604560515      1.06973694579400     -1.55758109953878
  H   -0.14847717169050     -0.96469483847616      0.99827326844505
  H   -0.07365910610619      1.53009896882400      0.38002167784157
  H   0.15721913939804     -1.28763083345498     -0.71468837062044
  N   -1.78331312233225      0.62417442872445     -0.33436037715471
  H   -2.09912027769490     -0.29811574668118     -0.60231799345411
  H   -2.20937586151129      0.89253287247597      0.53912995027427
  N   1.78514273911820     -0.38932888192192      0.23217263312869
  H   2.00919217328633     -0.05182092074336      1.15918038535919
  H   2.27045809696669     -1.26612934671017      0.10247244419357
