12
Coordinates from ORCA-job run
  C   -0.54113215993752      0.72577322638985      0.20876036739959
  C   0.46288341065050     -0.27092313455338      0.74962229238587
  F   0.21844063883608      1.69166588679970     -0.51750926609562
  H   -0.07579434493643     -1.00123430499526      1.35694149768398
  H   -1.02289485254107      1.29480246687511      1.00709565374112
  H   1.16999071910710      0.26559674730841      1.39572422324724
  N   -1.50502225844571      0.08369392812698     -0.59284367941302
  H   -2.10355049086574      0.74727088332423     -1.06412965956433
  H   -1.03728392510018     -0.51632069567854     -1.26061019237351
  N   1.08744730657340     -0.95716911900635     -0.37998245268535
  H   1.71735994108551     -0.31618718806967     -0.84520248482066
  H   1.62855601557405     -1.74796869652107     -0.05786629950533
