12
Coordinates from ORCA-job run
  C   -0.41320975813237      0.68173788521733     -0.00800936467861
  C   0.34000713997525     -0.62650678213942      0.10015331319949
  F   0.43994780952854      1.55940054121821     -0.70767189654190
  H   -0.26825859823387     -1.32244365366105      0.68448385387646
  H   -0.53956293913531      1.13025691965797      0.97975113003703
  H   0.43295004579587     -1.03233184871002     -0.92163566066716
  N   -1.65299648206678      0.57544903012471     -0.68416369190735
  H   -2.45565456644049      0.79236230514736     -0.11944013594099
  H   -1.77636823225711     -0.28198857508924     -1.19872909417118
  N   1.60858013813267     -0.41503263307356      0.78346893616051
  H   2.16759913001529      0.22369061928572      0.23276826203714
  H   2.11696631281831     -1.28659380797800      0.85802434859654
