12
Coordinates from ORCA-job run
  C   -0.32734050474677      0.47408768465552     -0.35199785786468
  C   0.36026623374377     -0.44538912796631      0.64142117746330
  F   -0.18076421586523     -0.12643842170640     -1.63180998172755
  H   0.29722354305311      0.00787585669136      1.63305394979364
  H   0.19165576933355      1.43344424164497     -0.43069165024339
  H   -0.20460660995799     -1.38395873308279      0.67520629273693
  N   -1.68191259182854      0.69526686102608     -0.01473613097892
  H   -2.18950452220654     -0.17899857107698      0.02915848073614
  H   -2.13614726657266      1.30674822154738     -0.67943263395615
  N   1.74816995932491     -0.76114135924802      0.34077090765877
  H   1.80795910762793     -1.09620010693703     -0.61248277254892
  H   2.31500109809445      0.07570345445222      0.40254021893081
