12
Coordinates from ORCA-job run
  C   -0.38026281087848      0.72933074163434      0.02704893106889
  C   0.48748387187802     -0.21509506448206      0.84346353793727
  F   0.44910632230036      1.54348142677984     -0.73717589414216
  H   -0.16376077684317     -0.85414102683234      1.45139782554041
  H   -0.93992451052926      1.41538225466887      0.68021692462559
  H   1.08494563113331      0.38195792688912      1.53752334400219
  N   -1.19731201535989     -0.01217394304090     -0.90091059447916
  H   -1.74346347886497      0.62680963156899     -1.46558781846889
  H   -1.83691567362418     -0.61128341869668     -0.39344610203377
  N   1.37851106854445     -1.05071371854962      0.05391874095080
  H   0.82992961145308     -1.50669932835256     -0.66575320493971
  H   2.03166276079071     -0.44685548158699     -0.43069569006148
