12
Coordinates from ORCA-job run
  C   -0.34111635278856      0.57387886851089     -0.27943529926349
  C   0.33002062158154     -0.64816605183903      0.32885223359642
  F   0.20083861230601      0.71913289093116     -1.57350735572166
  H   -0.03056168242572     -1.52366982746061     -0.22344031771976
  H   -0.04486866676756      1.48827761979581      0.24565154844593
  H   -0.00647875179322     -0.75272872535944      1.36464201489224
  N   -1.74643855411014      0.44608284430074     -0.34676748221573
  H   -2.27072466874113      1.21057813646708      0.04017134245902
  H   -2.10837911821171     -0.45000191571635     -0.06471838241198
  N   1.78298528430370     -0.66139105519767      0.29730228365573
  H   2.14894317614109      0.09379492837134      0.86432785015994
  H   2.08578010050571     -0.49478771280391     -0.65407843587666
