12
Coordinates from ORCA-job run
  C   -0.67279345905861      0.49099786166608      0.30897996016328
  C   0.73596775034929      0.00217137794215      0.61776882779447
  F   -0.86675150965295      1.64746239517350      1.08621442010492
  H   1.43674156437921      0.75742040961465      0.24452969526810
  H   -1.41943629607486     -0.22824290829512      0.66072776216018
  H   0.86519249153736     -0.03902884387975      1.70086927777630
  N   -0.88038463582434      0.76935098782756     -1.05683428010559
  H   -0.06503501981422      0.91880357555214     -1.62522612460968
  H   -1.63098393697490      0.29689764556377     -1.52379430269209
  N   1.08530952987858     -1.29258581041298      0.05135616166643
  H   0.52534844307759     -2.02115070384502      0.47668486497186
  H   0.88782507817784     -1.30109598690699     -0.94127626249816
