12
Coordinates from ORCA-job run
  C   -0.50725947109110      0.68523902218774      0.21048383463425
  C   0.54944467795016     -0.20679438626962      0.83954232710671
  F   0.18887636521315      1.69376248813956     -0.50899537289267
  H   0.05289395513873     -0.90882406248126      1.51339115589937
  H   -1.08017171379096      1.21534468286428      0.97561266167483
  H   1.20333584295482      0.42815198930593      1.44286172853729
  N   -1.39443993833179     -0.03395627999781     -0.62643970980486
  H   -0.88530933841097     -0.46056817077953     -1.38920424666741
  H   -2.10159988594337      0.57517152800482     -1.01530351998208
  N   1.37448330056746     -0.95725456991949     -0.09523297215099
  H   0.84592429271657     -1.69109430056647     -0.54684380119712
  H   1.75182191302729     -0.33817794048814     -0.80087208515732
