12
Coordinates from ORCA-job run
  C   -0.44039073731906      0.78908005993344      0.12081745970579
  C   0.49531968929511     -0.20820345430767      0.79638593284039
  F   0.39694381329647      1.73307253681330     -0.49339192851638
  H   1.11352858099504      0.33867078556459      1.51400634640761
  H   -1.02616574530921      1.33559641631323      0.86622098749335
  H   -0.10419030046828     -0.92893094073792      1.36048919575910
  N   -1.32499968738882      0.26044585601680     -0.86227414768813
  H   -0.95512072030770     -0.56211815267797     -1.31514380817512
  H   -2.24955901599310      0.08429439777824     -0.50301195829554
  N   1.38080103890288     -0.93527213617392     -0.10209594121067
  H   0.88143641809789     -1.62169082711377     -0.65141025731884
  H   1.83339666619878     -0.28494454140836     -0.73159188100157
