15

C	-0.540432	-0.007287	-1.42469
C	0.0	0.0	0.0
Cl	0.004327	1.51858	-2.207243
H	1.090135	0.0	0.0
C	0.040385	-1.126134	-2.175198
N	0.521503	-2.014425	-2.775194
C	-2.004312	-0.056299	-1.563548
N	-3.16454	-0.094659	-1.748973
N	-0.512363	-1.161977	0.755785
O	-1.133499	-2.03375	0.145013
O	-0.240395	-1.181688	1.950105
N	-0.539289	1.1935	0.729658
O	0.25112	2.076553	1.046042
O	-1.756513	1.208239	0.945684
F	2.431132	0.0	0.0
