15

C	-0.4681	0.043157	-1.456514
C	0.0	0.0	0.0
Cl	0.285149	-1.311576	-2.360381
H	1.088908	0.0	0.0
C	-1.927578	-0.024387	-1.619528
N	-3.088217	-0.015985	-1.806459
C	-0.007426	1.282496	-2.096894
N	0.277663	2.255925	-2.690126
N	-0.508039	-1.182011	0.725268
O	-0.113877	-1.288651	1.881118
O	-1.241985	-1.98143	0.141636
N	-0.521393	1.203808	0.708902
O	-1.540894	1.088033	1.390425
O	0.108289	2.243359	0.530675
F	2.429036	0.0	0.0
