15

C	-0.418586	0.004876	-1.46419
C	0.0	0.0	0.0
Cl	-2.179321	-0.326346	-1.717477
H	1.09079	0.0	0.0
C	-0.102651	1.299416	-2.078419
N	0.190268	2.310891	-2.599019
C	0.328519	-1.004823	-2.227818
N	0.938524	-1.745852	-2.905938
N	-0.484822	-1.225134	0.670172
O	-0.233824	-2.272173	0.078392
O	-1.084762	-1.137239	1.739547
N	-0.479583	1.182715	0.739497
O	-1.307332	1.92714	0.206428
O	0.011009	1.346756	1.851665
F	2.405276	0.0	0.0
