15

C	-0.43791	0.04137	-1.46675
C	0.0	0.0	0.0
Cl	-0.077103	-1.576792	-2.173585
H	1.09012	0.0	0.0
C	-1.859623	0.322129	-1.700697
N	-2.995637	0.513682	-1.933604
C	0.368465	1.022306	-2.203773
N	0.939526	1.789662	-2.885389
N	-0.586207	-1.181115	0.689032
O	0.182506	-1.972617	1.220971
O	-1.816853	-1.272168	0.665639
N	-0.480475	1.187959	0.720831
O	-0.521128	1.118837	1.947038
O	-0.73793	2.18886	0.048007
F	2.426474	0.0	0.0
