15

C	-0.515951	-0.007114	-1.438281
C	0.0	0.0	0.0
Cl	0.014065	1.533779	-2.201919
H	1.090123	0.0	0.0
C	0.101763	-1.10592	-2.186432
N	0.58342	-1.992618	-2.788228
C	-1.97633	-0.084153	-1.582861
N	-3.134993	-0.128279	-1.775335
N	-0.495499	-1.170797	0.743322
O	-1.025945	-2.085122	0.105257
O	-0.287739	-1.170959	1.952392
N	-0.532884	1.193779	0.723508
O	-1.743894	1.195861	0.963064
O	0.258149	2.079013	1.023134
F	2.427406	0.0	0.0
