14
Coordinates from ORCA-job run
  C   0.56300995112234      0.75466290921420     -0.33630221774514
  C   -0.41688962097202     -0.16296887552611      0.36794914879697
  F   0.56314081673258      0.48865201632076     -1.66493104106443
  H   -0.41316494101124      0.05954838638197      1.43543388367699
  H   0.36059545027154      1.81007184411213     -0.16267990724823
  N   1.93086684613619      0.46568474114706      0.23063910422600
  O   2.77222869403650     -0.02258105245390     -0.50463563067057
  O   2.04803500846526      0.76355307292810      1.41404320891882
  N   -0.10837436941286     -1.50981010584331      0.11025776686057
  H   -0.16140821095725     -1.72698424718597     -0.87570099309907
  H   -0.69505031006616     -2.14635501239176      0.62957382495559
  N   -1.81589205952941      0.29526885306196     -0.10889236945654
  O   -2.10221684846624      1.46440274615307      0.12846501953355
  O   -2.52488040634922     -0.53414527591821     -0.66421979768451
