14
Coordinates from ORCA-job run
  C   0.53095810425715      0.74045375476443     -0.30623625928812
  C   -0.54244426999809     -0.14831860059723      0.31526011401774
  F   0.62356913571854      0.48164543510012     -1.63162267864879
  H   -0.61996869520872      0.08262498996736      1.37733322111626
  H   0.37172899898072      1.80439693129309     -0.13510552370443
  N   1.83074340947966      0.37036629809377      0.35993127074196
  O   2.66442026087724     -0.24138949322956     -0.29136726468348
  O   1.89881243152711      0.69832236968998      1.54046526666524
  N   -0.39094327498765     -1.53261125645588      0.09712271289024
  H   -0.02838036625075     -1.76694636362658     -0.81502316038245
  H   0.10735143179481     -2.00319268258025      0.83540023050378
  N   -1.84677648910706      0.36520572070659     -0.29992925197304
  O   -2.15684924480237      1.50450914501858      0.04075016354477
  O   -2.44222143228059     -0.35406624814440     -1.08597884079966
