14
Coordinates from ORCA-job run
  C   0.56300827851151      0.64214658563441     -0.43999286021922
  C   -0.51966770281911     -0.05350316341409      0.38041396705653
  F   0.49392789045024      0.22910390113142     -1.72706054751493
  H   -0.46710300515663      0.30339218468193      1.40851672964306
  H   0.52297766023274      1.72955859123099     -0.38547802639679
  N   1.88402108769920      0.21435210999281      0.14458030107579
  O   2.10050650217628      0.65735597700381      1.26834923600697
  O   2.58885887006176     -0.54420241018253     -0.50439081226913
  N   -0.52122173333595     -1.46257151373782      0.32250886202008
  H   -0.28560336896002     -1.83452137569667     -0.58564385109164
  H   0.01554572015938     -1.89338600720924      1.05832948566990
  N   -1.82478009237838      0.51808150584709     -0.17499519621867
  O   -2.00162139343641      1.71100531484934      0.06146203634395
  O   -2.54984871320462     -0.21681170013146     -0.82659932410589
