14
Coordinates from ORCA-job run
  C   0.92696076226641     -0.05266065295788      0.25819719980262
  C   -0.59885852873149      0.01517233428623      0.31798171365550
  F   1.40149117520238      0.07493031097366      1.52351015818082
  H   -0.89088050469722      1.00686747398473      0.66499225722139
  H   1.29897862575321     -0.96952369208050     -0.19920614330552
  N   1.43817346138504      1.09636720985499     -0.56547531657203
  O   1.44355533927067      2.19601840809477     -0.02589872066190
  O   1.75394073727050      0.82731305334268     -1.72144812223888
  N   -1.21900677714320     -0.99794961793518      1.10695530034108
  H   -1.09604009761405     -0.81157428703712      2.09228936144102
  H   -0.87062721443601     -1.91961882470404      0.87780100796039
  N   -1.08698548948990     -0.11661500345858     -1.09690234804091
  O   -1.49940979817568      0.89393875821782     -1.65596077621078
  O   -1.00129169086066     -1.24366547058160     -1.57783557157278
