14
Coordinates from ORCA-job run
  C   1.01134444201678      0.07546740445571      0.20530928837021
  C   -0.48665987633400     -0.07012358206293      0.40535420393538
  F   1.61012450230706      0.24568746269199      1.41305324547092
  H   -0.89533659919109      0.86813555950155      0.77923884917928
  H   1.46905629232787     -0.76060936513326     -0.32177836467962
  N   1.33917924097562      1.31139778247050     -0.59392627382999
  O   2.40758663538444      1.28816110112535     -1.19326698394426
  O   0.55096495764969      2.25054000607007     -0.53231420679390
  N   -0.78582135031553     -1.13468008468094      1.29109430965413
  H   -1.76340019244869     -1.12746090593293      1.54724707324709
  H   -0.54987399106503     -2.03811637297527      0.90052290218423
  N   -1.13857672514496     -0.24673637331968     -0.97243151152459
  O   -2.35181883524962     -0.41770625044198     -0.96043140655764
  O   -0.41576850091253     -0.24295638176819     -1.96767112471124
