14
Coordinates from ORCA-job run
  C   1.01094448245674      0.02486993267579      0.28809378337213
  C   -0.49928867726373      0.03967732859821      0.43834222272833
  F   1.57130634650210      0.44631400992489      1.45114683730712
  H   -0.81990725227851      1.01880656864263      0.78877536789110
  H   1.41794599732575     -0.94376350274878      0.00481528810979
  N   1.44117548536106      0.99927466809091     -0.77484382382192
  O   2.40882914953247      0.67893557252186     -1.45707929048753
  O   0.81721821722969      2.05745541585814     -0.82823282502913
  N   -0.90787445146174     -0.98473200292684      1.33202746358412
  H   -0.75126685482536     -1.90958497700445      0.95190129518936
  H   -1.87352768323187     -0.88046848142592      1.61110271400334
  N   -1.11143319012629     -0.11545810696486     -0.94344364013330
  O   -2.17148559918457      0.46179435140223     -1.15626050592831
  O   -0.53363597003574     -0.89212077664381     -1.70734488678509
