14
Coordinates from ORCA-job run
  C   0.96020605093177     -0.05062813948120      0.24308884002196
  C   -0.55414908162844     -0.04186460950924      0.24331864595504
  F   1.37447632556047      0.06066848616196      1.54332724217283
  H   -0.91438141641077      0.95488543587261      0.52295171637016
  H   1.38526342929450     -0.94413206798669     -0.20747447053131
  N   1.53313526803671      1.13529156660454     -0.48034277706702
  O   0.94193802785627      2.20332507212278     -0.34573496212420
  O   2.57667390501856      0.94357220320792     -1.09351582483016
  N   -1.02398745862840     -1.14769828018681      1.03642676877563
  H   -2.03634951649649     -1.14516241515941      1.05048731032275
  H   -0.68397420790281     -1.04944767199242      1.98462142120445
  N   -1.05670500122742     -0.25831897034706     -1.15745074578607
  O   -0.24181217947843     -0.20894569805315     -2.07539661076733
  O   -2.26133414492553     -0.45154491125382     -1.26330655371673
