14
Coordinates from ORCA-job run
  C   0.61853148104332      0.61104716337755     -0.40880231101021
  C   -0.58424730792850     -0.03445042585689      0.27378095598729
  F   0.82952121784547      0.02237879853847     -1.60927711655294
  H   -0.75611251210244      0.46104928607452      1.22884205510849
  H   0.53015490350602      1.69082629717659     -0.52387279475952
  N   1.80597888697672      0.35290712355738      0.48198544596845
  O   2.65504097586028     -0.44043258434803      0.10373241754179
  O   1.77180175844018      0.95774228728252      1.54917584027935
  N   -0.52474088640446     -1.43547277587420      0.42287287258376
  H   -0.09731153880050     -1.91164740220691     -0.35760864995521
  H   -0.13366758339836     -1.72752463768008      1.30430046945303
  N   -1.76698652644265      0.37209222707817     -0.60628072545584
  O   -2.31787532627262     -0.48979473741272     -1.27262191681634
  O   -2.03008754232246      1.57227938029362     -0.58622654237209
