14
Coordinates from ORCA-job run
  C   0.58475105258055      0.70113520873479     -0.40703029666644
  C   -0.42933676188390     -0.11229132619244      0.37274978799494
  F   0.61535390797668      0.28004104612763     -1.69451521483154
  H   -0.44875085036784      0.23555364183927      1.40609498800405
  H   0.39644611116702      1.77248791926767     -0.36439641941878
  N   1.93205373698341      0.46183656829215      0.22838388138185
  O   2.02448337044728      0.89800743601992      1.37037411727423
  O   2.78267639149140     -0.12438754978215     -0.41965278392021
  N   -0.13822848985158     -1.48447979673335      0.28481632471220
  H   -0.16610066129299     -1.81574805663256     -0.66993629434148
  H   -0.75097769883028     -2.04681038963441      0.85697187155895
  N   -1.80673598062663      0.30676761371883     -0.19347883608397
  O   -2.51375272244459     -0.57136605817980     -0.67121965638679
  O   -2.07988140534852      1.49925374315444     -0.10016146927701
