14
Coordinates from ORCA-job run
  C   0.64547811442401      0.49861285730839     -0.50746808424349
  C   -0.57219863238951      0.05094239994220      0.29611323264750
  F   0.75392512329216     -0.25498178355514     -1.62648965203065
  H   -0.66067627871151      0.67907724819774      1.18199161453242
  H   0.63797491526131      1.55833675429154     -0.76034946113490
  N   1.84804536225026      0.25708808651147      0.36749745540300
  O   2.61377625983941     -0.64663378682352      0.06702245537680
  O   1.91061898585540      0.99446049160637      1.34641318393289
  N   -0.61707473347288     -1.31885314582439      0.62806623960727
  H   -0.21276530221318     -1.52558682164228      1.52746479083945
  H   -0.26213091850297     -1.92652939646217     -0.09536144947659
  N   -1.75796606279272      0.43858051832780     -0.58874428520916
  O   -2.40372100064376     -0.45266226443443     -1.11702633908983
  O   -1.92428583219603      1.64914884255644     -0.71912970115469
