14
Coordinates from ORCA-job run
  C   0.88901170185500      0.10852741994862      0.35524996134418
  C   -0.62669216492362     -0.06237680804414      0.25302034456268
  F   1.19311390138532      0.37586961961806      1.65075187054751
  H   -1.10264115373094      0.88789294405998      0.49740582543937
  H   1.44407479522083     -0.76143435622670      0.00400049439109
  N   1.31078226338979      1.27786909006262     -0.48986857612886
  O   1.77984065219965      0.99929536792106     -1.59024211213929
  O   1.10164517948257      2.39224240147365     -0.02663895854479
  N   -1.17086407135638     -1.11678628958478      1.04396967794228
  H   -0.66443584643327     -1.98307104886971      0.91549062759380
  H   -1.18624162223717     -0.86117848356916      2.02134055514875
  N   -0.92750001010651     -0.34487943811608     -1.19169032965746
  O   -1.41666530439268      0.55906843600114     -1.86067266125986
  O   -0.62442832035260     -1.47003885467456     -1.58011671923941
