14
Coordinates from ORCA-job run
  C   0.65921375999156      0.47791121484650     -0.57935158776379
  C   -0.44410550036136      0.05167576303875      0.36898242256517
  F   0.66532036541608     -0.33120824034977     -1.66615866626826
  H   -0.44203554633641      0.70945297282066      1.23877183513533
  H   0.58086494737965      1.51992667716950     -0.88445194256641
  N   1.96566206010803      0.32942173014490      0.16037846103535
  O   2.08531258032237      1.09436480891110      1.11082332716550
  O   2.76201989968736     -0.50668697653941     -0.23173386910558
  N   -0.29439666217418     -1.29845571773997      0.72921872515330
  H   -0.96937713462591     -1.59133519701372      1.42031529727315
  H   -0.34220484876308     -1.91073724022826     -0.07378781923855
  N   -1.76335961783211      0.39653291137097     -0.36236169769355
  O   -1.91274866269933      1.57660266087384     -0.66271869870897
  O   -2.55116564011266     -0.51746536730509     -0.56992578698269
