14
Coordinates from ORCA-job run
  C   0.62973145980347      0.69525589766651      0.52108091805400
  C   -0.68879412357010     -0.07797545910005      0.42098168514350
  F   0.38402916124438      2.02038227495504      0.41444028568893
  H   -1.35093445257115      0.33471073701870      1.18319832798487
  H   1.12807520596424      0.47688522488837      1.46730505660811
  N   1.61614453946180      0.29863926751456     -0.55439886507196
  O   2.04361876753629     -0.84820149874367     -0.44534262624284
  O   1.91329610433059      1.12193430981168     -1.40170857555760
  N   -0.64008024551897     -1.49408917053569      0.50242021750665
  H   0.19949920490008     -1.88193297538975      0.09670497538463
  H   -0.78264386300715     -1.83084874708865      1.44169848418355
  N   -1.33123427284085      0.31129621081241     -0.89482955688542
  O   -0.75176669822621     -0.08951851736966     -1.89963567421025
  O   -2.36794078750643      0.96346244556020     -0.85191465258616
