14
Coordinates from ORCA-job run
  C   0.63563892508036      0.57238738702204     -0.51705863325131
  C   -0.45053864296301     -0.01178650147148      0.36442217700944
  F   0.70271322536311     -0.12171579105415     -1.67900645772494
  H   -0.49905064118314      0.55365732381976      1.29558606461221
  H   0.49789559464402      1.63321509451112     -0.71875683485990
  N   1.94006534964399      0.42756944860122      0.22666669869720
  O   2.79034685138789     -0.31570697473010     -0.23334190967816
  O   2.00177108214716      1.09792556065008      1.25127889048191
  N   -0.22263972448066     -1.38006511511151      0.59138917151284
  H   -0.22650588170060     -1.91086547144201     -0.26903611091977
  H   -0.88586695279370     -1.77970426498800      1.23906164573176
  N   -1.77959961308471      0.32489198322339     -0.35243090997935
  O   -1.99642474937661      1.51805899178097     -0.53834098754935
  O   -2.50880482268411     -0.60886167081135     -0.66143280408259
