14
Coordinates from ORCA-job run
  C   0.96168408941376      0.01741907542394      0.24107799730455
  C   -0.55210525843780     -0.02581911300796      0.25055548155999
  F   1.37458039924106      0.32673425970170      1.50941726560018
  H   -0.94604221595529      0.98765733561761      0.38889303944148
  H   1.41673793149935     -0.91615614046832     -0.08047964667741
  N   1.49168671038685      1.10691444157611     -0.64742844786168
  O   2.54193202596927      0.86674154174830     -1.23138821212623
  O   0.86244259151333      2.16149373073646     -0.66450534478299
  N   -0.98159641651612     -1.02327866173460      1.19542007004393
  H   -1.99335420343950     -1.05258051916577      1.21744398926003
  H   -0.64129049804534     -0.78187958429028      2.11746739462059
  N   -1.04935742889672     -0.45553660420893     -1.10194433219463
  O   -0.23860721518515     -0.50871214191055     -2.02337351055979
  O   -2.24671051154769     -0.70299762001773     -1.17115574362801
