14
Coordinates from ORCA-job run
  C   0.68960549332962      0.67664283331320      0.46424107739922
  C   -0.64905090926760     -0.06679541061393      0.47854652969303
  F   0.46311205128557      2.00701222141596      0.38217042367749
  H   -1.23008885230515      0.35364008354202      1.30036823780909
  H   1.26366094444888      0.44539996822124      1.36338428047777
  N   1.57435919557779      0.26546678364080     -0.69234388796919
  O   1.83716335376078      1.09423298959076     -1.54516581505988
  O   1.97048730490292     -0.89607144214257     -0.63323014024578
  N   -0.62527036955424     -1.48309432395744      0.54354848521361
  H   0.17366863195829     -1.88783857579796      0.07773984713368
  H   -0.72355595998854     -1.83199025358815      1.48354364583003
  N   -1.40125077655513      0.35145972138455     -0.76969785827817
  O   -0.90413263305838     -0.01511796360337     -1.83010345270158
  O   -2.43870747453481      0.98705336859490     -0.62300137297932
