14
Coordinates from ORCA-job run
  C   1.01147875713873      0.11564552402794      0.29097455442038
  C   -0.49905611481881     -0.01265116470177      0.44911974749395
  F   1.54517153973992      0.53868938588828      1.45507821411021
  H   -0.90245363953875      0.95186330526501      0.75946256598744
  H   1.48401024807004     -0.81139319137030     -0.03627116059622
  N   1.30335498074685      1.14725627579491     -0.76898181136322
  O   1.58218781292473      0.70759915060112     -1.88100897540047
  O   1.20041033762612      2.32005218596564     -0.43387139392835
  N   -0.80190494067691     -1.03572562909843      1.37557220525212
  H   -0.59758080989732     -1.94958765237605      0.99099511720653
  H   -1.76662177252729     -0.99986521170416      1.67414861725020
  N   -1.05913303707994     -0.26038685624758     -0.95380294029110
  O   -0.98436985863161     -1.41658985021092     -1.36322407724644
  O   -1.51649350307577      0.70509372816631     -1.55719066289502
