14
Coordinates from ORCA-job run
  C   0.69718806575829      0.68273231164223      0.44828328066376
  C   -0.64201597732124     -0.05973982546467      0.49139537030320
  F   0.47255318532362      2.01280220579503      0.35833809169369
  H   -1.21140135069288      0.37238180017712      1.31525851126710
  H   1.28746064780270      0.45697969645892      1.33815232303488
  N   1.55513506375467      0.25718659957266     -0.72220673600435
  O   1.77665678008857      1.06721101582210     -1.60478708099900
  O   1.96709933035725     -0.89817255940999     -0.64856899741113
  N   -0.61706421190802     -1.47533140604484      0.57741393955547
  H   0.16687712085845     -1.88705549250076      0.09217726883493
  H   -0.67843071977890     -1.80669390178595      1.52712914445704
  N   -1.40824215705336      0.33991046363555     -0.75408556418072
  O   -0.95198066139847     -0.08794118483737     -1.80979860419668
  O   -2.41283511579068      1.02673027693998     -0.60870094701819
