14
Coordinates from ORCA-job run
  C   0.92978575890465      0.05697935960524      0.24566220664918
  C   -0.59548359020140     -0.00756406262722      0.32544764009187
  F   1.40119063684817      0.34929900277376      1.48452809222062
  H   -0.97394181989355      0.98302027096597      0.57993864906553
  H   1.38017857994389     -0.86298900885161     -0.12724849263309
  N   1.32717913855847      1.16104561214705     -0.69375755349792
  O   1.64669770315423      0.80924003464095     -1.82630918643012
  O   1.24659551118862      2.30402194574078     -0.26091438939792
  N   -1.11312375284059     -0.99011130631391      1.22001656038192
  H   -0.68591416881878     -1.89516431908060      1.07245880072922
  H   -0.99531926105252     -0.69907828432580      2.18033650904431
  N   -1.08216361694447     -0.32050415561169     -1.06095056756290
  O   -1.58566636238694      0.59066839178582     -1.70922141471372
  O   -0.90201475645978     -1.47786348084875     -1.43098685394698
