14
Coordinates from ORCA-job run
  C   0.98604862907172      0.19209780132915      0.33329903147187
  C   -0.52234374849304     -0.00731653196798      0.42248003316102
  F   1.43241816315140      0.72637616726990      1.48847671077484
  H   -0.99166393727116      0.95326683110832      0.63777097344238
  H   1.52239608545419     -0.72886245085383      0.10107739675319
  N   1.28359603676739      1.15932678488390     -0.78411278490971
  O   1.65086054055323      0.65756064139596     -1.84289289968417
  O   1.09875870646480      2.34537583617682     -0.54419355810859
  N   -0.82321527856394     -0.97603626232560      1.40602870777623
  H   -0.54993502495039     -1.90228156912028      1.10245311945996
  H   -1.80372349473621     -0.97312014601648      1.65036062786945
  N   -0.98907316719599     -0.38662527627332     -0.98549838812510
  O   -1.46197373021200      0.50469663743573     -1.68342140566244
  O   -0.83014978003999     -1.56345846304228     -1.30182756421893
