14
Coordinates from ORCA-job run
  C   0.70500142185882      0.47200899125558     -0.52845728638352
  C   -0.47786402054618      0.05552034049104      0.32345042816091
  F   0.82550994759465     -0.36849301099329     -1.58442855557115
  H   -0.56845188410069      0.73851927333219      1.16868876625403
  H   0.64173807940114      1.50308024123665     -0.87190863951569
  N   1.93684800627565      0.36668320218067      0.33609690584802
  O   1.95426723648948      1.16041362397420      1.27025805496815
  O   2.77843898870447     -0.46713099904069      0.04697805166046
  N   -0.34422333326090     -1.28073308672162      0.73802763203318
  H   -0.30769756105248     -1.91724930092538     -0.04653940830661
  H   -1.07745903344315     -1.56424988048185      1.37125011366892
  N   -1.72564275257558      0.35582512539316     -0.54064291402662
  O   -1.86202983843260      1.52385138744233     -0.89061040214799
  O   -2.47743525691261     -0.57704590714300     -0.79316274664208
