14
Coordinates from ORCA-job run
  C   0.62357372148516      0.66433401778964     -0.30409188850678
  C   -0.58716791486694     -0.07448102858373      0.25909687196131
  F   0.84641922931122      0.26679136007013     -1.57856801429620
  H   -0.76816173747202      0.26962234115574      1.27695273560889
  H   0.53765883392417      1.74921277272573     -0.25229037175872
  N   1.80116443858094      0.26867583831689      0.54845424507662
  O   1.75706460530844      0.70353993499449      1.69511824876463
  O   2.65281869675624     -0.45998714866403      0.06153329688358
  N   -0.53120612004197     -1.48206143357334      0.19190595090797
  H   -0.15240083028110     -1.90685048384029      1.02331879220983
  H   -0.09274280905136     -1.83387689170221     -0.64631322572680
  N   -1.76009466074524      0.46587921971974     -0.55993557246444
  O   -2.02302321814626      1.64910354364931     -0.35743590561959
  O   -2.30290223476130     -0.28090204205806     -1.35874516304030
