14
Coordinates from ORCA-job run
  C   0.68830746192050      0.54239950722764     -0.39452420041218
  C   -0.59900208917266      0.02431138413983      0.24075234130145
  F   0.91445556896697     -0.10875367299096     -1.55941867437279
  H   -0.78151979649603      0.57183125238128      1.16495751363008
  H   0.69552249154204      1.62034593310843     -0.55242151760323
  N   1.79998965592474      0.22472558444222      0.57136618761644
  O   1.75974422697287      0.87467532271149      1.61150326342512
  O   2.59727763989125     -0.65178747643664      0.27224014083747
  N   -0.66377946895872     -1.36957547561441      0.44465915259340
  H   -0.34802938236082     -1.65468723569580      1.35798873928635
  H   -0.23343919378960     -1.91053119070269     -0.29070889567669
  N   -1.69429678477734      0.48742483924782     -0.72069455890631
  O   -2.27681781852073     -0.35405954503609     -1.38626549379412
  O   -1.85841251114248      1.70468077321789     -0.76043399792500
