14
Coordinates from ORCA-job run
  C   0.71466085681093      0.69128273283019      0.55268516694108
  C   -0.60426187344519     -0.07090390977114      0.45479263454800
  F   0.53086811319131      2.02969529467858      0.56607855195927
  H   -1.26793958416819      0.30367242266602      1.24398754178001
  H   1.26878784121613      0.38054858624161      1.43984704836639
  N   1.59274400527999      0.33643395407623     -0.61877190048932
  O   1.26999971654212      0.82227951427502     -1.69720244360455
  O   2.54434950382961     -0.39958593587184     -0.38670862808175
  N   -0.30552968693479     -1.47389596177824      0.44954072426163
  H   -0.18824990009137     -1.82052542184127      1.39209499819140
  H   -1.02694218678738     -1.99919060891719     -0.02458520244669
  N   -1.32793381176829      0.30424012231130     -0.82170246392740
  O   -1.78688395327227      1.43890742201046     -0.84728062786123
  O   -1.41266904040261     -0.54195821090972     -1.70377539963682
