14
Coordinates from ORCA-job run
  C   0.62959538464680      0.67255053764277     -0.27199798089329
  C   -0.59428612880730     -0.08141952082545      0.24018162318086
  F   0.89191907446229      0.30066231591492     -1.54684402588561
  H   -0.80681427142199      0.24168449089689      1.25884919360033
  H   0.53755844912649      1.75593638230722     -0.20225577567861
  N   1.78307790998277      0.26494061676655      0.60727667179269
  O   2.65369048616613     -0.44823166876393      0.13115382584496
  O   1.70156802792455      0.67489459505404      1.76106528582037
  N   -0.53071872924769     -1.48707292012535      0.14760975578128
  H   -0.07080099628231     -1.82157827843387     -0.68611325823611
  H   -0.17340194368289     -1.92756181167702      0.98028267976252
  N   -1.74460994091678      0.47048660218979     -0.60279926973096
  O   -2.26080918669843     -0.26312236828281     -1.43096511321622
  O   -2.01796813525164      1.64883102733625     -0.38644361214221
