14
Coordinates from ORCA-job run
  C   0.70537984855825      0.66631570663733      0.45796495749746
  C   -0.64887174601363     -0.04880878563407      0.48401341752149
  F   0.50851883843285      2.00118755591738      0.37295218410851
  H   -1.21714226495588      0.39009714134363      1.30509327900779
  H   1.28053644722618      0.42389094057276      1.35340986702662
  N   1.56839630610637      0.23008542168143     -0.70471330269896
  O   1.82067163022264      1.04207698210897     -1.57699694883661
  O   1.95409127932026     -0.93438437547101     -0.63409860984129
  N   -0.65389125056793     -1.46578092549271      0.56306665773294
  H   -0.72170126513288     -1.79890027990685      1.51192921663389
  H   0.12515327441941     -1.88919080213140      0.07967638014658
  N   -1.39546655344896      0.37062546591239     -0.76578849631270
  O   -0.93005783393082     -0.05109121497944     -1.82010052971056
  O   -2.39561671023587      1.06487716944159     -0.62640807227516
