14
Coordinates from ORCA-job run
  C   0.91366618761963      0.06397739544437      0.29989570688328
  C   -0.61309119168447     -0.01157098748431      0.28938020557550
  F   1.30900492487487      0.36142013463444      1.56378773656597
  H   -1.01290575947890      0.97676134670920      0.51874900984199
  H   1.39226197735376     -0.85282761512676     -0.04456014988346
  N   1.35725329248430      1.17001102260374     -0.61652622216226
  O   1.23995067829887      2.31283211121044     -0.19178971324555
  O   1.74806631846591      0.81932590249875     -1.72680059092411
  N   -1.17590204727267     -0.99580298776211      1.15418771707830
  H   -0.73280625162897     -1.89761235813697      1.03683979638896
  H   -1.12024389994566     -0.70053076896379      2.11878951198601
  N   -1.01459052477628     -0.33093348040616     -1.12294118630223
  O   -1.48754178021991      0.57441883269482     -1.80148621661883
  O   -0.80312192409048     -1.48746854791568     -1.47852560518356
