14
Coordinates from ORCA-job run
  C   0.63418320445003      0.61001958578050     -0.38481154192413
  C   -0.58623671796329     -0.03035710945759      0.27048702658170
  F   0.83597507819347      0.06034628520407     -1.60516630910517
  H   -0.74931959673383      0.43517475247754      1.24203083542972
  H   0.57169532940510      1.69506919332332     -0.46093743481796
  N   1.81170989201609      0.29167655621185      0.49959627282141
  O   1.78736602997758      0.85787369925032      1.58806688412378
  O   2.64416792967188     -0.50614797741173      0.09478202045184
  N   -0.56066876956330     -1.43700588390302      0.36969572124799
  H   -0.18090218409020     -1.76868088989308      1.24205922365794
  H   -0.13888408581064     -1.89473983052423     -0.42482446061136
  N   -1.75544183823331      0.43531446341457     -0.59778583383650
  O   -1.99071368532390      1.63989366482989     -0.53549098972475
  O   -2.32293058599568     -0.38843650930242     -1.29770141429452
