14
Coordinates from ORCA-job run
  C   0.97436590484215      0.23053730483847      0.34182506000902
  C   -0.52093063805527     -0.05561041546485      0.42025461927609
  F   1.39234162983630      0.73432395245831      1.52131124588781
  H   -1.04169434487752      0.86741556724809      0.67734428641991
  H   1.55993666124975     -0.64814565892691      0.06843292627668
  N   1.21575700109716      1.26386491521433     -0.72864278383995
  O   1.61433824665281      0.83484289670012     -1.80781166306474
  O   0.95888366216669      2.42412619313123     -0.43452591082844
  N   -0.76709684570558     -1.08198357589474      1.35951590338593
  H   -0.44788998835632     -1.97839062442208      1.01417471271799
  H   -1.74494416615115     -1.13985533853142      1.60736510067913
  N   -0.96629446314094     -0.39771384307847     -1.00379459996883
  O   -1.48908437253946      0.49569464151109     -1.66237343450837
  O   -0.73968828701863     -1.54810601478318     -1.37207546244226
