14
Coordinates from ORCA-job run
  C   0.69503971440742      0.67008075894302      0.47024535096849
  C   -0.65098439391432     -0.06193603604361      0.48233161485613
  F   0.48591269203204      2.00347998961277      0.40193662818203
  H   -1.23060981768908      0.36362400463303      1.30250063382819
  H   1.27205692859096      0.42017830987023      1.36234923986390
  N   1.56072484569256      0.25655479188485     -0.69902970520385
  O   1.97101335546753     -0.89999331197655     -0.63644821775892
  O   1.78722841852821      1.07641710997364     -1.57143013154434
  N   -0.63642915655111     -1.47927762077616      0.55131691818838
  H   -0.69452443030755     -1.81886736997498      1.49860458577717
  H   0.14624109099617     -1.88854528585659      0.06158692344458
  N   -1.39263018499600      0.35909503422909     -0.76940698211404
  O   -0.93992015266832     -0.08298529694251     -1.82086595130228
  O   -2.37311890958849      1.08217492242377     -0.63469090718543
