15

C	0.0	0.0	0.0
C	-0.613718	0.158456	-1.371826
F	1.358609	0.0	0.0
H	-0.348023	-0.685456	-2.009039
H	-1.729278	0.137714	-1.100186
C	-0.494715	1.02458	0.983228
H	-1.585556	0.921079	0.990964
H	-0.04604	0.847844	1.959898
H	-0.195277	2.010476	0.618318
N	-0.355833	-1.409911	0.497698
O	-0.442792	-1.575922	1.709527
O	-0.410258	-2.308817	-0.337984
C	-0.195936	1.401718	-1.99028
N	0.137969	2.407828	-2.498677
F	-2.857659	0.0	0.0
