15

C	0.0	0.0	0.0
C	-0.457238	0.160202	-1.447764
F	1.36292	0.0	0.0
H	-0.689134	-0.824538	-1.849796
H	0.410865	0.553722	-1.991325
C	-0.421724	1.084812	0.959288
H	-0.093013	2.04024	0.539396
H	-1.509393	1.035404	1.02362
H	0.075129	0.921869	1.915487
N	-0.367636	-1.379472	0.546923
O	-0.278964	-1.517104	1.763518
O	-0.585912	-2.292721	-0.241454
C	-1.586195	1.055573	-1.717342
N	-2.243041	1.840561	-2.300143
F	-2.562339	0.0	0.0
