12
Coordinates from ORCA-job run
  C   -0.01265797750127      0.03969224161121     -0.40538418730599
  C   -0.97223721953972     -0.88831653804442      0.32996352321167
  Cl  -0.88366531564402      0.76580006135166     -1.80646885914258
  H   -0.45826693816612     -1.35216517134449      1.17552115002194
  H   -1.82146654848774     -0.31127176935276      0.70016613606608
  H   -1.33948179668361     -1.67084561224907     -0.33437416299332
  C   1.11664091680594     -0.72580240870363     -0.93958187138488
  N   2.03393928828652     -1.35149143245318     -1.32262598343861
  C   0.49412154455021      1.16838697432849      0.48435130178708
  H   1.03843438717704      0.74909042547287      1.33417744451448
  H   1.15891455500881      1.83042005139534     -0.07096076377278
  H   -0.35427489580603      1.74750317798797      0.85321627243691
