12
Coordinates from ORCA-job run
  C   -0.01148170303923      0.02326377343462     -0.40666933685235
  C   -0.97478201807691     -0.87318740727825      0.36219913664841
  Cl  -0.87613629692174      0.69313860349320     -1.83899380024327
  H   -1.34036833252018     -1.68165276916898     -0.27128008423971
  H   -1.82473726991083     -0.28077416952520      0.70538375208788
  H   -0.46426282569864     -1.30269326123112      1.22769522871850
  C   1.11907141315984     -0.76437219241976     -0.90524740135957
  N   2.03713753364588     -1.40590901189060     -1.25915345093497
  C   0.49378928130565      1.18626117678199      0.43883232696919
  H   1.03573344637351      0.80080601850112      1.30595904775420
  H   1.16034434615821      1.82524588492917     -0.14079566668061
  H   -0.35530757447556      1.77987335437382      0.78207024813230
