12
Coordinates from ORCA-job run
  C   0.16192870311464      0.04569727788125      0.35693924835622
  C   -1.21213480612998      0.61781054232518      0.02479610841736
  Br  0.14121846588216     -0.58063194691834      2.22566560874412
  H   -1.96807823880161     -0.16306672385511      0.12465465540615
  H   -1.20990979208089      0.98315573494729     -1.00612762326069
  H   -1.46509640954943      1.44275336895537      0.69107111218002
  C   1.18067671998685      1.09061106952503      0.27151387581309
  N   1.98824459254640      1.93594854358770      0.15139849567685
  C   0.53173829866856     -1.12958147532045     -0.54157167099737
  H   1.50834781733143     -1.53454367791890     -0.27559518916625
  H   -0.21740018534676     -1.91704703279673     -0.44214950568743
  H   0.55946483437865     -0.79210568041228     -1.58159511548206
