15

C	-0.495967	-0.006618	-1.430485
C	0.0	0.0	0.0
Cl	-0.124356	-1.561554	-2.232327
H	1.091352	0.0	0.0
H	-0.353296	-0.903544	0.499716
N	-2.075722	-0.015255	-1.396359
O	-2.63703	-0.545467	-0.442626
O	-2.650615	0.504707	-2.349392
N	-0.021549	1.072919	-2.168623
H	-0.5617	1.230402	-3.008316
H	-0.003813	1.887123	-1.564282
N	-0.45975	1.243353	0.624017
H	-1.280037	1.074933	1.191682
H	0.280651	1.593492	1.218623
Cl	3.45051	0.0	0.0
