15

C	-0.369311	-0.087513	-1.481282
C	0.0	0.0	0.0
Cl	-2.012138	-0.783193	-1.732116
H	1.093402	0.0	0.0
H	-0.320145	-0.942924	0.454786
N	-0.446266	1.37905	-2.014325
O	-1.522724	1.941695	-2.14486
O	0.656043	1.874997	-2.222841
N	0.588609	-0.861673	-2.148841
H	0.510783	-0.816447	-3.154403
H	1.529152	-0.627559	-1.833597
N	-0.524923	1.187122	0.644805
H	-1.310408	0.969791	1.240308
H	0.205784	1.609891	1.20009
Cl	3.425502	0.0	0.0
