15

C	-0.598027	0.002222	-1.394705
C	0.0	0.0	0.0
Cl	0.226535	1.294575	-2.384776
H	1.091813	0.0	0.0
H	-0.365725	-0.89936	0.497894
N	-0.324883	-1.29541	-2.142851
O	0.319001	-2.163335	-1.572564
O	-0.828464	-1.385489	-3.258019
N	-1.997516	0.130379	-1.344962
H	-2.384333	0.338276	-2.254984
H	-2.200612	0.855257	-0.664162
N	-0.535223	1.18796	0.695526
H	0.117864	1.945288	0.527304
H	-0.493438	1.003339	1.690022
Cl	3.48737	0.0	0.0
