15

C	0.0	0.0	0.0
C	-0.499539	-0.486722	-1.388871
F	1.378879	0.0	0.0
H	-1.21957	-1.277838	-1.164722
H	-0.348658	-0.679472	0.775701
C	-0.427531	1.361492	0.36503
N	-0.547148	2.463539	0.751955
C	0.643638	-1.030109	-2.239334
H	1.184578	-1.835906	-1.736843
H	0.230327	-1.432476	-3.170462
H	1.349646	-0.23683	-2.489746
N	-1.16999	0.620255	-2.073553
H	-2.00098	0.703897	-1.45663
H	-1.499967	0.263937	-2.967231
F	-2.58405	0.0	0.0
