15

C	0.0	0.0	0.0
C	-0.40896	-0.083059	-1.497213
F	1.385062	0.0	0.0
H	0.552826	-0.219608	-2.009774
H	-0.360766	-0.88164	0.523851
C	-0.438563	1.212192	0.705624
N	-0.58216	2.229629	1.274534
C	-1.075949	1.192358	-2.015893
H	-2.021938	1.272709	-1.476214
H	-1.255136	1.100199	-3.093506
H	-0.457422	2.081036	-1.849725
N	-1.209275	-1.292973	-1.676745
H	-1.50608	-1.325254	-2.648129
H	-2.039013	-1.054878	-1.093824
F	-2.646686	0.0	0.0
