15

C	0.0	0.0	0.0
C	-0.43804	-0.102154	-1.462507
F	1.397076	0.0	0.0
H	-1.471173	0.252864	-1.438853
H	-0.372858	-0.831289	0.589762
C	-0.420279	1.265526	0.622631
N	-0.537584	2.301312	1.163166
C	-0.444661	-1.568971	-1.882688
H	-1.233352	-2.074383	-1.320429
H	0.522565	-2.051588	-1.690489
H	-0.665613	-1.662801	-2.951675
N	0.416463	0.776087	-2.267601
H	0.017572	0.839684	-3.196273
H	1.341319	0.369515	-2.354065
F	-2.529072	0.0	0.0
