15

C	0.0	0.0	0.0
C	-0.377499	0.237698	-1.513697
F	1.385259	0.0	0.0
H	0.589981	0.102953	-2.020791
H	-0.360655	-0.972853	0.330087
C	-0.440879	1.022112	0.957281
N	-0.599221	1.858443	1.76705
C	-0.898103	1.647006	-1.750871
H	-1.850028	1.703978	-1.22403
H	-0.2178	2.417074	-1.379366
H	-1.05774	1.794338	-2.820272
N	-1.325715	-0.709954	-2.084485
H	-2.115262	-0.608061	-1.412186
H	-0.941373	-1.643383	-1.963819
F	-2.600655	0.0	0.0
