15

C	0.0	0.0	0.0
C	-0.182669	-0.144717	-1.547162
F	1.390136	0.0	0.0
H	0.525699	0.61616	-1.923257
H	-0.391167	-0.852958	0.53938
C	-0.492729	1.265687	0.540608
N	-0.589194	2.352069	0.982677
C	-1.493699	0.084657	-2.265957
H	-1.905891	1.060634	-2.02721
H	-2.227832	-0.641617	-1.942155
H	-1.28528	0.023956	-3.347048
N	0.306938	-1.501939	-1.8669
H	1.297371	-1.542411	-1.653648
H	0.209051	-1.641118	-2.866947
F	-2.417549	0.0	0.0
