15

C	-0.38499	-0.147892	-1.477961
C	0.0	0.0	0.0
Br	-0.2604	1.59001	-2.401625
H	1.095115	0.0	0.0
H	-1.432276	-0.443588	-1.596892
C	0.588636	-1.123255	-2.120478
H	1.594792	-0.833994	-1.803854
H	0.380035	-2.117966	-1.71854
H	0.493954	-1.144547	-3.207685
N	-0.371791	-1.259174	0.673601
H	0.419271	-1.519753	1.251812
H	-1.182227	-1.137198	1.269272
C	-0.583247	1.154856	0.666217
N	-1.093029	2.022153	1.277323
F	2.614215	0.0	0.0
