15

C	-0.547168	0.085815	-1.422256
C	0.0	0.0	0.0
Br	0.243242	-1.342109	-2.51058
H	1.100674	0.0	0.0
H	-0.178762	1.004959	-1.882206
C	-2.057139	-0.019791	-1.51194
H	-2.51321	0.816785	-0.974235
H	-2.378794	-0.95734	-1.054907
H	-2.400873	0.00284	-2.549123
N	-0.411427	-1.243205	0.671495
H	-1.020133	-1.056954	1.459003
H	0.445303	-1.64821	1.032183
C	-0.459352	1.181119	0.718474
N	-0.853574	2.130783	1.293528
F	2.562655	0.0	0.0
