15

C	-0.324159	-0.144412	-1.494217
C	0.0	0.0	0.0
Br	-0.098974	1.578372	-2.421494
H	1.096049	0.0	0.0
H	-1.378368	-0.39712	-1.666027
C	0.638657	-1.157159	-2.100466
H	0.377418	-2.162934	-1.753611
H	0.599986	-1.151764	-3.191532
H	1.63875	-0.902809	-1.72466
N	-0.350335	-1.2209	0.737679
H	0.476793	-1.802244	0.741579
H	-1.115726	-1.725013	0.305438
C	-0.635499	1.15186	0.62389
N	-1.165174	2.070012	1.132731
F	2.61398	0.0	0.0
