15

C	-0.541414	-0.047726	-1.426859
C	0.0	0.0	0.0
Br	0.283019	-1.545756	-2.388734
H	1.093736	0.0	0.0
H	-0.18886	0.837562	-1.961531
C	-2.048989	-0.192671	-1.511878
H	-2.525316	0.668606	-1.030785
H	-2.350127	-1.103343	-0.991547
H	-2.39034	-0.248158	-2.547929
N	-0.40738	-1.1783	0.779525
H	-1.076674	-0.942924	1.500707
H	0.437811	-1.51816	1.224032
C	-0.464081	1.241569	0.609412
N	-0.865239	2.228355	1.111786
F	2.562755	0.0	0.0
