15

C	-0.146211	-0.02963	-1.508958
C	0.0	0.0	0.0
Br	-2.049323	-0.144301	-2.11433
H	1.098822	0.0	0.0
H	0.281393	-0.976961	-1.842891
C	0.572667	1.130786	-2.161511
H	0.597375	1.033211	-3.249096
H	0.103989	2.081773	-1.899598
H	1.586226	1.08819	-1.742137
N	-0.465153	-1.173713	0.722184
H	-1.301553	-1.549095	0.289308
H	0.273505	-1.864577	0.67591
C	-0.54045	1.225371	0.572662
N	-0.972437	2.221791	1.023559
F	2.592029	0.0	0.0
