15

C	-0.542578	-0.052746	-1.425604
C	0.0	0.0	0.0
Br	0.277942	-1.556203	-2.382971
H	1.093675	0.0	0.0
H	-0.190786	0.830202	-1.963489
C	-2.050308	-0.197746	-1.507735
H	-2.350582	-1.107411	-0.985688
H	-2.525334	0.664273	-1.027545
H	-2.393416	-0.254756	-2.542848
N	-0.407334	-1.172628	0.784891
H	0.433514	-1.501482	1.247749
H	-1.096642	-0.939125	1.489766
C	-0.461954	1.245583	0.602487
N	-0.864136	2.234739	1.09894
F	2.561334	0.0	0.0
