12

C	0.0	0.0	0.0
C	-0.503739	0.064887	-1.449263
F	1.369628	0.0	0.0
H	-1.617699	0.086559	-1.354428
H	-0.380959	-0.909304	0.467403
C	-0.419098	1.187553	0.764056
N	-0.551935	2.190003	1.360936
C	-0.08388	-1.135173	-2.171692
N	0.236201	-2.109126	-2.744327
C	-0.011181	1.262912	-2.126833
N	0.382642	2.223561	-2.675625
Br	-3.428357	0.0	0.0
