12

C	0.0	0.0	0.0
C	-0.39898	-0.340773	-1.474258
F	1.372193	0.0	0.0
H	0.573853	-0.395602	-1.984642
H	-0.378233	-0.750707	0.690452
C	-0.408484	1.34961	0.416994
N	-0.449472	2.470205	0.770154
C	-1.15	0.683464	-2.203579
N	-1.505903	1.529364	-2.938519
C	-0.977513	-1.680952	-1.606249
N	-1.230677	-2.813107	-1.790951
Br	-3.124485	0.0	0.0
