12

C	0.0	0.0	0.0
C	-0.518136	0.105127	-1.437097
F	1.362364	0.0	0.0
H	-1.629223	0.174808	-1.329735
H	-0.377319	-0.930428	0.428831
C	-0.415491	1.129082	0.850839
N	-0.52256	2.013145	1.615959
C	-0.17778	-1.13097	-2.138211
N	0.07277	-2.165946	-2.63182
C	0.030673	1.272973	-2.115638
N	0.477491	2.217362	-2.649598
Br	-3.43802	0.0	0.0
