12

C	0.0	0.0	0.0
C	-0.25625	0.048772	-1.5423
F	1.372846	0.0	0.0
H	0.533319	-0.618714	-1.915732
H	-0.395622	-0.916364	0.43393
C	-0.434951	1.182761	0.749927
N	-0.491298	2.170446	1.385649
C	0.087568	1.382763	-2.049961
N	0.407077	2.429289	-2.475084
C	-1.474185	-0.440176	-2.208045
N	-2.07298	-0.901216	-3.113966
Br	-3.156279	0.0	0.0
