12

C	0.0	0.0	0.0
C	-0.40354	0.25282	-1.48832
F	1.372741	0.0	0.0
H	0.569682	0.350866	-1.990858
H	-0.376204	-0.960316	0.347457
C	-0.401752	1.0781	0.915419
N	-0.447384	1.962241	1.688373
C	-1.101677	1.511285	-1.765289
N	-1.454825	2.57765	-2.109089
C	-1.043406	-0.907489	-2.113908
N	-1.345474	-1.864009	-2.725389
Br	-3.140525	0.0	0.0
