12

C	0.0	0.0	0.0
C	-0.518058	0.071242	-1.442589
F	1.369693	0.0	0.0
H	-1.63255	0.086938	-1.3322
H	-0.378924	-0.912452	0.463733
C	-0.419792	1.178298	0.778434
N	-0.553754	2.157224	1.412902
C	-0.107449	-1.123602	-2.178093
N	0.20538	-2.093564	-2.761525
C	-0.047512	1.276748	-2.121602
N	0.32529	2.245338	-2.671117
Br	-3.444418	0.0	0.0
