14
Coordinates from ORCA-job run
  C   -0.71178728381671     -0.48323933030044      0.08068044267766
  C   0.58544560757271     -0.00893285701136     -0.57647243741630
  F   -0.34332582336431     -1.25627929281187      1.18463866982632
  H   0.31636626941555      0.63349713154978     -1.42204221933883
  H   -1.24395593926471     -1.14928740560344     -0.60538483586315
  C   -1.59307620913503      0.64984227865780      0.54575675080961
  H   -1.94378348565498      1.23334305374195     -0.30890953220438
  H   -1.03855565921330      1.30475738981055      1.21560738988474
  H   -2.46156178395535      0.24520112687260      1.06770607420286
  C   1.31872337943887     -1.17395170061424     -1.11780045808138
  N   1.93555565491332     -2.08352546293405     -1.53194757614759
  N   1.35513714026083      0.77862032915136      0.37461380412200
  H   1.62184701289934      0.18486654120416      1.15110866249555
  H   2.20197111990378      1.12508819828720     -0.05855473496710
