14
Coordinates from ORCA-job run
  C   -0.70948463142577      0.45144219136798     -0.18530513300518
  C   0.60881481333283     -0.28369652801386     -0.44225408534219
  F   -1.41136382516908      0.45252410343426     -1.38126061850569
  H   0.34356892012618     -1.25782567062827     -0.86678649754278
  H   -0.49360227055106      1.49783855140768      0.06125997375493
  C   -1.56892855073657     -0.19453848723783      0.87735923029787
  H   -2.52956905828936      0.32026548031715      0.92327923013417
  H   -1.75349520430968     -1.24213178257999      0.62782213347659
  H   -1.09754259641631     -0.14231216539074      1.85968707012018
  C   1.30822971454925     -0.51573307139985      0.83894226380908
  N   1.90786958993146     -0.65249388258603      1.84011009105424
  N   1.41262002675096      0.43119162582659     -1.42153082732143
  H   1.79414023547433      1.27483638970564     -1.00955377075783
  H   2.19074283673281     -0.14236675422272     -1.72276906017196
