14
Coordinates from ORCA-job run
  C   -0.84124355481016      0.11476298402716     -0.45658134371858
  C   0.64978761312658     -0.20083253654046     -0.61979818790120
  F   -1.54709955301530     -0.88303265050616     -1.12304943839185
  H   0.81229401769751     -0.43459258081193     -1.68247074271657
  H   -1.03902124259845      1.05295829062263     -0.98876965531869
  C   -1.30381827668421      0.19261896626043      0.97525126056328
  H   -2.35328352805615      0.48881798118059      1.01180951252500
  H   -1.20193242396959     -0.78312151654828      1.45366300193714
  H   -0.70302588180389      0.92150695625276      1.51942601506521
  C   1.00611413769308     -1.40384678995670      0.14020092064959
  N   1.30501938041394     -2.36625607534563      0.74130053406507
  N   1.43022366905804      0.93601063965629     -0.13018913400388
  H   1.38069888758065      1.68798125757670     -0.80806621635287
  H   2.40428675536794      0.67802507413260     -0.03072652640164
