14
Coordinates from ORCA-job run
  C   -0.44813130436158      0.56883841807201      0.18011831872161
  C   0.61128789261160     -0.27623062079885     -0.54013961840934
  F   -0.92220656723780      1.47225484775783     -0.77577206388736
  H   0.09477650344901     -0.82494045103885     -1.33697594174778
  H   0.03769472392502      1.16410091837437      0.96144752231931
  C   -1.61197203128639     -0.22299979852159      0.72343846914871
  H   -2.36197186897257      0.45591775202231      1.13176896144996
  H   -2.07471087122612     -0.80804946515571     -0.07461670801755
  H   -1.28651774247885     -0.89942088222077      1.51565605494217
  C   1.16591754235554     -1.25629846889184      0.40036714208810
  N   1.60314936595596     -1.99787773654579      1.19798947574470
  N   1.69137660235086      0.48041920170294     -1.15726235883203
  H   1.28253497131425      1.16773382439138     -1.77917085807360
  H   2.21677278360112      0.97755246085256     -0.44684839544692
