14
Coordinates from ORCA-job run
  C   -0.87857231023228      0.07005910076223     -0.48536911142090
  C   0.61884529424608     -0.13703956603766     -0.71822357260480
  F   -1.53457347659720     -1.03376417472516     -1.02397372049234
  H   0.75604362324789     -0.26264681619293     -1.79637219837201
  H   -1.17540300927528      0.94783997502713     -1.06552338884347
  C   -1.26802475921385      0.21299696499507      0.96543650971901
  H   -2.35262330189427      0.30229720617396      1.04199791233706
  H   -0.95387629180509     -0.66327841347539      1.53652043737984
  H   -0.82418893717312      1.11155684483854      1.39851147403525
  C   1.07265143486952     -1.38114346533887     -0.06384392711500
  N   1.46340883127384     -2.33521311109672      0.49870584356727
  N   1.34683160180094      1.05415504529974     -0.29847602243768
  H   1.45399550531048      1.06119464836739      0.70873507466080
  H   2.27648579544235      1.05198576140268     -0.69912531041303
