14
Coordinates from ORCA-job run
  C   -0.68919150980340     -0.48329654996074      0.19417994123176
  C   0.54744791674342     -0.07522130267865     -0.60826375324576
  F   -0.22603189283309     -1.08755826146560      1.36572017170405
  H   0.20451518209900      0.43777283242661     -1.51341393700813
  H   -1.24313792185047     -1.24968856712904     -0.35653294044689
  C   -1.57446957303232      0.68296834060004      0.55899726167566
  H   -2.39312498295996      0.33496061196707      1.19076203745410
  H   -1.99937815559860      1.13298483124138     -0.34149201074711
  H   -0.99895727293244      1.43775621605062      1.09209299634093
  C   1.28082230379772     -1.28717007028636     -1.03389706982513
  N   1.89692688298292     -2.23158757847334     -1.36220914605445
  N   1.35127682758725      0.85336937140494      0.17202111939702
  H   1.68639768377922      0.37860119846580      1.00205598132249
  H   2.15690451202073      1.15610892783729     -0.36102065179855
