14
Coordinates from ORCA-job run
  C   -0.72154136685183      0.43543760447315     -0.17662144489137
  C   0.62748840452783     -0.23833011507510     -0.44277734835203
  F   -1.39925210874995      0.47464294232236     -1.38570903366472
  H   0.40642451221149     -1.19783507777270     -0.92236533362554
  H   -0.54851146328048      1.47431452668434      0.12852869588782
  C   -1.57771681686471     -0.29532741353417      0.83244376617279
  H   -2.55724149790871      0.18194186898362      0.88393666997671
  H   -1.12809931217102     -0.27764843520811      1.82609069045628
  H   -1.71895103263663     -1.33431375981888      0.52536954392167
  C   1.30947830750829     -0.51136916086611      0.83956449614292
  N   1.89128220243814     -0.67722645873226      1.84680526033555
  N   1.42335463125018      0.55458914289006     -1.36708051206275
  H   1.76868216875231      1.38702391518811     -0.90359825587054
  H   2.22560337177508      0.02410042046572     -1.68358719442680
