13

C	-0.532078	0.08512	-1.437881
C	0.0	0.0	0.0
Br	0.221316	-1.363544	-2.543957
H	1.098503	0.0	0.0
H	-0.337127	0.913813	0.507983
C	-1.987273	-0.074776	-1.464742
N	-3.160792	-0.159597	-1.461284
C	-0.18334	1.360998	-2.066507
N	0.048948	2.398738	-2.567466
N	-0.47149	-1.22521	0.622983
H	-1.115484	-1.034143	1.377198
H	0.34034	-1.695996	1.006902
H	2.797701	0.0	0.0
