13

C	-0.531027	-0.086667	-1.438111
C	0.0	0.0	0.0
Br	0.210237	-1.670752	-2.353458
H	1.104006	0.0	0.0
H	-0.336381	0.967886	0.394467
C	-1.98632	-0.235144	-1.451734
N	-3.159865	-0.310463	-1.422661
C	-0.165038	1.095526	-2.218261
N	0.086849	2.067385	-2.829633
N	-0.479905	-1.137788	0.766389
H	0.33299	-1.593697	1.165872
H	-1.085234	-0.846527	1.519374
H	2.792939	0.0	0.0
