13

C	-0.488987	0.033255	-1.434957
C	0.0	0.0	0.0
Br	-2.507551	-0.010124	-1.505742
H	1.094415	0.0	0.0
H	-0.339276	-0.942171	0.447354
C	-0.100548	1.263609	-2.120919
N	0.197303	2.254056	-2.678284
C	-0.051209	-1.138459	-2.191495
N	0.299343	-2.081806	-2.798618
N	-0.424416	1.199302	0.696827
H	0.391297	1.574658	1.169483
H	-1.14294	1.00597	1.379696
H	2.749148	0.0	0.0
