19

C	-0.397365	-0.023219	-1.49113
C	0.0	0.0	0.0
Cl	-0.075773	1.622351	-2.185023
H	1.0921	0.0	0.0
N	0.462941	-0.939562	-2.203555
H	0.183283	-1.885036	-1.971048
H	1.417099	-0.800945	-1.855709
C	-1.856017	-0.328777	-1.767164
H	-2.110337	-1.327275	-1.400806
H	-2.494918	0.396072	-1.264986
H	-2.028025	-0.292412	-2.843967
C	-0.425505	-1.250176	0.750688
H	-1.506802	-1.365289	0.827693
H	-0.00085	-1.20495	1.757329
H	0.014469	-2.125533	0.268608
N	-0.547713	1.183613	0.712852
O	0.190836	2.14575	0.915253
O	-1.736475	1.134105	1.070608
H	2.823209	0.0	0.0
