19

C	-0.558824	-0.060234	-1.425625
C	0.0	0.0	0.0
Cl	0.279218	1.20293	-2.499005
H	1.093655	0.0	0.0
N	-0.2831	-1.364927	-1.956154
H	0.723567	-1.47394	-2.047938
H	-0.698063	-1.435281	-2.878264
C	-2.047813	0.219834	-1.538883
H	-2.598869	-0.529855	-0.965217
H	-2.353415	0.158688	-2.587942
H	-2.275202	1.217394	-1.172548
C	-0.364475	-1.217397	0.838405
H	0.195206	-1.164886	1.771097
H	-0.071393	-2.116313	0.301623
H	-1.434261	-1.267862	1.066937
N	-0.387986	1.216255	0.723662
O	-0.324474	1.180647	1.961536
O	-0.651659	2.252712	0.096551
H	2.602883	0.0	0.0
