19

C	-0.276191	0.054124	-1.49578
C	0.0	0.0	0.0
Cl	-2.106759	0.204103	-1.82561
H	1.093734	0.0	0.0
N	0.374044	1.19663	-2.057496
H	1.256831	1.337736	-1.563019
H	0.565351	1.030596	-3.037298
C	0.161799	-1.256602	-2.134092
H	0.060898	-1.175418	-3.220427
H	1.217699	-1.399341	-1.87251
H	-0.429495	-2.110699	-1.800296
C	-0.523984	-1.217552	0.722908
H	0.057068	-2.087994	0.411948
H	-1.58731	-1.388006	0.540776
H	-0.373659	-1.090758	1.796328
N	-0.446597	1.242607	0.673361
O	0.197656	2.270084	0.461771
O	-1.42069	1.182157	1.434407
H	2.733979	0.0	0.0
