15

C	-0.411144	-0.007648	-1.472977
C	0.0	0.0	0.0
Cl	-2.195774	-0.137472	-1.696946
H	1.10286	0.0	0.0
H	0.013227	-0.891492	-1.950934
C	0.034922	1.180755	-2.192318
N	0.371599	2.135447	-2.786476
N	-0.467985	-1.25734	0.606222
H	0.312599	-1.909002	0.583771
H	-0.662403	-1.087115	1.586639
C	-0.532519	1.204532	0.748585
H	-1.62187	1.159303	0.837579
H	-0.253766	2.135165	0.251049
H	-0.093267	1.223584	1.749077
Cl	3.412295	0.0	0.0
