15

C	-0.451809	0.005067	-1.456743
C	0.0	0.0	0.0
Cl	0.045802	-1.48937	-2.317031
H	1.102065	0.0	0.0
H	0.05131	0.823454	-1.976582
C	-1.9005	0.162103	-1.593621
N	-3.056143	0.337382	-1.707665
N	-0.583644	-1.158021	0.681824
H	-0.388347	-1.051767	1.671905
H	-0.064986	-1.980929	0.390824
C	-0.471392	1.278629	0.677438
H	-0.146715	2.16084	0.120029
H	-0.01618	1.342413	1.669245
H	-1.559948	1.292976	0.783638
Cl	3.469787	0.0	0.0
