15

C	-0.502285	-0.031304	-1.456412
C	0.0	0.0	0.0
Cl	0.084227	1.342002	-2.446585
H	1.095277	0.0	0.0
H	-1.59613	0.054655	-1.450224
C	-0.165798	-1.287512	-2.126807
N	0.085032	-2.299663	-2.666624
N	-0.42878	-1.2061	0.703212
H	-1.373502	-1.475549	0.45105
H	0.197398	-1.969623	0.478242
C	-0.52194	1.229615	0.721427
H	-0.133062	1.213787	1.739982
H	-0.195847	2.151266	0.237703
H	-1.619062	1.220231	0.769903
Cl	3.439116	0.0	0.0
