15

C	-0.557966	-0.023654	-1.425785
C	0.0	0.0	0.0
Cl	0.047424	1.328018	-2.431888
H	1.100409	0.0	0.0
H	-1.644451	0.087881	-1.365812
C	-0.279972	-1.286789	-2.108208
N	-0.06322	-2.296475	-2.667123
N	-0.545952	-1.215155	0.633248
H	-0.493789	-1.087533	1.638282
H	0.089876	-1.979793	0.423506
C	-0.500598	1.223885	0.745207
H	-0.210388	2.143515	0.237376
H	-0.050188	1.245534	1.740795
H	-1.591333	1.191544	0.850071
Cl	3.462652	0.0	0.0
