15

C	-0.342189	-0.005161	-1.501221
C	0.0	0.0	0.0
Cl	-2.114946	-0.248109	-1.808453
H	1.097618	0.0	0.0
H	0.152473	-0.858607	-1.967626
C	0.057997	1.213205	-2.196624
N	0.359586	2.193615	-2.769246
N	-0.410723	-1.21796	0.680739
H	0.200184	-1.981305	0.412276
H	-1.369126	-1.460592	0.449671
C	-0.540483	1.220814	0.718128
H	-1.635389	1.223068	0.735122
H	-0.177709	1.191318	1.745867
H	-0.191506	2.145578	0.253948
Cl	3.422733	0.0	0.0
