16
Coordinates from ORCA-job run
  C   0.98520724920340     -0.41705073729858     -0.05980547950040
  C   -0.55215986753194     -0.50852804269597      0.04239559015656
  H   1.37011736612019     -1.27030041537541     -0.62374844895852
  H   -0.73446645965909     -1.47786533811793      0.53560015279036
  C   1.62280699612181     -0.36180995097791      1.24996300097839
  N   2.11787038128437     -0.36051935757915      2.31459861712447
  N   1.37932149088009      0.79143222263891     -0.87015516820986
  O   1.74497803204021      0.57684084442915     -2.01898911373227
  O   1.27574659145611      1.88361019726915     -0.32249542195671
  N   -1.07164057659382     -0.42994526742326     -1.31377051794358
  H   -0.86186312748469     -1.26905849131383     -1.84168281672979
  H   -2.07703089909248     -0.31547631885747     -1.29382000426267
  C   -1.17441377936589      0.58785948711248      0.89231063144814
  H   -2.24170194652636      0.38290410214612      1.01238669694980
  H   -1.05645066025533      1.55809159689812      0.41074672498028
  H   -0.72732079059659      0.62981546914559      1.88646555686580
