16
Coordinates from ORCA-job run
  C   0.95485089982083     -0.18964259526492      0.22395319463675
  C   -0.52298106237546     -0.40590584248267     -0.12634455498877
  H   1.33066391460396     -1.00407097726566      0.85452414745392
  H   -0.59807617980708     -1.43304919792468     -0.50295990862352
  C   1.18208067869444      1.09038980269217      0.88335348770668
  N   1.30721438191778      2.09200801677526      1.48259751801140
  N   1.79500610206185     -0.26623573911148     -1.03900775940116
  O   2.76542196198065      0.47247050213500     -1.12938215375844
  O   1.44878837876941     -1.11419248753617     -1.85594370413460
  N   -0.88554545513385      0.58986815174997     -1.12312073250677
  H   -1.85562068083496      0.85948772221647     -1.03216765403674
  H   -0.73799945728368      0.23486903591396     -2.05908735771268
  C   -1.37908588619090     -0.25904319641004      1.12246101284219
  H   -1.02722116500857     -0.90562808910080      1.92974812719112
  H   -2.41110768260505     -0.53712008061586      0.89553562526540
  H   -1.36638874860939      0.77479497422944      1.47484071205524
