16
Coordinates from ORCA-job run
  C   0.94544968919591     -0.03650687523742     -0.30372837277516
  C   -0.50281405426132     -0.36595456037333      0.10837788680736
  H   0.95890264621473      0.45263894006836     -1.28021740960873
  H   -0.43915374488659     -0.92627764187302      1.04608538634232
  C   1.77988041373665     -1.23183181212519     -0.31703126009785
  N   2.45340350269084     -2.19311175668607     -0.31708483385016
  N   1.51532392178292      0.95984511537026      0.66822577613174
  O   1.70909875490175      0.55838637665609      1.81113520372993
  O   1.67385433888379      2.10560509253486      0.25689354314816
  N   -1.01217434411449     -1.25426254133018     -0.92619779892806
  H   -1.67778302618242     -1.91187422813267     -0.54441055849017
  H   -1.47318647198919     -0.72501416855579     -1.65668217789206
  C   -1.31910550884201      0.90426449039147      0.32474771161371
  H   -2.35242337286285      0.63255063895325      0.55090500980550
  H   -0.94247048776430      1.50680220074028      1.15395796628246
  H   -1.31580225650343      1.52474072959911     -0.57697607221900
