16
Coordinates from ORCA-job run
  C   0.90959637516930     -0.12892366043723     -0.31965051830114
  C   -0.54483323275316     -0.22052029213796      0.17975843452204
  H   0.92245675808702      0.22500983718705     -1.35137782963788
  H   -0.50073388811839     -0.52412197250213      1.23544793912078
  C   1.58111470234967     -1.41871263847526     -0.20484229828979
  N   2.06559752297822     -2.48468233861189     -0.11690007903767
  N   1.64486086454250      0.89097635684492      0.50360560705765
  O   1.91541377826551      1.95285086478215     -0.04939645185630
  O   1.85578606803966      0.60086800265930      1.67698564816049
  N   -1.19996128321127     -1.18982172639885     -0.68900209391843
  H   -2.20524800902534     -1.09506688446044     -0.61694007279617
  H   -0.95963130667932     -2.13624126353331     -0.41677927677140
  C   -1.23197744309600      1.12964114157147      0.06340171751810
  H   -2.26452295849160      1.04828459473121      0.41274250649928
  H   -0.74099406344137      1.89170509975231      0.67030661276632
  H   -1.24392388461540      1.45875487902865     -0.97835984503589
