16
Coordinates from ORCA-job run
  C   1.04144714625842     -0.34739855240151     -0.08534596860810
  C   -0.47017770053953     -0.62646155736038      0.04735223638926
  H   1.46172241218544     -1.04299257012775     -0.81603265803542
  H   -0.53269165850777     -1.51706343570956      0.68292967760061
  C   1.72950751740603     -0.44546064112894      1.19490862733530
  N   2.24747644018751     -0.58733366179044      2.23891426845485
  N   1.23384092887169      1.03405987310494     -0.66520394296851
  O   1.59525880273224      1.93551849932323      0.08173617342354
  O   0.93892997334141      1.14813707574755     -1.85247857569801
  N   -0.98500387427975     -1.00745950439641     -1.26029265115597
  H   -0.96910912356995     -0.21212905419019     -1.88823570811185
  H   -1.94624291510618     -1.31258121549359     -1.16616241304333
  C   -1.19066873621719      0.52792596840307      0.74346212777255
  H   -2.22615037959396      0.24279991803814      0.94151399434195
  H   -0.72243637202730      0.79405274112627      1.69469515089882
  H   -1.20570246114109      1.41638611685555      0.10623966140431
