18

C	0.0	0.0	0.0
C	-0.276855	-0.18877	-1.563002
Cl	1.862593	0.0	0.0
H	0.635665	0.087026	-2.089719
N	-0.48824	1.17392	0.63351
H	-0.29072	1.978774	0.055932
H	-1.511842	1.05719	0.652483
N	-0.473173	-1.103247	0.734057
H	0.064139	-1.947287	0.618822
H	-0.590545	-0.85101	1.703865
N	-1.237233	0.809657	-2.182867
O	-1.014857	2.001858	-1.960146
O	-2.064062	0.398889	-2.98313
C	-0.685685	-1.596932	-1.924335
H	-0.780199	-1.701349	-3.003609
H	0.088523	-2.288594	-1.585405
H	-1.633161	-1.833569	-1.442511
Cl	-3.549209	0.0	0.0
