18

C	0.0	0.0	0.0
C	-0.288405	-0.235357	-1.548654
Cl	1.814592	0.0	0.0
H	0.588622	0.141948	-2.075857
N	-0.410561	1.244891	0.574457
H	-0.172068	2.012404	-0.041108
H	-1.43134	1.198436	0.625323
N	-0.473572	-1.113309	0.761517
H	-0.295431	-0.883525	1.734844
H	-1.493276	-1.112304	0.642482
N	-1.34736	0.645397	-2.181779
O	-1.205891	1.859311	-2.031147
O	-2.168378	0.126376	-2.925478
C	-0.516748	-1.686691	-1.907347
H	-1.473976	-2.027796	-1.514215
H	-0.520128	-1.80788	-2.991837
H	0.283121	-2.286823	-1.472788
Cl	-3.467833	0.0	0.0
