18

C	0.0	0.0	0.0
C	-0.285313	0.019059	-1.513857
Cl	1.915274	0.0	0.0
H	0.210982	-0.856337	-1.927967
N	-0.561314	1.064707	0.683092
H	-0.452069	1.024097	1.683684
H	-0.376606	1.971978	0.283033
N	-0.384283	-1.293449	0.508082
H	0.154931	-1.507502	1.33785
H	-1.369847	-1.224312	0.763428
N	0.381534	1.176066	-2.196864
O	0.997232	0.935902	-3.232507
O	0.226492	2.304348	-1.725451
C	-1.757988	0.060555	-1.87197
H	-2.290308	-0.782654	-1.434272
H	-1.860797	0.018598	-2.96078
H	-2.249578	0.947076	-1.477292
Cl	-4.528704	0.0	0.0
