18

C	0.0	0.0	0.0
C	-0.470378	-0.013595	-1.478425
Cl	1.840031	0.0	0.0
H	-1.529615	-0.293956	-1.404785
N	-0.482252	1.191309	0.591608
H	-0.476936	1.090669	1.596854
H	0.03367	2.008579	0.302806
N	-0.464322	-1.086222	0.805241
H	-0.243203	-1.960611	0.34537
H	-1.48686	-0.98734	0.814665
N	0.218434	-1.116165	-2.219512
O	0.022718	-2.267291	-1.825573
O	0.949633	-0.830654	-3.167906
C	-0.32503	1.299857	-2.209635
H	-1.006304	2.01045	-1.743234
H	0.701323	1.669905	-2.181673
H	-0.616058	1.182404	-3.253445
Cl	-3.656438	0.0	0.0
