18

C	0.0	0.0	0.0
C	-0.271188	0.209902	-1.521029
Cl	1.844027	0.0	0.0
H	0.212163	-0.611202	-2.053845
N	-0.553282	0.934404	0.912993
H	-1.56316	0.766524	0.919885
H	-0.387419	1.875668	0.579522
N	-0.496629	-1.287103	0.33196
H	0.096633	-2.030844	-0.007246
H	-0.631482	-1.363224	1.330642
N	0.43931	1.424261	-2.033593
O	0.263739	2.490094	-1.440746
O	1.115148	1.300211	-3.054692
C	-1.723228	0.332233	-1.913525
H	-1.782056	0.399253	-3.0061
H	-2.296322	-0.523335	-1.562999
H	-2.195867	1.207365	-1.470523
Cl	-4.354741	0.0	0.0
