18

C	0.0	0.0	0.0
C	-0.493612	-0.052406	-1.456856
Cl	1.874634	0.0	0.0
H	-1.548463	-0.35241	-1.362482
N	-0.431646	1.238044	0.579027
H	-0.112853	1.267304	1.54207
H	-1.456454	1.154263	0.597875
N	-0.435698	-1.133883	0.721265
H	-0.043366	-1.158961	1.652012
H	-0.273774	-2.000035	0.228539
N	0.198619	-1.159779	-2.201785
O	0.024001	-2.312977	-1.80179
O	0.892007	-0.873809	-3.174657
C	-0.357499	1.253703	-2.201301
H	0.672407	1.610841	-2.189229
H	-0.678901	1.124319	-3.235657
H	-0.999133	1.987453	-1.719873
Cl	-3.624832	0.0	0.0
