15

C	-0.621828	0.043218	-1.383976
C	0.0	0.0	0.0
Br	0.140465	1.479461	-2.417714
H	1.088181	0.0	0.0
H	-1.698945	0.193022	-1.352729
N	-0.422265	-1.232345	-2.155627
O	-1.23838	-1.451144	-3.047149
O	0.529176	-1.938804	-1.851495
N	-0.480028	-1.266505	0.686364
O	-1.526797	-1.777814	0.269035
O	0.133461	-1.631081	1.680373
N	-0.428236	1.141553	0.752917
H	-1.36187	1.033121	1.128825
H	0.235033	1.321312	1.494844
Cl	3.289308	0.0	0.0
