15

C	-0.435751	0.010808	-1.475615
C	0.0	0.0	0.0
Br	0.314381	-1.451104	-2.46242
H	1.089984	0.0	0.0
H	-0.080453	0.941466	-1.917307
N	-1.945473	0.050269	-1.628536
O	-2.444935	1.138197	-1.328493
O	-2.562766	-0.936076	-1.99726
N	-0.519987	-1.281226	0.611014
O	-1.74601	-1.341581	0.732371
O	0.275872	-2.14774	0.949142
N	-0.456768	1.085478	0.800721
H	-1.353969	1.449256	0.515158
H	0.249368	1.806327	0.834571
Cl	3.288762	0.0	0.0
