15

C	-0.619005	0.052582	-1.385708
C	0.0	0.0	0.0
Br	0.144637	1.490488	-2.414222
H	1.088187	0.0	0.0
H	-1.696286	0.201272	-1.35663
N	-0.418129	-1.217269	-2.168342
O	0.522879	-1.934002	-1.856063
O	-1.222221	-1.419596	-3.076898
N	-0.47994	-1.269347	0.67986
O	-1.52273	-1.78487	0.256598
O	0.130833	-1.633004	1.674172
N	-0.426618	1.139928	0.756534
H	-1.36056	1.034609	1.129171
H	0.234151	1.313148	1.50018
Cl	3.288228	0.0	0.0
