15

C	-0.587807	0.051955	-1.398782
C	0.0	0.0	0.0
Br	0.157632	1.539244	-2.381617
H	1.087954	0.0	0.0
H	-1.669148	0.174184	-1.390648
N	-0.348797	-1.203053	-2.196636
O	0.542071	-1.953255	-1.825603
O	-1.084091	-1.363767	-3.166492
N	-0.52393	-1.258595	0.655954
O	-1.605731	-1.693498	0.242446
O	0.107642	-1.712566	1.594762
N	-0.430027	1.097029	0.821303
H	0.346411	1.725558	0.972084
H	-1.224404	1.596935	0.447806
Cl	3.287755	0.0	0.0
