15

C	-0.636945	0.027806	-1.372246
C	0.0	0.0	0.0
Br	-0.063033	1.600418	-2.346562
H	1.094258	0.0	0.0
H	-1.721451	0.061661	-1.306377
N	-0.301945	-1.164414	-2.224662
O	0.730453	-1.771889	-1.983447
O	-1.109899	-1.413686	-3.116255
N	-0.483836	-1.222925	0.724065
O	-0.126385	-1.334265	1.891311
O	-1.219554	-2.012987	0.130476
N	-0.522792	1.124848	0.783437
H	-0.15896	0.981588	1.721675
H	-0.041475	1.950955	0.439696
Cl	3.286229	0.0	0.0
