13

C	-0.471546	-0.106653	-1.437703
C	0.0	0.0	0.0
F	-0.242642	-1.43286	-1.797992
H	1.087957	0.0	0.0
H	0.14831	0.520339	-2.079422
H	-0.398375	-0.813354	0.607668
N	-1.859258	0.179156	-1.719046
H	-2.43229	-0.203917	-0.974817
H	-1.974234	1.184222	-1.705537
N	-0.437708	1.253139	0.601052
O	-0.495879	2.256957	-0.124416
O	-0.675982	1.281036	1.811414
F	2.545978	0.0	0.0
