13

C	-0.573995	-0.079302	-1.384861
C	0.0	0.0	0.0
F	-2.015605	-0.150954	-1.279304
H	1.090156	0.0	0.0
H	-0.297939	-1.051506	-1.80143
H	-0.341818	-0.86276	0.570925
N	-0.186666	0.944528	-2.275948
H	-0.293612	1.84359	-1.830414
H	-0.736485	0.896331	-3.121186
N	-0.475225	1.162575	0.758338
O	-0.542197	2.263366	0.196705
O	-0.733656	1.006548	1.951749
F	2.548273	0.0	0.0
