11

C	-0.538239	-0.09289	-1.412542
C	0.0	0.0	0.0
Cl	-0.426296	1.47859	-2.294309
H	1.092242	0.0	0.0
H	-1.589362	-0.384087	-1.437815
H	0.05845	-0.804619	-1.98007
H	-0.399102	0.892436	0.499401
N	-0.389922	-1.256533	0.677161
H	-1.071564	-1.081768	1.402686
H	0.452137	-1.603092	1.119933
F	2.729209	0.0	0.0
