11

C	-0.576726	-0.047023	-1.398436
C	0.0	0.0	0.0
Cl	-0.465944	1.539707	-2.243104
H	1.098169	0.0	0.0
H	-1.631916	-0.31986	-1.388281
H	-0.016464	-0.755764	-2.009289
H	-0.413183	0.858327	0.540491
N	-0.413979	-1.277232	0.653284
H	0.45124	-1.803212	0.735651
H	-0.691735	-1.073301	1.608702
F	2.735068	0.0	0.0
