11

C	-0.572878	-0.203683	-1.377398
C	0.0	0.0	0.0
Cl	-0.157734	-1.821994	-2.067587
H	1.092357	0.0	0.0
H	-1.664393	-0.162686	-1.376951
H	-0.15609	0.528734	-2.068741
H	-0.346746	1.000069	0.30409
N	-0.589278	-0.977238	0.946577
H	-0.13946	-1.86252	0.727814
H	-0.210902	-0.732347	1.857229
F	2.761682	0.0	0.0
