14

C	-0.249947	0.064073	0.088517
C	-0.61173	0.037583	-1.381883
F	0.973432	-0.51473	0.313432
H	0.158138	0.608043	-1.914422
H	-1.037859	-0.394519	0.690765
N	-0.108211	1.505621	0.500234
O	0.732156	2.170281	-0.10376
O	-0.797444	1.901962	1.434753
N	-1.901119	0.684503	-1.475841
H	-2.199521	0.697959	-2.446216
H	-2.555028	0.039992	-0.932627
C	-0.5175	-1.353008	-1.89165
N	-0.370852	-2.390371	-2.424756
H	-3.028617	-1.105838	0.012391
