14

C	-0.341375	0.046726	0.091494
C	-0.679159	0.302892	-1.370185
F	0.692406	-0.819483	0.231375
H	-1.490894	1.042502	-1.348008
H	-1.275832	-0.34682	0.545535
N	0.034907	1.325521	0.779204
O	-0.705177	2.287142	0.571755
O	1.004213	1.322298	1.532819
N	-1.070629	-0.983409	-1.93864
H	-1.469403	-0.80099	-2.855342
H	-1.872444	-1.258278	-1.327391
C	0.465058	0.882393	-2.08939
N	1.370401	1.350235	-2.672795
H	-2.980983	-0.992213	0.003605
