14

C	-0.222284	0.079674	0.048599
C	-0.557581	0.21043	-1.434859
F	0.9917	-0.526616	0.216871
H	-1.558366	0.649005	-1.471932
H	-1.047045	-0.539058	0.472499
N	-0.17532	1.405902	0.7259
O	0.746496	1.653119	1.499441
O	-1.125299	2.151974	0.480727
N	-0.619669	-1.090508	-2.079758
H	-1.362825	-1.576133	-1.539481
H	0.251286	-1.575507	-1.885512
C	0.387313	1.10731	-2.11772
N	1.159002	1.813947	-2.650566
H	-2.426566	-1.634117	-0.062423
