16
Coordinates from ORCA-job run
  C   -0.83091892359212     -0.09035256777140     -0.10585761714987
  C   0.60883570968090     -0.45785045362479     -0.48840436015182
  Br  -2.07308650318299     -1.29859397103251     -1.13185392366168
  H   0.66653314896446     -0.48226284306680     -1.57869416549678
  N   -1.03311968726125     -0.06720346289021      1.27219454187621
  H   -1.94533054677122      0.29122364994159      1.52299451207674
  H   -0.86337098588319     -0.97086620350189      1.69606442372011
  N   -1.17567405800209      1.29018411414598     -0.66454896155936
  O   -0.63904011634940      1.61070836400965     -1.71658707555810
  O   -1.99108385248194      1.94720477508586     -0.03009278914925
  C   0.87794040365891     -1.79925428051867      0.03147766713896
  N   1.10814235448822     -2.84797415233850      0.50791622563403
  C   1.63085881762799      0.53882227665582      0.07436955083944
  H   1.54522750346543      0.60525447724145      1.15823289959150
  H   1.47619388160320      1.52499003814234     -0.36303020625802
  H   2.63789285403508      0.20597023952206     -0.18318072189210
