16
Coordinates from ORCA-job run
  C   -0.77382488088304      0.25411389972646     -0.23504795667565
  C   0.65989231449740     -0.01266485418156      0.28318849609590
  Br  -0.73617067081247      0.93892066053761     -2.03358243646286
  H   0.52225618789773     -0.34438310349803      1.31986004844816
  N   -1.67959051973610     -0.84820990433422     -0.17588016647139
  H   -1.52979126424193     -1.50020264499212     -0.93191897276387
  H   -1.63190007698241     -1.30952471981453      0.72477812188321
  N   -1.36436158053672      1.30863275995291      0.72600155458007
  O   -1.51603183075649      0.86557411142697      1.86263762513500
  O   -1.61490873218640      2.43709752518174      0.34161013236750
  C   1.43923295696170      1.22459837088780      0.32190300039978
  N   2.08677450528546      2.20418581970907      0.35210532149572
  C   1.39463693654009     -1.10018369156308     -0.50043087711334
  H   1.58681869189519     -0.78339663801460     -1.52495707991324
  H   2.35006242550166     -1.31292832129963     -0.01844424201081
  H   0.80890553755632     -2.02062926972480     -0.51182256899419
