16
Coordinates from ORCA-job run
  C   -0.82090815481051      0.01591004390606     -0.14511922295296
  C   0.59332087595382     -0.57493453813538     -0.00671632622153
  Br  -1.31779130397932      0.06231985123367     -2.09415134289233
  H   0.45623811551983     -1.64198524152744     -0.22846311647867
  N   -1.73067536633497     -0.67333327453844      0.65992791202216
  H   -2.64990461501835     -0.24929056561396      0.64769109354994
  H   -1.77815346831198     -1.65816101852854      0.43649214054186
  N   -0.90333065786054      1.48218164940452      0.28182668941917
  O   0.14276110569416      2.11192239713531      0.35957131613008
  O   -2.02894320080459      1.90724343280938      0.50442091359701
  C   0.99153519568356     -0.47802992041676      1.40231852581951
  N   1.36321624703165     -0.41033333624555      2.51395202761059
  C   1.70964438222171     -0.05677795402542     -0.91971874521095
  H   1.89989909641217      0.99905912998162     -0.74844739780388
  H   1.45293183099868     -0.21713948004555     -1.96543960344328
  H   2.61915991760467     -0.61865117539354     -0.69814486368673
