16
Coordinates from ORCA-job run
  C   -0.75127082010121      0.12768994489202     -0.19554236228187
  C   0.72392426620089     -0.02782110309960      0.21639576949584
  Br  -0.93974042224880      0.98755431922916     -1.90741252643541
  H   0.69391198523522     -0.51973117056325      1.19742608775653
  N   -1.38643312696210     -1.13805098536114     -0.22155401659560
  H   -1.42295590290843     -1.52129273387528      0.71713976513939
  H   -2.32192754269255     -1.07895463104583     -0.60418696802202
  N   -1.37980602771734      1.05706866694872      0.90489429506483
  O   -1.67681630663850      2.21364429229542      0.66000510304646
  O   -1.48360857756230      0.48547310519438      1.98936110465040
  C   1.34798226818225      1.28117281478386      0.41043694603339
  N   1.88072219774412      2.31653830814005      0.56421227596426
  C   1.52976393289452     -0.88866240380484     -0.75774750746707
  H   1.01273184382972     -1.83250490133184     -0.92545149332869
  H   2.51607180987496     -1.08643437962470     -0.33421126103383
  H   1.65845042286955     -0.37668914277713     -1.71076521198661
