16
Coordinates from ORCA-job run
  C   -0.87694147298052     -0.20392414357965     -0.09310902796839
  C   0.57690918882750     -0.54366866080403     -0.44568591858931
  Br  -2.10343225265381     -1.44909086702906     -0.93557863120430
  H   0.64445627246932     -0.56181022012941     -1.53648294424367
  N   -1.11407636757045     -0.17863304800197      1.28788948877242
  H   -0.54755139166178      0.52309683951746      1.74807519844891
  H   -2.08846970267789     -0.01118169920315      1.50214897253021
  N   -1.16292089719211      1.17045036969778     -0.79595304443096
  O   -1.66152915540014      2.04234460172711     -0.09328476794181
  O   -0.84437986959641      1.27543610134093     -1.97248488464476
  C   0.90604760602902     -1.87387222058222      0.06415675316053
  N   1.23382067215521     -2.92416221443392      0.47359748347001
  C   1.56377355859778      0.49588533162158      0.10339162101693
  H   2.56852770139066      0.25469082668115     -0.24657557728805
  H   1.31658299780537      1.49781823335971     -0.25272722399576
  H   1.58718311245825      0.48862076981768      1.19462250290798
