16
Coordinates from ORCA-job run
  C   -0.87867971386184     -0.21157067319493     -0.04652576111335
  C   0.56404120186890     -0.58116220832165     -0.41402648524280
  Br  -2.12828939247738     -1.52679725243836     -0.73382286627366
  H   0.59722464450743     -0.69415258394252     -1.50067982815412
  N   -1.07079539105985     -0.06254350026809      1.33395904198912
  H   -0.49254220710831      0.67923083507225      1.70919302675747
  H   -2.03837729569676      0.12441062574899      1.56297227380883
  N   -1.19100591471583      1.09468152515834     -0.85980791594951
  O   -1.66793440534316      2.02663894612786     -0.22199848645544
  O   -0.91146053377571      1.09383039355081     -2.05096203421401
  C   0.91259539439113     -1.86203783577236      0.19867990895362
  N   1.25525354365897     -2.87336465498726      0.68627331379247
  C   1.56487618282308      0.50213074636037      0.01143147148170
  H   1.30029718804702      1.47093249331155     -0.41659724379201
  H   1.62735908318701      0.58485700334392      1.09791819551980
  H   2.55743761555531      0.23491614025106     -0.35400661110809
