16
Coordinates from ORCA-job run
  C   -0.84157848065990     -0.02042374476272     -0.05061877675984
  C   0.53325844784848     -0.52250521806717     -0.51082221646399
  Br  -2.24788451683630     -1.13880272720931     -0.95852083353380
  H   0.51786274186010     -0.57873304865569     -1.60135703469874
  N   -0.95047195682564      0.05530265657019      1.33623977990514
  H   -1.80881515814003      0.50130307211464      1.63267783304161
  H   -0.83575185194976     -0.84984529176111      1.77534966895201
  N   -1.09828704653360      1.37106523140274     -0.63001333448527
  O   -0.61719708028538      1.60818547818257     -1.72997506815207
  O   -1.79566071125481      2.12166671850633      0.03996788398048
  C   0.72093833644779     -1.86880605216339      0.03121966319023
  N   0.89353198205701     -2.92177506032598      0.52210549204747
  C   1.67028602214234      0.39577374082570     -0.04353142503226
  H   1.66731174828038      0.48910334066755      1.04163887296244
  H   2.62596219015641     -0.02400180471137     -0.36207565334612
  H   1.56649533369291      1.38349270938701     -0.49228485160730
