16
Coordinates from ORCA-job run
  C   -0.94804556280155     -0.07974674227404     -0.13814546567067
  C   0.49310510234489     -0.52406627759379     -0.50772158977675
  Br  -2.20779154176391     -1.17345112262240     -1.14166208306817
  H   0.55941154766304     -0.56678015710661     -1.59875173527867
  N   -1.32773555937708     -0.08331070672517      1.22174303228514
  H   -0.84785400030754      0.62436473031090      1.76071252231016
  H   -1.24099206779974     -1.00378071946796      1.63187760595736
  N   -1.03874864484828      1.36043085723910     -0.65997670241274
  O   -0.89985890179395      1.51244841771787     -1.86566678710929
  O   -1.14014691255905      2.24692328290163      0.18035270638279
  C   0.69892732543888     -1.86339106168999      0.03884238809797
  N   0.87268002077837     -2.91419169468250      0.53408699490143
  C   1.55212844029326      0.44054544959268      0.03849383491331
  H   1.46290175467686      1.42082869121496     -0.43198621915587
  H   2.54710374704922      0.05093384357122     -0.18111256673543
  H   1.46591525300657      0.55124320961411      1.12091406435943
