16
Coordinates from ORCA-job run
  C   -0.91585228937052     -0.07462368847786     -0.21480333208170
  C   0.54107942565053     -0.61153649144264     -0.09709789661188
  Br  -1.56790539901684     -0.46490344556052     -1.99379146953295
  H   0.50083516935544     -1.63939653025166     -0.47490196602197
  N   -1.87237849501897     -0.54540801275596      0.72831995194629
  H   -2.08662025144422     -1.52155624524754      0.57441682570955
  H   -1.54690722252490     -0.39389622058569      1.67657972048419
  N   -0.81752999702890      1.44402754150961     -0.01165488190140
  O   -0.71029072682827      1.76455504235179      1.16912411482806
  O   -0.76689198793561      2.18856566975493     -0.97779300805063
  C   0.91654575567967     -0.69020590608973      1.31690001215057
  N   1.22219495222921     -0.77622889270978      2.44804889384179
  C   1.57953562684848      0.18527645710832     -0.89094935457461
  H   1.26644684973383      0.29030613983958     -1.92954866394056
  H   2.53818147166157     -0.33494440964403     -0.86262593684456
  H   1.72055711800948      1.17796899220118     -0.46122300940019
