16
Coordinates from ORCA-job run
  C   -0.91160178019922     -0.08348621801625     -0.22979136963696
  C   0.54787029706626     -0.60521768407072     -0.08221062175102
  Br  -1.52542189991759     -0.48403273068778     -2.01998666820415
  H   0.52131881952670     -1.63905508355331     -0.44515361723723
  N   -1.88055760631169     -0.56451064886285      0.69550753004208
  H   -2.07307554871763     -1.54572197122304      0.54463695897710
  H   -1.57890315186331     -0.39989537586809      1.64936879490426
  N   -0.83467751186324      1.43622586434872     -0.02761480424666
  O   -0.75454050168764      2.17696651010078     -0.99489502477564
  O   -0.77472468812683      1.76369241602603      1.15472990409268
  C   0.90139989533994     -0.65910506831153      1.33864368487955
  N   1.19347343335427     -0.72101123886143      2.47481927377139
  C   1.59363125580514      0.18793953709353     -0.87042644857521
  H   1.71748762748585      1.18943866328129     -0.45588772441397
  H   1.29949502289906      0.27239528309544     -1.91647511679071
  H   2.55582633720994     -0.32362225449078     -0.81526475103553
