16
Coordinates from ORCA-job run
  C   -0.81083933655787     -0.10526041636603     -0.20708419784113
  C   0.67107140403285     -0.44618272052417     -0.41181511620003
  Br  -1.89827533530155     -1.32635536699893     -1.38052599496962
  H   0.86171839239317     -0.46356720282438     -1.48699169401524
  N   -1.17967052681846     -0.09256691081034      1.13643671420745
  H   -1.05121048425113     -0.99693832975196      1.57328460163169
  H   -2.12034188669644      0.25276107380266      1.27570505794438
  N   -1.10459341552167      1.27362992441987     -0.79931616749535
  O   -1.98725288336068      1.92519617184897     -0.25623251005078
  O   -0.45969550051608      1.59866390234534     -1.78721012753158
  C   0.89964429190663     -1.78499417647280      0.13298343234535
  N   1.08975405047304     -2.83180220968126      0.63047907660044
  C   1.59763448812537      0.56620784433033      0.27446082219180
  H   1.38413227286487      0.62066954502375      1.34110135167680
  H   2.63491352242090      0.25729986758284      0.13442352161525
  H   1.47401094680704      1.55323900407611     -0.17069877010944
