16
Coordinates from ORCA-job run
  C   -0.83254997902839     -0.02261253807624     -0.04764773442662
  C   0.61373832801485     -0.54811170160267     -0.06742888655898
  Br  -1.55406790741802     -0.03654391478200     -1.92704281186009
  H   0.50024585598206     -1.62479973453579     -0.25305604120801
  N   -1.61009428441533     -0.73482275748799      0.86723564562590
  H   -1.64168965547309     -1.72463257142247      0.66487394889983
  H   -2.54018272510767     -0.34798229458311      0.96415895113569
  N   -0.93070197283051      1.44752004169755      0.36370439136168
  O   -2.03771070815140      1.82604467130000      0.72169523182925
  O   0.08571052738337      2.12498838685777      0.29719794496039
  C   1.16929199270824     -0.40485953721777      1.28307731919595
  N   1.66461825599345     -0.29946053327791      2.34240427583854
  C   1.59133919583710     -0.00254054790705     -1.11377306660600
  H   1.74968335304185      1.06449493461843     -0.98597735251860
  H   1.22320676218829     -0.19947371223184     -2.11905397274334
  H   2.54616296127520     -0.51720819134890     -0.98936784292557
