16
Coordinates from ORCA-job run
  C   -0.75954089168656      0.29306906773926     -0.23663272658490
  C   0.65747110035746     -0.04664646625081      0.28525643981613
  Br  -0.68060823162223      0.98641147533293     -2.03087655344732
  H   0.50052079177520     -0.37600854546784      1.31998404393731
  N   -1.71886466902116     -0.76327686054447     -0.18847099917561
  H   -1.70085345387800     -1.22923673395406      0.71090000867210
  H   -1.59428361530591     -1.41971361548541     -0.94541402949615
  N   -1.30091204152086      1.36998400198213      0.72870037554763
  O   -1.48964913049231      2.51258201763780      0.35094427804606
  O   -1.48154168010254      0.92809410629820      1.86146284158845
  C   1.49580890576534      1.15123882650419      0.33245715261724
  N   2.18910292115806      2.09874491360672      0.36897375375206
  C   1.34042407935809     -1.16581490310425     -0.50056712183128
  H   1.54280446529889     -0.85835600650257     -1.52618596755431
  H   0.71391935204949     -2.05931478727276     -0.50883935814183
  H   2.28720209786705     -1.42075649051906     -0.02169213774558
