16
Coordinates from ORCA-job run
  C   -0.83667092416931     -0.13991159214519     -0.31553449809020
  C   0.60193721694524     -0.63087677268483     -0.04205396085442
  Br  -1.26458723242663     -0.32344578602742     -2.19554254718053
  H   0.59516924756415     -1.67400842309479     -0.37653962242900
  N   -1.76731461292456     -0.88017018091507      0.43773042029583
  H   -2.72031373369201     -0.63221202303715      0.20290334041673
  H   -1.61916766228853     -0.74235058747937      1.43162846355816
  N   -0.86724199722415      1.39192914401098      0.01555608778365
  O   -0.39206878665915      2.17767179430864     -0.79165761880984
  O   -1.32034940682681      1.66631766042278      1.12349200033893
  C   0.81670697684442     -0.63744486510813      1.40873509348060
  N   0.99046277688894     -0.63055901946574      2.57060213219025
  C   1.73134739565291      0.13091484171728     -0.73970227624546
  H   1.54516520234322      0.19151955576433     -1.81130271042595
  H   1.83929562667203      1.14011440824474     -0.34471826180186
  H   2.66762991330025     -0.40548815451106     -0.57559604222690
