16
Coordinates from ORCA-job run
  C   -0.75419320379142      0.33698257806062     -0.19157955874312
  C   0.65129189902962     -0.10411760979107      0.28332739317795
  Br  -0.63764809936336      1.36053484846949     -1.81785362069515
  H   0.47263100134779     -0.62523281210179      1.23219890671222
  N   -1.71601857856947     -0.70396455798802     -0.36546082967525
  H   -1.71785994156683     -1.33240993398454      0.42913330935070
  H   -1.57537475637699     -1.20530803527071     -1.23080798375725
  N   -1.31371751276078      1.21164583831687      0.95114171825073
  O   -1.49579332803273      2.40603151965671      0.79505650214566
  O   -1.51734057047060      0.56204344918322      1.97463265733543
  C   1.48995636220613      1.05787620934723      0.57803630617789
  N   2.18343817871313      1.97619604372154      0.81399611553064
  C   1.34927602471785     -1.05472886857273     -0.68899990770763
  H   2.28510795713393     -1.40250035871874     -0.24861830516547
  H   1.57434614016788     -0.55662583833237     -1.63165596994399
  H   0.72189842761586     -1.92642247199570     -0.88254673299338
