16
Coordinates from ORCA-job run
  C   -0.74097134793437      0.17307730743126     -0.00212955598338
  C   0.77617227498379      0.09169103314776      0.19616196595890
  Br  -1.14233922285409      0.90033851252668     -1.82277759523044
  H   0.91695648926821     -0.04655725649774      1.27403473710666
  N   -1.37341421572338     -1.04629561289478      0.28962780457630
  H   -2.37959773020095     -0.92337257041647      0.31515652069672
  H   -1.13380683930056     -1.76228203354053     -0.38320752014097
  N   -1.35913264509892      1.19729111475298      0.95711791925216
  O   -2.57857006149425      1.16545747352990      1.05618161704140
  O   -0.59690230629505      1.94952945255288      1.54938617641927
  C   1.46490114542790      1.32305101622134     -0.19001509215784
  N   2.10097857365250      2.25363063065494     -0.51814287995191
  C   1.38779552984576     -1.10124831886186     -0.54774826890250
  H   2.47199926129039     -1.08104118439395     -0.43230358957378
  H   1.02508744284387     -2.04061080536347     -0.12857672307314
  H   1.15884365158916     -1.05365875884892     -1.61376551603746
