16
Coordinates from ORCA-job run
  C   -0.83198551473817     -0.00896907277175     -0.05034368708061
  C   0.60548520606266     -0.55855288890080     -0.06285279429695
  Br  -1.54856064252647     -0.02224303925076     -1.93146646753038
  H   0.47451583125634     -1.63408649667935     -0.24358764123863
  N   -1.62391501616477     -0.70252184807985      0.86673771433626
  H   -2.54861037322027     -0.30066265352018      0.95619150058279
  H   -1.66991003343058     -1.69315425777115      0.67121459718983
  N   -0.90688556886404      1.46491539311344      0.35210250743846
  O   0.12157497771364      2.12430455377018      0.28766872264812
  O   -2.00908853976537      1.86461801467078      0.70182476994365
  C   1.15768147133610     -0.41750621406477      1.28929390847041
  N   1.64621021764791     -0.31527111787491      2.35203271373469
  C   1.59514657914100     -0.03483932293481     -1.10875778986071
  H   1.22608434150325     -0.22986771286095     -2.11408992105776
  H   2.54020246033649     -0.56596795739735     -0.97954899237595
  H   1.77205460371230      1.02980462055224     -0.98541914090322
