16
Coordinates from ORCA-job run
  C   -0.91202693444410     -0.07589371420726     -0.22761653930993
  C   0.53975378650976     -0.61494033167090     -0.06889613548948
  Br  -1.53263432011639     -0.50839692317523     -2.00838379667372
  H   0.49863441273484     -1.65545043387493     -0.41099264277895
  N   -1.88736947680743     -0.52157112912398      0.70824538697075
  H   -1.58246508943312     -0.34203902133525      1.65834157348049
  H   -2.09860258858140     -1.50169645653076      0.57753699375277
  N   -0.81367301226127      1.44680486637122     -0.06069597993679
  O   -0.74739560844489      1.80023495269830      1.11387300040457
  O   -0.72518543968844      2.16458322816544     -1.04448958063173
  C   0.89300595234871     -0.64433459724134      1.35273371584452
  N   1.18299318419739     -0.68614744494137      2.49041424722165
  C   1.59614016790520      0.14736842574978     -0.87348258260887
  H   1.73547536634125      1.15459906816834     -0.47806245272283
  H   2.55069699607919     -0.37737682872877     -0.80990314371965
  H   1.30165260366072      0.21625633967670     -1.92062206380279
