16
Coordinates from ORCA-job run
  C   -0.72756245975636      0.17179982282678     -0.13184604860290
  C   0.75662460069742      0.01020659436047      0.21973580400310
  Br  -0.95916482717681      1.11394968140419     -1.81176162183279
  H   0.78841667960706     -0.36905545796891      1.24920429875244
  N   -1.37695320452090     -1.08225308528553     -0.20929609821741
  H   -1.28126372278309     -1.59086247911543      0.66437203807628
  H   -2.35878865473007     -0.96430557674938     -0.42996698059405
  N   -1.42405460199256      1.07241250422273      0.93979426391866
  O   -0.73343533166842      1.53052550895608      1.84389574836358
  O   -2.63725123648615      1.18386320890647      0.82272124881012
  C   1.46355079227188      1.29110757803972      0.21037419758760
  N   2.10338431889224      2.27408033687448      0.16068528394075
  C   1.46326505511111     -0.98161721126948     -0.71162574941691
  H   1.44416828199596     -0.61985624680352     -1.73963442062299
  H   0.97528429926974     -1.95403890330381     -0.67402482387349
  H   2.50378001126893     -1.08595627509486     -0.39962714029200
