16
Coordinates from ORCA-job run
  C   -0.82226820820086      0.00217277249924     -0.13831097763373
  C   0.60148448863874     -0.56667897347738     -0.00404198614851
  Br  -1.33705678391414      0.01243289311331     -2.08385836655821
  H   0.47732160807846     -1.63868635158472     -0.20874898881777
  N   -1.71517036322762     -0.68764024745822      0.68439178528375
  H   -2.63968545828814     -0.27529417050720      0.67708363535060
  H   -1.75099224331247     -1.67631375629335      0.47686470207528
  N   -0.92112188591218      1.47376639728929      0.26785954708475
  O   -2.04984587405103      1.88573452854441      0.49889651077795
  O   0.11640880506164      2.11973412867116      0.32182570666602
  C   1.00967044615359     -0.44426648786012      1.40003904781890
  N   1.38715820023510     -0.35576414895272      2.50824574570724
  C   1.70262146964457     -0.04634341991982     -0.93369568779438
  H   1.43775305492801     -0.22199942986355     -1.97483825347183
  H   2.62110548049596     -0.59441888219281     -0.71476786298671
  H   1.88161726367037      1.01356514799249     -0.77694455735334
