16
Coordinates from ORCA-job run
  C   -0.78773066239437      0.23434852538870     -0.20922127881460
  C   0.67451043270285      0.00866255306731      0.24553682790402
  Br  -0.85543879631195      0.78089433851285     -2.05374327714935
  H   0.59724525869754     -0.24405746471137      1.31038150794409
  N   -1.68307438361511     -0.86025378060232     -0.01537926388215
  H   -1.57595883306907     -1.56669925542223     -0.72841305441004
  H   -1.58386527091328     -1.25250620054066      0.91315952557397
  N   -1.32628269420413      1.35967253345519      0.70121816190054
  O   -1.59549484588705      2.45786943101087      0.24792833582544
  O   -1.41628224215099      1.00315756943832      1.87416539502825
  C   1.44823812888481      1.24620530405373      0.14718327419879
  N   2.09136820933686      2.22583263966408      0.06630598596164
  C   1.36950272205791     -1.13425277773840     -0.49411333687839
  H   2.35316659334568     -1.30682398969205     -0.05451344588537
  H   1.49896722991692     -0.89700019873577     -1.54958739291702
  H   0.79012915360339     -2.05404922714826     -0.39990796439980
