16
Coordinates from ORCA-job run
  C   -0.90993544773290     -0.07322997475297     -0.23424341147291
  C   0.54246582451517     -0.61188607737381     -0.07838604084386
  Br  -1.51757890532188     -0.46690646110147     -2.02814881861058
  H   0.50587140584286     -1.64577609726538     -0.44019499047963
  N   -1.89021624196406     -0.54238815198140      0.68475650054625
  H   -2.10325283150727     -1.51784337291805      0.52636989232927
  H   -1.59054337830243     -0.38873726071172      1.64102175200073
  N   -0.81687519152651      1.44579135617265     -0.03196133528867
  O   -0.72676751496960      2.18626040626832     -0.99851792707093
  O   -0.75937993532395      1.77185059767677      1.15095162968832
  C   0.88817334938621     -0.66850790554722      1.34439931360813
  N   1.17464422921406     -0.73169402334813      2.48184931718246
  C   1.60105471349584      0.16937152151833     -0.86146618599762
  H   2.55686653862686     -0.35365777079343     -0.80275420777534
  H   1.73501358965082      1.16877983564664     -0.44502381837196
  H   1.31245979591679      0.25857337851085     -1.90865166944369
