16
Coordinates from ORCA-job run
  C   -0.83205926883402     -0.02527250581314     -0.03651792361636
  C   0.61574715625233     -0.54551949629346     -0.07769351100591
  Br  -1.57728267516412     -0.02444461059078     -1.90564700270191
  H   0.50423896010266     -1.62237008608583     -0.26335196548509
  N   -1.59606353593936     -0.74787526555379      0.88228049058982
  H   -2.52681423648164     -0.36504974112174      0.99140494526397
  H   -1.62778144868500     -1.73561632161056      0.66950235490771
  N   -0.92870725473887      1.44087758931193      0.38854936264906
  O   0.08405495029844      2.12260267962310      0.30938218677967
  O   -2.03103166267054      1.81318675580437      0.76711446913990
  C   1.18778066972637     -0.40114892560590      1.26591045739143
  N   1.69291330622219     -0.29276260695054      2.32019060089681
  C   1.57568925187121      0.00568732009789     -1.13698210001312
  H   1.19883662177562     -0.20188564592603     -2.13680982656589
  H   2.53802232779102     -0.49663638957050     -1.02031544588243
  H   1.72245683847371      1.07522725028496     -1.01701709234766
