16
Coordinates from ORCA-job run
  C   -0.86112040709393     -0.17184222461452     -0.21998067642765
  C   0.61086963315182     -0.61877303207300     -0.08366783907794
  Br  -1.47871398758265     -0.43748623449698     -2.03643911137069
  H   0.59787512348838     -1.67300047793195     -0.38112454413711
  N   -1.68733998034810     -0.90388912459724      0.65357286625384
  H   -1.43847242383494     -0.72632971385486      1.62066205722507
  H   -2.66581206395388     -0.68493730206122      0.51404406047954
  N   -0.89799551703834      1.37041781982853      0.05752792451829
  O   -1.23608245507968      1.67630706132644      1.19791790925345
  O   -0.53573863754599      2.13588480615497     -0.82434360605238
  C   0.97763545494268     -0.56789556736714      1.33549890103692
  N   1.27300175154737     -0.51268272526212      2.47122334246085
  C   1.63919111408059      0.14464833861227     -0.92179424869633
  H   1.33991779728107      0.16210206472102     -1.96903928062021
  H   1.75955836082005      1.16980059831263     -0.57420422499473
  H   2.60222623716555     -0.36232428669683     -0.83985352985094
