16
Coordinates from ORCA-job run
  C   -0.72869766791838      0.21725740576386     -0.02795358490649
  C   0.76760941895949      0.03017323894452      0.24400337802069
  Br  -0.98180020719589      1.10188714986298     -1.80578422206569
  H   0.83810726917704     -0.19529593046607      1.31407723525439
  N   -1.44422709472491     -0.97987584890849      0.13304314568540
  H   -1.20533350143538     -1.65777506973520     -0.57831082188927
  H   -2.44180802995816     -0.79911984553010      0.11273967702237
  N   -1.34323995673389      1.20264885986843      0.97315872415327
  O   -0.57560966745507      1.86212681218894      1.66115507115381
  O   -2.56621381010223      1.23618779011614      1.00465875246990
  C   1.54538038036377      1.24296839499662     -0.00875743895870
  N   2.25117039391515      2.15477261375700     -0.22935552525532
  C   1.35326284155706     -1.13924425164014     -0.55594528453553
  H   2.42844246320878     -1.19297709696914     -0.38164801652137
  H   1.18917402892302     -0.99933230088305     -1.62578959997467
  H   0.91478313941958     -2.08340192136629     -0.23029148965282
