16
Coordinates from ORCA-job run
  C   -0.93832511546702     -0.13116575011695     -0.16486469855832
  C   0.53422149381306     -0.51605359697155     -0.47282737315850
  Br  -2.10991055424056     -1.32019548843150     -1.16617174967314
  H   0.63839384653969     -0.59289117552802     -1.55902217138404
  N   -1.36230998387386     -0.10592671402733      1.18174952418736
  H   -0.92936388719117      0.63862256975169      1.71087928959108
  H   -1.24986988456446     -1.00784665867339      1.62559234241624
  N   -1.08100841316413      1.28371247112839     -0.74179531457642
  O   -1.25125376063998      2.19288655540914      0.06239971552540
  O   -0.91103071783961      1.40026960812733     -1.94743505762114
  C   0.78669363531183     -1.82351578175848      0.12852439456478
  N   0.99405409813485     -2.84645253765824      0.66722667568131
  C   1.52679393019302      0.51837235468486      0.07076195153286
  H   2.54597004023359      0.17145983960262     -0.10497667614374
  H   1.40073078295761      0.66115076634584      1.14546646529361
  H   1.40521448979714      1.47657353811558     -0.43650731767731
