16
Coordinates from ORCA-job run
  C   -0.83079366208775     -0.06585493865398     -0.12775921106471
  C   0.60135194956442     -0.54040144666161     -0.40696758723628
  Br  -2.09589114054477     -1.32855620009261     -1.05479732920515
  H   0.69509390817291     -0.69589053465706     -1.48378808807721
  N   -1.07910024020378      0.12958452592450      1.22870293723408
  H   -0.97178409033320     -0.72464106457725      1.76154628617058
  H   -1.97889956845499      0.55929755613553      1.39950687329254
  N   -1.08350900293135      1.25380747776489     -0.85800945831651
  O   -0.50727841399755      1.41250392013454     -1.92576470868876
  O   -1.87012112393719      2.02880727332787     -0.32991121006027
  C   0.78741323184333     -1.82100118957440      0.27645687925104
  N   0.94904117171054     -2.81398946062577      0.88247252758877
  C   1.65016483894533      0.47011261247745      0.07632928403274
  H   1.55489006240425      1.40568521910138     -0.47440438669010
  H   2.64816847098227      0.06774734712030     -0.10549856677792
  H   1.53425360886754      0.66378890285623      1.14188575854717
