16
Coordinates from ORCA-job run
  C   -0.91717724079251     -0.16087956688588     -0.24054882520209
  C   0.58978322174791     -0.46848045363861     -0.45568914988660
  Br  -1.95859492905617     -1.34351636267974     -1.38245072769120
  H   0.77591584758865     -0.48800862197145     -1.53344235319800
  N   -1.43892168744279     -0.22335190014427      1.07032373001209
  H   -1.32466529055357     -1.14397340496122      1.47345586575924
  H   -1.07252631808799      0.50447004517730      1.66854927367107
  N   -1.08034810511780      1.27478808198675     -0.75637587427527
  O   -1.34519276438172      2.13361775515121      0.07707778672103
  O   -0.82945027081584      1.46057239912928     -1.93904557389196
  C   0.85526670506628     -1.79242564825678      0.10269334545781
  N   1.06495973203746     -2.83154255654282      0.60838122623983
  C   1.49347758732281      0.57826384776182      0.20619497211498
  H   1.36821744818833      1.55322732353730     -0.26732821106101
  H   1.28222026958842      0.66637348036599      1.27346360011235
  H   2.53703579470854      0.28086558197115      0.09374091511773
