16
Coordinates from ORCA-job run
  C   -0.86120432527755     -0.18931170418200     -0.20377443297885
  C   0.62259635312433     -0.60464614264498     -0.09891332511472
  Br  -1.50958270444979     -0.45743260819513     -2.00883367068609
  H   0.62628538558924     -1.65789254465865     -0.40009834824024
  N   -1.65385126687490     -0.94371763148728      0.68171008683080
  H   -1.39289322530841     -0.76195732574961      1.64487778785635
  H   -2.63980317446349     -0.74956355334462      0.55873888285023
  N   -0.92568549553309      1.35074654784263      0.08398609668298
  O   -1.24939797932396      1.64270909977643      1.23213344360189
  O   -0.59485948984219      2.12853030528517     -0.79937788988385
  C   1.01530051489571     -0.55135075754548      1.31320111690287
  N   1.33074805199093     -0.49653659731759      2.44345810818359
  C   1.61774358070480      0.18373347221322     -0.95374681320255
  H   1.29820359009813      0.19788711883330     -1.99509488698210
  H   2.59299744163675     -0.30242095129017     -0.89218536774411
  H   1.72240274303349      1.21022327246476     -0.60508078807619
