16
Coordinates from ORCA-job run
  C   -0.77439532171257      0.17059503822073     -0.03057584622490
  C   0.74129175759330      0.02394940008848      0.19437587709071
  Br  -1.12987417564460      1.00828970263553     -1.78533578380987
  H   0.82454983576518     -0.30759732780757      1.23716685892157
  N   -1.42215781156342     -1.06754650843936      0.16147893531506
  H   -2.42663531041055     -0.95776847718326      0.23342946795136
  H   -1.21497402289075     -1.70076031273360     -0.59967915048591
  N   -1.27620937121966      1.13995440755768      1.06750227368790
  O   -1.45943415807893      0.61590494486546      2.16105233551491
  O   -1.38186061869127      2.32634293950813      0.79888281562981
  C   1.42465593490594      1.31158230704620      0.07290196010115
  N   2.02772753636071      2.31500107994780     -0.01849364377131
  C   1.38852298332667     -1.02502522642548     -0.71257748046030
  H   0.97716801792747     -2.01352759522284     -0.50280896113831
  H   1.24220128510216     -0.77546298400387     -1.76401534818219
  H   2.46042343923032     -1.06293138805404     -0.51330431013968
