16
Coordinates from ORCA-job run
  C   -0.77697822237010      0.15562381205392     -0.03970542830646
  C   0.74250616282853      0.05463457430539      0.18567446569067
  Br  -1.15819058297030      0.82521921048078     -1.85993054277074
  H   0.83874573813361     -0.17580384130991      1.25427047985847
  N   -1.40203835337688     -1.07091234850516      0.26816041228038
  H   -2.40738030387796     -0.97039292264979      0.34181002038783
  H   -1.19290210598399     -1.76467418365566     -0.43769414152978
  N   -1.28831416025531      1.21209402828526      0.96967383894805
  O   -1.40290831947401      2.36964740989655      0.59847796746253
  O   -1.46753058105185      0.78470505414177      2.10521423616504
  C   1.40508847561762      1.33465860300061     -0.06326607837866
  N   1.99352056920665      2.33258172394983     -0.25475659596841
  C   1.39927737284052     -1.06564060703428     -0.62400560205953
  H   1.24001820186322     -0.91922141713536     -1.69289066321015
  H   2.47333255182169     -1.06770338194306     -0.43286966924126
  H   1.00575355704855     -2.03581571388090     -0.31716269932798
