16
Coordinates from ORCA-job run
  C   -0.86699120914718     -0.17840231830779     -0.18928039936539
  C   0.60969361896463     -0.61859170920485     -0.09045044340706
  Br  -1.54087545408705     -0.47909356223080     -1.98040259053897
  H   0.59090915381031     -1.67881577958432     -0.36548606054020
  N   -1.66347668585139     -0.89504806993463      0.72311593764726
  H   -1.38360413039502     -0.70121704823941      1.67852006388514
  H   -2.64638066557170     -0.68033854993899      0.61099399934841
  N   -0.90018742111177      1.36957597816074      0.05954299559675
  O   -1.20937045177721      1.69664640219097      1.20221310385290
  O   -0.56119507388680      2.11825508516675     -0.84563410072228
  C   1.02063576180273     -0.53715930268460      1.31508881154448
  N   1.35143023917872     -0.45933261692318      2.43969212228422
  C   1.60927744658015      0.12981398632489     -0.97600645249832
  H   1.73855613147850      1.16183104887750     -0.65281648370315
  H   1.27640418647699      0.12660273188149     -2.01320728414397
  H   2.57517455353609     -0.37472627555375     -0.91488321923981
