16
Coordinates from ORCA-job run
  C   -0.95283344356842     -0.06048138840296     -0.11356885799730
  C   0.46712216946274     -0.56979207596688     -0.48191413447147
  Br  -2.26430949024922     -1.18003115671407     -1.01654511355175
  H   0.50814432475719     -0.68582046180444     -1.56884134437468
  N   -1.30278118836297      0.03600497192254      1.25102533376398
  H   -0.78503266535564      0.75719538751368      1.73424731159717
  H   -1.23945237045900     -0.85945274413440      1.71706240358256
  N   -1.01460890291949      1.34443043818565     -0.72742553112288
  O   -1.06937852726984      2.28643949065653      0.05481683010408
  O   -0.90045846930835      1.41326148553041     -1.94330802176470
  C   0.64737803288864     -1.87594573137321      0.14783480750949
  N   0.80179988229773     -2.89686961319246      0.70766066750432
  C   1.56441876843395      0.39697544505663     -0.02212856670306
  H   1.49142211113832      1.34735243208297     -0.55291759259019
  H   1.50666004905195      0.57928148714133      1.05246108069563
  H   2.54290971946241     -0.03454796650133     -0.23745927218118
