16
Coordinates from ORCA-job run
  C   -0.73619617184771      0.19241579755545      0.01671669905162
  C   0.77825685296517      0.05167862771589      0.20378467960318
  Br  -1.11678786154809      1.10593283379973     -1.72298653863716
  H   0.91494444141379     -0.19253811666571      1.26328048498389
  N   -1.40141071143270     -1.03209940808378      0.18794792255486
  H   -2.40435138777066     -0.88556828662882      0.22592681316157
  H   -1.17959427729673     -1.68459858331671     -0.55209295150381
  N   -1.32754571882667      1.13404541548360      1.07262194659294
  O   -0.54581669995646      1.80640163077831      1.73175008474803
  O   -2.54692377334430      1.12142441716794      1.17402378551949
  C   1.49967670854373      1.29516459202282     -0.06640898193295
  N   2.16015137507514      2.23423025601391     -0.31208014512254
  C   1.35879974320006     -1.07999241768874     -0.65266729023138
  H   1.13679216852758     -0.92057282838509     -1.70940202018415
  H   0.96746773897931     -2.04569589779202     -0.32953587884741
  H   2.44253757331852     -1.10222803197678     -0.53287860975616
