16
Coordinates from ORCA-job run
  C   -0.91444243885396     -0.06934637529090     -0.22109673245020
  C   0.53976815887642     -0.60988153064603     -0.09023832692957
  Br  -1.54648598841507     -0.44322296847704     -2.01123497191918
  H   0.49516637517812     -1.64310628695645     -0.45335536454432
  N   -1.88141464232598     -0.55124561451522      0.70533592303822
  H   -1.57391879372240     -0.39850205319623      1.65913471273665
  H   -2.08440589490696     -1.52890011228637      0.54540834056941
  N   -0.81913237161225      1.44703756036508     -0.00391310124379
  O   -0.71011097869133      2.19265092809070     -0.96496405165995
  O   -0.77410928332790      1.76661458998502      1.18109585022475
  C   0.90621517156406     -0.66826565257845      1.32730331536536
  N   1.20784225009206     -0.73044241218960      2.46093346999840
  C   1.58974351494128      0.16871395011645     -0.88751880134140
  H   2.54389806893773     -0.35877244743499     -0.84320582818968
  H   1.28634780447097      0.26049474506779     -1.93023224822952
  H   1.73403904779522      1.16717367994625     -0.47245218542520
