16

C	0.0	0.0	0.0
C	-0.360426	0.12422	-1.530084
Br	1.953826	0.0	0.0
H	0.423807	-0.418294	-2.071723
H	-0.303323	0.900046	0.538834
N	-0.506396	-1.13471	0.712638
H	-1.51173	-0.998038	0.825219
H	-0.365396	-1.978016	0.166729
C	-0.327348	1.591686	-1.938048
H	-1.164944	2.112984	-1.464381
H	-0.447598	1.674173	-3.019164
H	0.605369	2.077063	-1.641795
N	-1.62087	-0.439912	-1.952972
H	-2.417845	-0.020388	-1.47393
H	-1.668796	-1.429185	-1.744323
Br	-4.301857	0.0	0.0
