16

C	0.0	0.0	0.0
C	-0.415255	0.160715	-1.515881
Br	1.956436	0.0	0.0
H	0.478808	-0.06434	-2.104363
H	-0.256949	0.897111	0.5737
N	-0.506308	-1.225482	0.554753
H	-0.295867	-1.256624	1.546498
H	-1.52308	-1.171581	0.465525
C	-0.815194	1.608382	-1.764127
H	-1.00087	1.759629	-2.829707
H	-0.026731	2.294547	-1.438776
H	-1.737137	1.829226	-1.219558
N	-1.452741	-0.72205	-2.005648
H	-2.343393	-0.515451	-1.555059
H	-1.207465	-1.680764	-1.791427
Br	-4.08888	0.0	0.0
