16

C	0.0	0.0	0.0
C	-0.540084	-0.085018	-1.413652
Br	2.044043	0.0	0.0
H	-1.614109	0.086709	-1.247181
H	-0.213485	0.991186	0.393538
N	-0.5038	-0.987885	0.841026
H	-0.247335	-1.929277	0.590469
H	-0.369857	-0.810724	1.823092
C	-0.365965	-1.459388	-2.050531
H	0.691243	-1.740883	-2.103308
H	-0.769456	-1.437682	-3.066283
H	-0.924085	-2.222197	-1.50213
N	-0.016597	1.029945	-2.198616
H	0.900593	0.792615	-2.560668
H	-0.634806	1.186033	-2.985359
Br	-4.104887	0.0	0.0
