16

C	0.0	0.0	0.0
C	-0.538556	0.191998	-1.422581
Br	1.955084	0.0	0.0
H	-1.607966	-0.024819	-1.302164
H	-0.277797	0.875145	0.590955
N	-0.481935	-1.166026	0.696065
H	-1.489645	-1.027506	0.806044
H	-0.355645	-1.98156	0.106448
C	0.045069	-0.750678	-2.459162
H	-0.55931	-0.710053	-3.371185
H	0.036834	-1.787074	-2.112493
H	1.071616	-0.469663	-2.702583
N	-0.323224	1.581212	-1.847265
H	-0.973753	2.158304	-1.318962
H	-0.620107	1.658346	-2.81548
Br	-3.844813	0.0	0.0
