14

C	0.0	0.0	0.0
C	-0.560694	0.108236	-1.411451
Br	1.955289	0.0	0.0
H	-1.648326	0.23821	-1.259231
H	-0.322483	-0.97303	0.368938
C	-0.404013	1.036689	0.946168
N	-0.579917	1.835689	1.789317
N	-0.283926	-1.063052	-2.163402
H	0.635206	-1.014233	-2.583599
H	-0.971465	-1.166118	-2.896708
N	-0.052318	1.383027	-2.074169
O	-0.215567	2.432578	-1.461559
O	0.470027	1.284514	-3.185321
Cl	-3.422825	0.0	0.0
