14

C	0.0	0.0	0.0
C	-0.402023	0.478903	-1.457045
Br	1.949561	0.0	0.0
H	0.535047	0.63722	-1.997545
H	-0.355394	-1.001047	0.222384
C	-0.406598	0.967539	1.00913
N	-0.566501	1.804186	1.818831
N	-1.20313	1.628867	-1.637743
H	-0.689132	2.453858	-1.356147
H	-2.05896	1.518706	-1.089164
N	-0.977941	-0.72404	-2.203446
O	-1.721562	-0.517714	-3.146564
O	-0.528192	-1.820496	-1.874565
Cl	-3.151429	0.0	0.0
