14

C	0.0	0.0	0.0
C	-0.566743	-0.215688	-1.395659
Br	1.95512	0.0	0.0
H	-1.653286	-0.052669	-1.271723
H	-0.320725	-0.86324	0.582172
C	-0.403318	1.223792	0.687032
N	-0.588215	2.1869	1.33399
N	-0.296169	-1.528653	-1.861835
H	-0.988888	-1.794785	-2.547411
H	0.620451	-1.579688	-2.287142
N	-0.061755	0.872474	-2.3346
O	0.445178	0.521939	-3.401158
O	-0.21247	2.03482	-1.97326
Cl	-3.430543	0.0	0.0
