17

C	-0.458026	0.014468	-1.440125
C	0.0	0.0	0.0
F	-0.116728	1.243835	-2.027318
H	1.095823	0.0	0.0
H	0.122121	-0.725564	-2.006487
N	-1.878504	-0.166931	-1.616547
H	-2.087396	-0.837504	-2.338239
H	-2.313538	-0.459486	-0.753947
C	-0.363315	-1.322602	0.671354
H	0.206634	-1.408217	1.60137
H	-0.06571	-2.16989	0.041543
H	-1.43139	-1.434055	0.917075
C	-0.512251	1.195833	0.789224
H	-0.225396	2.123164	0.289887
H	-0.049107	1.195238	1.781051
H	-1.604668	1.199857	0.921843
F	2.712003	0.0	0.0
