17

C	-0.209325	0.213915	-1.513865
C	0.0	0.0	0.0
F	-0.707383	-0.985786	-2.11133
H	1.099575	0.0	0.0
H	-1.004981	0.944026	-1.732202
N	1.017532	0.576968	-2.117272
H	1.826135	0.445744	-1.482925
H	1.013565	1.463986	-2.58395
C	-0.61735	-1.259301	0.566342
H	-1.708807	-1.269428	0.455386
H	-0.383263	-1.345876	1.632884
H	-0.220102	-2.143456	0.063422
C	-0.444748	1.254413	0.739287
H	-0.144484	1.20914	1.791948
H	-1.533644	1.399626	0.70189
H	0.037151	2.13596	0.30501
F	2.80088	0.0	0.0
