14

C	-0.446451	0.169384	-1.451279
C	0.0	0.0	0.0
Cl	-2.256089	0.368424	-1.543747
H	1.097987	0.0	0.0
H	-0.33932	0.888566	0.540316
C	0.132217	1.372891	-2.055726
N	0.560727	2.355699	-2.536425
C	-0.114748	-1.004781	-2.265364
N	0.119929	-1.970835	-2.890477
C	-0.507742	-1.280396	0.64183
H	-1.598774	-1.337885	0.662474
H	-0.115495	-2.154387	0.118556
H	-0.137054	-1.326904	1.666703
Br	3.516649	0.0	0.0
