14

C	-0.482703	-0.062873	-1.451827
C	0.0	0.0	0.0
Cl	0.183435	-1.526108	-2.253179
H	1.093473	0.0	0.0
H	-0.338465	-0.921626	0.483986
C	-1.949099	-0.153869	-1.510916
N	-3.122171	-0.224173	-1.50529
C	-0.072541	1.119159	-2.218679
N	0.198811	2.084178	-2.831212
C	-0.521049	1.232963	0.727319
H	-0.137345	1.219844	1.749546
H	-0.151061	2.147085	0.257037
H	-1.613957	1.271551	0.768913
Br	3.553173	0.0	0.0
