14

C	-0.449637	0.022291	-1.458756
C	0.0	0.0	0.0
Cl	-2.26668	-0.098384	-1.570655
H	1.097648	0.0	0.0
H	-0.341572	-0.948824	0.42447
C	-0.075329	1.270017	-2.130857
N	0.18917	2.286632	-2.657093
C	0.078045	-1.124076	-2.203938
N	0.439541	-2.068931	-2.801052
C	-0.494126	1.190437	0.807165
H	-0.108104	2.124216	0.392313
H	-1.583993	1.246326	0.856877
H	-0.102463	1.104591	1.82262
Br	3.514968	0.0	0.0
