14

C	-0.457522	0.165148	-1.455458
C	0.0	0.0	0.0
Cl	0.234576	1.660069	-2.175864
H	1.098768	0.0	0.0
H	-0.336625	-0.99228	0.321377
C	-0.033299	-0.978695	-2.270424
N	0.249193	-1.922043	-2.911113
C	-1.921147	0.270195	-1.547791
N	-3.093643	0.347033	-1.580819
C	-0.532209	1.081141	0.926875
H	-0.180642	2.065852	0.616146
H	-1.62514	1.09324	0.977378
H	-0.141689	0.89889	1.92988
Br	3.55253	0.0	0.0
