14

C	-0.453622	-0.00233	-1.458114
C	0.0	0.0	0.0
Cl	-2.267879	-0.183634	-1.561889
H	1.095408	0.0	0.0
H	-0.337006	-0.94453	0.437849
C	-0.124394	1.251323	-2.142734
N	0.131375	2.256453	-2.6944
C	0.110436	-1.133395	-2.199764
N	0.542375	-2.038	-2.812393
C	-0.498619	1.198177	0.792326
H	-0.118104	2.128759	0.365062
H	-1.588863	1.249023	0.844049
H	-0.103994	1.127112	1.807888
Br	3.521685	0.0	0.0
