14

C	-0.481734	-0.014308	-1.454165
C	0.0	0.0	0.0
Cl	0.180475	1.405677	-2.330419
H	1.093422	0.0	0.0
H	-0.339431	0.945789	0.433734
C	-0.067527	-1.234378	-2.156733
N	0.202657	-2.230018	-2.718817
C	-1.948339	0.068742	-1.517742
N	-3.12148	0.138366	-1.514466
C	-0.521091	-1.192868	0.790994
H	-1.61391	-1.22745	0.836983
H	-0.153538	-2.130523	0.367862
H	-0.135109	-1.127664	1.810279
Br	3.554628	0.0	0.0
