14

C	-0.48142	0.011511	-1.454519
C	0.0	0.0	0.0
Cl	0.18087	-1.410372	-2.326414
H	1.093429	0.0	0.0
H	-0.339862	-0.944783	0.435522
C	-1.948057	-0.07244	-1.520667
N	-3.118945	-0.167498	-1.55271
C	-0.06649	1.230499	-2.158954
N	0.202305	2.230385	-2.714672
C	-0.521655	1.194662	0.787935
H	-0.136885	1.131558	1.807795
H	-1.614515	1.229837	0.832769
H	-0.153417	2.131269	0.363218
Br	3.550994	0.0	0.0
