12

C	0.0	0.0	0.0
C	-0.534929	0.100908	-1.410647
Cl	1.759857	0.0	0.0
H	-0.1772	1.021109	-1.876077
H	-0.38394	-0.868604	0.520264
H	-1.661811	0.114161	-1.153014
N	-0.443007	1.183299	0.817311
O	-0.544709	2.261894	0.246267
O	-0.566533	0.993091	2.02016
C	-0.149857	-1.050757	-2.198626
N	0.134124	-1.987038	-2.851394
F	-2.600872	0.0	0.0
