12

C	0.0	0.0	0.0
C	-0.384319	0.161429	-1.463176
Cl	1.763468	0.0	0.0
H	0.066596	1.09247	-1.818175
H	-0.38284	-0.890836	0.475451
H	0.11962	-0.646011	-2.006774
N	-0.432517	1.156547	0.852418
O	-0.505244	2.256581	0.319453
O	-0.568101	0.926188	2.047394
C	-1.808538	0.147746	-1.85107
N	-2.595728	0.177947	-2.736241
F	-2.391986	0.0	0.0
