17

C	0.0	0.0	0.0
C	-0.505232	0.026351	-1.471682
Cl	1.754289	0.0	0.0
H	-1.601037	0.245216	-1.436986
N	-0.498914	1.219915	0.710134
O	0.270103	2.022256	1.319737
O	-1.813209	1.471682	0.518138
C	-0.475859	-1.22617	0.796329
H	-1.589262	-1.258943	0.809212
H	-0.198959	-1.07591	1.843617
H	-0.107989	-2.170096	0.396335
C	-0.307337	-1.273523	-2.086181
N	-0.179744	-2.352204	-2.543065
N	0.263323	1.051915	-2.181191
O	0.51068	0.833565	-3.441769
O	0.04093	2.235627	-1.696589
H	-1.729702	0.0	0.0
