17

C	0.0	0.0	0.0
C	-0.502751	0.025642	-1.471358
Cl	1.754346	0.0	0.0
H	-1.597968	0.248475	-1.43733
N	-0.499957	1.220798	0.711154
O	-1.813976	1.477453	0.525065
O	0.273462	2.019835	1.317199
C	-0.475662	-1.226601	0.795819
H	-0.199615	-1.07513	1.843212
H	-1.589	-1.258212	0.808216
H	-0.10747	-2.171092	0.397292
C	-0.30707	-1.274415	-2.085538
N	-0.181306	-2.353176	-2.54303
N	0.282308	1.047388	-2.171962
O	0.03037	2.236346	-1.701538
O	0.505216	0.835179	-3.445523
H	-1.725569	0.0	0.0
