16

C	-0.493224	-0.00837	-1.480567
C	0.0	0.0	0.0
Br	-2.436855	-0.122474	-1.588318
H	1.113645	0.0	0.0
N	-0.019443	1.260876	-2.143069
O	-0.746608	2.282777	-1.803606
O	1.284524	1.440275	-2.041565
N	0.088622	-1.150436	-2.257091
O	-0.349436	-1.181531	-3.474842
O	1.405784	-1.230096	-2.131376
C	-0.358553	-1.273962	0.806164
N	0.195894	-1.474439	1.873236
N	-0.476415	1.164444	0.786499
O	0.350373	1.43757	1.769462
O	-1.728003	1.048783	1.15403
F	2.491821	0.0	0.0
