16

C	-0.522506	-0.038546	-1.396915
C	0.0	0.0	0.0
Br	-2.400795	-0.248558	-1.67117
H	1.113037	0.0	0.0
N	-0.032536	1.135266	-2.25642
O	-0.6229	1.34315	-3.305948
O	0.987522	1.701059	-1.88918
N	0.256915	-1.261937	-2.006151
O	1.410849	-1.04675	-2.315439
O	-0.31349	-2.338776	-1.989637
C	-0.183358	-1.173143	0.858767
N	0.122882	-1.667598	1.896049
N	-0.511283	1.086782	0.910631
O	0.306289	1.616314	1.647716
O	-1.728053	1.296087	0.969735
F	2.451592	0.0	0.0
