18

C	-0.522835	-0.014075	-1.450122
C	0.0	0.0	0.0
Br	0.244256	1.491638	-2.460636
H	1.091032	0.0	0.0
C	-0.044714	-1.235608	-2.097333
N	0.263247	-2.246962	-2.611748
C	-2.043823	0.053798	-1.596522
H	-2.505421	-0.789469	-1.07791
H	-2.308218	0.005651	-2.653668
H	-2.42598	0.980943	-1.172592
C	-0.456528	-1.207029	0.804673
H	-0.03099	-1.126086	1.807011
H	-0.04801	-2.111661	0.350378
H	-1.540444	-1.281134	0.889077
N	-0.477832	1.249013	0.672738
O	-1.62279	1.236571	1.141582
O	0.281421	2.210795	0.712608
Br	3.466845	0.0	0.0
