18

C	-0.386792	-0.031036	-1.479345
C	0.0	0.0	0.0
Br	-2.371133	-0.001585	-1.675535
H	1.094697	0.0	0.0
C	0.091676	1.113678	-2.256537
N	0.445163	1.929906	-3.025884
C	0.153944	-1.301092	-2.134411
H	1.230279	-1.340061	-1.936484
H	-0.332623	-2.184178	-1.722251
H	-0.023511	-1.269259	-3.209988
C	-0.447761	-1.200612	0.805318
H	-1.526236	-1.358259	0.766633
H	-0.153234	-1.050437	1.843032
H	0.078019	-2.085126	0.445514
N	-0.466764	1.272942	0.633472
O	-0.117111	2.321962	0.097922
O	-1.164766	1.201735	1.645689
Br	3.389983	0.0	0.0
