18

C	-0.426072	0.016966	-1.481285
C	0.0	0.0	0.0
Br	0.260204	-1.638489	-2.308256
H	1.090891	0.0	0.0
C	-1.87851	-0.025884	-1.648102
N	-3.043313	-0.045185	-1.809866
C	0.193387	1.196098	-2.227708
H	1.268532	1.200324	-2.030348
H	0.003406	1.104541	-3.297862
H	-0.240441	2.132759	-1.87029
C	-0.559911	-1.13085	0.83435
H	-0.288225	-0.965694	1.878916
H	-0.104556	-2.067717	0.51625
H	-1.646169	-1.197114	0.760138
N	-0.454987	1.311765	0.578601
O	0.341595	2.248114	0.582542
O	-1.61572	1.372297	0.99537
Br	3.487946	0.0	0.0
