18

C	-0.428729	0.023966	-1.482602
C	0.0	0.0	0.0
Br	0.13483	-1.685423	-2.29261
H	1.09092	0.0	0.0
C	-1.88328	0.077976	-1.631138
N	-3.049274	0.1346	-1.774548
C	0.259396	1.143282	-2.260096
H	-0.105108	2.1138	-1.919216
H	1.334295	1.080899	-2.070755
H	0.05211	1.038153	-3.326035
C	-0.552345	-1.140512	0.827204
H	-0.325641	-0.956988	1.878405
H	-0.053276	-2.06255	0.534567
H	-1.632276	-1.247269	0.71765
N	-0.452776	1.307539	0.592302
O	0.289632	2.27961	0.470826
O	-1.555665	1.329483	1.14628
Br	3.481367	0.0	0.0
