16

C	-0.487899	0.092665	-1.432382
C	0.0	0.0	0.0
Br	0.232897	-1.283323	-2.594322
H	1.093975	0.0	0.0
H	-0.217041	1.055764	-1.85407
N	-1.985444	0.026365	-1.488352
O	-2.569846	1.104407	-1.598973
O	-2.534793	-1.064316	-1.335866
C	-0.447706	-1.243001	0.746959
H	0.120575	-1.287512	1.681997
H	-1.519379	-1.230355	0.978897
H	-0.232163	-2.151541	0.180181
N	-0.374734	1.253553	0.65871
H	0.462626	1.595915	1.122544
H	-1.088796	1.099257	1.363995
H	2.780868	0.0	0.0
