16

C	-0.593136	0.031716	-1.40019
C	0.0	0.0	0.0
Br	0.22011	1.363424	-2.547869
H	1.093614	0.0	0.0
H	-1.656137	0.264241	-1.372011
N	-0.510242	-1.314896	-2.064296
O	0.567938	-1.714071	-2.478795
O	-1.56447	-1.960445	-2.070791
C	-0.437579	-1.248662	0.755286
H	-0.007534	-1.19126	1.759073
H	-0.043934	-2.155963	0.291507
H	-1.528911	-1.337085	0.832802
N	-0.43051	1.240773	0.650843
H	0.399892	1.658878	1.061015
H	-1.085531	1.03891	1.397766
H	2.854944	0.0	0.0
