16

C	-0.475314	-0.038982	-1.42787
C	0.0	0.0	0.0
Br	-2.41963	-0.318295	-1.639389
H	1.095193	0.0	0.0
H	-0.000686	-0.849158	-1.978895
N	-0.102925	1.215386	-2.170133
O	0.981656	1.153701	-2.748162
O	-0.840299	2.189995	-2.1226
C	-0.36996	-1.28203	0.735065
H	-0.095651	-2.167217	0.151058
H	0.207558	-1.311638	1.664718
H	-1.439978	-1.333632	0.968024
N	-0.401049	1.221302	0.672627
H	0.383327	1.5235	1.240643
H	-1.210704	1.078043	1.264747
H	2.769399	0.0	0.0
