16

C	-0.629174	0.05946	-1.377772
C	0.0	0.0	0.0
Br	0.140374	1.437244	-2.512395
H	1.09919	0.0	0.0
H	-1.690969	0.284947	-1.30227
N	-0.552848	-1.263291	-2.084284
O	0.507711	-1.628979	-2.569931
O	-1.595928	-1.923862	-2.057235
C	-0.468865	-1.236855	0.747778
H	-0.128415	-2.149028	0.255122
H	-0.000963	-1.223937	1.736737
H	-1.557462	-1.269873	0.862075
N	-0.486136	1.214438	0.694294
H	0.171707	1.952157	0.447649
H	-0.324692	1.055502	1.684413
H	2.892705	0.0	0.0
