18

C	-0.008171	0.026539	0.005989
C	-0.51972	0.289224	-1.419149
F	1.405871	-0.040211	-0.024877
H	-1.620283	0.294808	-1.27269
C	-0.3909	1.156916	0.943789
H	0.010045	2.120345	0.618862
H	-0.006267	0.936154	1.94489
H	-1.482766	1.164363	0.955299
N	-0.523249	-1.249474	0.406429
H	-1.55966	-1.113486	0.287021
H	-0.340099	-1.354716	1.40042
C	-0.122271	-0.824562	-2.390336
H	-0.54934	-1.761391	-2.037822
H	-0.498437	-0.608544	-3.394064
H	0.964406	-0.928198	-2.432961
C	-0.052312	1.579092	-1.916604
N	0.324249	2.604399	-2.351437
F	-2.914409	-0.28002	-0.120421
