18

C	-0.021419	0.006529	-0.058941
C	-0.106322	0.321712	-1.578984
F	1.373209	-0.200758	0.151203
H	0.656676	1.080558	-1.794202
C	-0.460176	1.199663	0.76243
H	-0.12415	1.032417	1.787609
H	-0.020806	2.128663	0.386979
H	-1.554074	1.218609	0.741579
N	-0.728686	-1.136872	0.376501
H	-1.747819	-0.870515	0.423695
H	-0.595812	-1.90732	-0.269205
C	-1.504478	0.819108	-1.985058
H	-1.689321	0.648845	-3.04885
H	-2.275926	0.345318	-1.360085
H	-1.565106	1.894216	-1.797436
C	0.27043	-0.87306	-2.337149
N	0.555462	-1.832802	-2.952171
F	-3.127447	-0.063924	0.297146
