18

C	-0.022639	-0.007894	-0.059768
C	-0.107662	-0.077669	-1.610553
F	1.372847	-0.149585	0.194572
H	0.651394	0.608914	-2.006497
C	-0.468418	1.348571	0.442247
H	-0.033272	2.158625	-0.150638
H	-1.562372	1.356093	0.417434
H	-0.132778	1.440895	1.476991
N	-0.724418	-1.012365	0.644335
H	-1.744913	-0.747782	0.625031
H	-0.58725	-1.917451	0.208231
C	-1.508109	0.296452	-2.126143
H	-1.690582	-0.130962	-3.115503
H	-2.277507	-0.013851	-1.403724
H	-1.575198	1.384331	-2.208216
C	0.276362	-1.420372	-2.050934
N	0.567241	-2.500402	-2.410827
F	-3.128643	-0.00458	0.303679
