18

C	-0.009951	0.041488	0.009236
C	-0.500421	0.271778	-1.441372
F	1.399908	-0.038883	-0.03299
H	-1.597569	0.351977	-1.298701
C	-0.419516	1.195544	0.894935
H	-0.043839	2.147596	0.513307
H	-1.510973	1.184366	0.908984
H	-0.028454	1.018078	1.898192
N	-0.513601	-1.173109	0.578061
H	-0.183433	-1.948427	0.012321
H	-1.547143	-1.076305	0.421011
C	-0.222976	-0.92346	-2.355772
H	-0.430113	-0.669371	-3.398137
H	-0.889491	-1.738769	-2.073285
H	0.818404	-1.247762	-2.277541
C	0.070413	1.488138	-2.00781
N	0.532878	2.458764	-2.484418
F	-2.890067	-0.34991	-0.214964
