17

C	-0.507012	0.105743	-1.432815
C	0.0	0.0	0.0
Br	0.061787	1.819788	-2.230693
H	1.094331	0.0	0.0
H	0.018327	-0.638049	-2.036982
C	-2.01353	-0.011921	-1.585363
H	-2.339109	-1.014697	-1.293435
H	-2.316748	0.15652	-2.620513
H	-2.504984	0.716676	-0.939587
C	-0.428595	-1.335699	0.603288
H	-1.498939	-1.350433	0.824461
H	-0.18017	-2.166495	-0.06215
H	0.122478	-1.495831	1.533488
N	-0.555015	1.084744	0.82559
H	-0.097092	1.942929	0.536146
H	-0.231594	0.921578	1.773809
Br	3.695552	0.0	0.0
