17

C	-0.454833	0.010307	-1.468532
C	0.0	0.0	0.0
Br	0.136484	1.666591	-2.354134
H	1.095591	0.0	0.0
H	0.089365	-0.774301	-1.99988
C	-1.95129	-0.126636	-1.694172
H	-2.308978	-1.078153	-1.292302
H	-2.495719	0.6858	-1.207116
H	-2.189639	-0.09142	-2.758719
C	-0.447463	-1.300933	0.663944
H	0.077512	-1.388644	1.615609
H	-0.197061	-2.172611	0.051844
H	-1.524405	-1.307178	0.86488
N	-0.443724	1.122682	0.816238
H	-1.433239	1.301835	0.673346
H	0.069471	1.95244	0.540769
Br	3.702545	0.0	0.0
