15
Coordinates from ORCA-job run
  C   0.82123609181855      0.59034393135834      0.25529116910309
  C   -0.42206915312324      0.15057803385840     -0.01210182644501
  H   0.92472627059914      1.63748620903311      0.54188243388080
  C   2.10667742550964     -0.18202245558930      0.21124347194394
  H   2.59793379677958     -0.16893907864905      1.18927751041105
  H   2.80523713124922      0.27222106699646     -0.49849781184876
  H   1.96901735883023     -1.22341794577092     -0.07781650201547
  C   -0.77498738802888     -1.25327050443775     -0.42260543794235
  H   -1.48244970914640     -1.69086631829606      0.28993869157343
  H   -1.27439566802096     -1.24871561495254     -1.39748208940973
  H   0.08714045929062     -1.91550851041844     -0.48987166942706
  C   -1.60199009788635      1.08131350577944      0.08583405249309
  H   -1.30020534425981      2.08638322626341      0.38739126913926
  H   -2.12227830895582      1.15390206079408     -0.87552169049000
  H   -2.33259286465552      0.71051239403082      0.81303842903372
