16

C	-0.441859	0.010623	-1.460115
C	0.0	0.0	0.0
F	-1.834644	-0.058918	-1.527706
H	1.09257	0.0	0.0
C	-0.026776	1.230122	-2.174301
N	0.27631	2.128455	-2.865878
C	0.153425	-1.19634	-2.166169
H	1.241595	-1.170669	-2.06369
H	-0.125713	-1.169712	-3.221068
H	-0.235066	-2.109954	-1.714338
C	-0.490893	-1.195269	0.670723
N	-0.895461	-2.179595	1.166976
N	-0.455124	1.197105	0.788609
O	-0.344138	1.109455	2.004388
O	-0.861964	2.175446	0.170499
Cl	3.130159	0.0	0.0
