16

C	-0.443784	0.018312	-1.45813
C	0.0	0.0	0.0
F	-1.835159	-0.039666	-1.529851
H	1.092437	0.0	0.0
C	-0.018814	1.236938	-2.168709
N	0.267414	2.10269	-2.907716
C	0.145477	-1.189864	-2.167944
H	1.232506	-1.179845	-2.051269
H	-0.264115	-2.101596	-1.72932
H	-0.119607	-1.149318	-3.226011
C	-0.489947	-1.19677	0.670267
N	-0.879373	-2.183695	1.175193
N	-0.453463	1.197207	0.7904
O	-0.882832	2.16343	0.170989
O	-0.321349	1.121438	2.005964
Cl	3.124555	0.0	0.0
