13

C	0.0	0.0	0.0
C	-0.573471	-0.007053	-1.389318
Br	2.041381	0.0	0.0
H	-0.357455	0.956908	-1.879476
H	-0.209766	-0.949464	0.487991
H	-1.662195	-0.058338	-1.187114
N	-0.478281	1.067719	0.748206
H	-0.375351	1.971901	0.316128
H	-0.222966	1.071173	1.721921
N	-0.137166	-1.1749	-2.143591
H	0.752646	-0.991689	-2.590007
H	-0.823314	-1.372419	-2.860492
H	-3.671334	0.0	0.0
