13

C	0.0	0.0	0.0
C	-0.35675	0.004511	-1.503964
Br	1.957368	0.0	0.0
H	0.43484	-0.494627	-2.071629
H	-0.269003	-0.97449	0.40868
H	-0.343264	1.068218	-1.811218
N	-0.599088	1.008504	0.81007
H	-0.560309	1.893481	0.313711
H	-1.599271	0.751422	0.858668
N	-1.607685	-0.701845	-1.737987
H	-1.989897	-0.385675	-2.623718
H	-2.326821	-0.429195	-1.028973
H	-3.445449	0.0	0.0
