13

C	0.0	0.0	0.0
C	-0.467648	-0.015675	-1.4508
Br	1.968589	0.0	0.0
H	-0.083395	0.881272	-1.944791
H	-0.232266	-0.96858	0.460563
H	-1.561621	0.053286	-1.371988
N	-0.555261	1.134356	0.665443
H	-1.583371	0.983348	0.52757
H	-0.390651	1.048097	1.664416
N	-0.129235	-1.201818	-2.227502
H	0.85568	-1.412541	-2.107385
H	-0.65781	-1.981793	-1.852528
H	-3.096452	0.0	0.0
