15
Coordinates from ORCA-job run
  C   0.74071662735847      0.09642155604177     -0.57766291744818
  C   -0.56604385847638      0.40750344715184      0.17783578692758
  H   0.84853558740064      0.75351138196400     -1.44537279868903
  H   -0.47876773636883      1.44396912355929      0.52619225195787
  C   0.79981104194849     -1.30136591772366     -0.98199871341007
  N   0.81307481639338     -2.42711293547586     -1.31380972108963
  N   1.89246429357799      0.44181885138758      0.33392127838668
  O   1.98648223128320      1.63643206947950      0.59894937511624
  O   2.61163457221747     -0.45741728922343      0.74348995448588
  N   -0.61995060645977     -0.43967430999414      1.33738166944905
  H   -0.91367896757931     -1.37538151684746      1.07907923167660
  H   -1.24806838441752     -0.07228482424643      2.03905516506211
  N   -1.65978885549235      0.17606379284245     -0.75865103588771
  H   -1.66602284279006      0.87572948600339     -1.49372392782913
  H   -2.54139791859543      0.24178708508117     -0.26368559870828
