15
Coordinates from ORCA-job run
  C   0.73237826221160     -0.24382237687631     -0.63417829745735
  C   -0.76213434967593     -0.07095966668163     -0.29805509943509
  H   0.91293624335572      0.20948964651170     -1.60766128263215
  H   -1.25338153188013     -0.68111812627705     -1.06725563470389
  C   1.12879744631421     -1.65211930764683     -0.60418596640501
  N   1.43477789169541     -2.78356563889738     -0.56884178978420
  N   1.58236446125795      0.52650726822562      0.36369345033607
  O   1.91318766553822      1.66370685178965      0.04541215405794
  O   1.86076248501859     -0.03058111496505      1.42547876003307
  N   -1.15009374290796      1.30557324866986     -0.58148173116926
  H   -2.15451002028587      1.34702745572082     -0.71208019576015
  H   -0.90991155128749      1.88958890419725      0.21298529960577
  N   -1.02142180362666     -0.64814266458639      0.99368124632263
  H   -0.35907239454686     -0.35756769407575      1.70143941058270
  H   -1.95667906118081     -0.47401678510851      1.33304967640891
