15
Coordinates from ORCA-job run
  C   0.71759017211297      0.05531161425720     -0.61150329547289
  C   -0.50673718223796      0.45370049106317      0.23562975603361
  H   0.85749412966290      0.75694946794064     -1.43882537930118
  H   -0.28545430935297      1.44710787091938      0.64472407692443
  C   0.59719162873986     -1.30775072220816     -1.10973090044613
  N   0.46531531182756     -2.40096174171919     -1.51615937298570
  N   1.94437823050444      0.20523103440448      0.25433230789707
  O   2.18635622818863      1.35982839192142      0.59252882529963
  O   2.57529929256081     -0.79512883112746      0.56231367360182
  N   -0.59922497261892     -0.46198843474482      1.33902544196373
  H   -1.14214245016900     -0.07722064632140      2.09963346693275
  H   -1.01229913976530     -1.33833340865128      1.03941253821357
  N   -1.66436144463669      0.41009582008093     -0.65014386132591
  H   -1.62696986027640      1.15507890940592     -1.33824146813348
  H   -2.50743563453995      0.53808018477917     -0.10299580920131
