15
Coordinates from ORCA-job run
  C   0.72339222648087      0.07947815122886     -0.60194636985648
  C   -0.55002503304864      0.42132537777838      0.19596446321737
  H   0.81871767698950      0.73279658199090     -1.47403315846049
  H   -0.42680833691449      1.45525176318519      0.54053279879114
  C   0.73641493318623     -1.31924307510444     -1.00732233608695
  N   0.71270023886486     -2.44432834717611     -1.34085179247937
  N   1.91282365370785      0.39737554246112      0.27048507595226
  O   2.04284521714331      1.58894251803912      0.53310626913659
  O   2.62313188446411     -0.51887544448555      0.65711913664533
  N   -0.58557596158056     -0.42451720320988      1.35665969231979
  H   -0.90767716665812     -1.35362575322098      1.10944555638323
  H   -1.17953774381544     -0.04318965908287      2.07980436237980
  N   -1.67858744532165      0.21591998443957     -0.70463759068322
  H   -2.54191216151318      0.29080020208210     -0.18018992657740
  H   -1.69790198198466      0.92088936107459     -1.43413618068164
