15
Coordinates from ORCA-job run
  C   0.70815289239235      0.18455852622876     -0.59697266144360
  C   -0.51518950853556      0.38905764982120      0.31796997416469
  H   0.81830373442283      1.02737949514783     -1.28540329662242
  H   -0.31444673142768      1.29802669849445      0.89810891816609
  C   0.61715205417412     -1.06910374249391     -1.33236337202964
  N   0.50859233435301     -2.07424414954675     -1.92869243259633
  N   1.94145680888013      0.21065619141073      0.27166767378077
  O   2.15676228802277      1.29146569444240      0.81156267651566
  O   2.60269552671555     -0.81040858412096      0.38862629962636
  N   -0.56982948710309     -0.71334396860987      1.23800810677805
  H   -0.96437043234626     -1.53197200275182      0.78793105155342
  H   -1.11252916616883     -0.48746549241099      2.06008452666395
  N   -1.68264217111089      0.47388821909295     -0.55183307280319
  H   -2.52163571532874      0.47941676285545      0.01619276956461
  H   -1.67247242693972      1.33108870244053     -1.09488716131842
