15
Coordinates from ORCA-job run
  C   0.63044959830016     -0.25801900308517     -0.56997872896704
  C   -0.46621531766527     -0.01639622716833      0.47908987703144
  H   0.23499153845524     -0.12897165305744     -1.58144110184031
  H   -0.00534856784480     -0.17484316738639      1.45734675111276
  C   1.24159733472953     -1.57307723607652     -0.42531093729785
  N   1.74825856827845     -2.62586077791229     -0.31325557831900
  N   1.68575466577861      0.80410942700880     -0.40351332281386
  O   1.81610538246197      1.60172276884877     -1.32357577258061
  O   2.30403406977229      0.78777186387889      0.65325986883771
  N   -1.46487565166133     -1.05082334270229      0.28374895958422
  H   -2.04112302238777     -0.84538138446180     -0.52461646212889
  H   -2.06956717827685     -1.12530945035899      1.09165615339815
  N   -0.84123579337086      1.38163620512982      0.39709169256710
  H   -1.37662675431288      1.65939254339663      1.20944745197891
  H   -1.39719887225650      1.56404943394629     -0.43094885056273
