12
Coordinates from ORCA-job run
  C   -0.10474918314352      0.19347119261497     -0.15292323816796
  C   1.11813314334597     -0.67988973549999     -0.34212082649896
  Cl  -0.43658972840367      1.01792955681383     -1.77357523217589
  H   1.36608470827798     -1.14976308261208      0.61273638855052
  H   0.93074987338477     -1.46101470284564     -1.08110226721090
  H   1.95350684237293     -0.06623757687358     -0.67299578733654
  N   -1.21870421721049     -0.59867573331279      0.26494566649660
  H   -2.05326690003158     -0.03031847180836      0.34693830042881
  H   -1.40501030761601     -1.35032831037892     -0.38798476978500
  N   0.18454753035517      1.27219441438886      0.76082649798374
  H   -0.54896001209110      1.97035814156445      0.72816999163430
  H   0.21425825075955      0.88227430794926      1.69708527608127
