12
Coordinates from ORCA-job run
  C   -0.15512618751527      0.11137828570775     -0.01369573780155
  C   1.11678685112516     -0.62163893695894     -0.37323494481569
  Cl  -0.62692577506807      1.06112629271758     -1.65774600157725
  H   1.89383226330246      0.08148391235495     -0.67330177219901
  H   1.44260720914948     -1.17985103446992      0.50595702187919
  H   0.94383158171735     -1.30716104634418     -1.20291413197237
  N   -1.19832998468066     -0.77751097836360      0.31715283778956
  H   -1.38259230023943     -1.41247790819196     -0.44745323958991
  H   -2.05549176642311     -0.28691175090497      0.53995138583752
  N   0.05366348261684      1.05257144134078      1.01508977553672
  H   -0.79430490968477      1.55658442861884      1.24305823364704
  H   0.76204953570001      1.72240729449367      0.74813657326577
