12
Coordinates from ORCA-job run
  C   -0.09989762132328      0.18189340790882     -0.29780924110324
  C   1.14362193517652     -0.68375157665483     -0.25874642879786
  Cl  -0.25647604543067      0.91428146549989     -1.93680323504533
  H   1.24692020418891     -1.13352465606662      0.73506792446798
  H   2.02319268005479     -0.07440439971041     -0.45877837186568
  H   1.06093055055276     -1.48096060444940     -0.99534773207324
  N   -1.27015739018674     -0.66126119717486     -0.13435898193783
  H   -1.23130166450891     -1.10577254438981      0.77675715637934
  H   -2.11533468160250     -0.10367371496224     -0.18432800268410
  N   0.07087029110673      1.29888528050376      0.61341367357001
  H   -0.74060558310938      1.90572636011299      0.58212609299964
  H   0.16923732508178      0.94156217938272      1.55780714609032
