12
Coordinates from ORCA-job run
  C   -0.21931225369920      0.16720589606855     -0.29986530248639
  C   1.09433918064263     -0.59674965560275     -0.22995214757836
  Cl  -0.32212286513150      0.90759259503102     -1.95226252078861
  H   1.10994237284278     -1.39808990238103     -0.96886317380136
  H   1.20901493071973     -1.02919469167600      0.77000963262764
  H   1.93364349976535      0.07442875296906     -0.41331492746575
  N   -1.31259206593900     -0.74632836953624     -0.15457743699756
  H   -2.16544398114892     -0.22180241472891     -0.00060590065318
  H   -1.15196119804455     -1.37030269636621      0.62637523736326
  N   -0.33651599519218      1.28734527627321      0.62032733919126
  H   -0.21444043613086      0.94295675680720      1.56715711477127
  H   0.37744881131571      1.98293845314212      0.43657208581777
