12
Coordinates from ORCA-job run
  C   -0.13696098572381      0.28776082835402     -0.25394023789771
  C   1.03975466967334     -0.67633668815813     -0.26045434062206
  Cl  -0.27382973548931      0.97859526442667     -1.92522029866895
  H   1.13137890221514     -1.14261799455703      0.72659708276855
  H   1.96481484629000     -0.14835302125915     -0.49257060730831
  H   0.88210825924518     -1.46224681176755     -0.99938975077672
  N   -1.43365597480293     -0.31609967618568      0.00899642662241
  H   -1.66448140184359     -1.00140791343313     -0.70123805640790
  H   -1.39648334295371     -0.78458419548142      0.90851362021516
  N   0.13193966974430      1.36510299697089      0.65046073356341
  H   -0.72067944397345      1.88994763068820      0.80463594208719
  H   0.47609453761884      1.00923958040231      1.53360948642492
