17

C	0.0	0.0	0.0
C	-0.536845	0.16744	-1.437222
Cl	1.785305	0.0	0.0
H	-1.601375	-0.07816	-1.345324
C	-0.353668	1.183728	0.816722
N	-0.594047	2.120591	1.484862
N	-0.496295	-1.24051	0.533263
H	-0.228619	-1.321282	1.508778
H	-1.520123	-1.174369	0.492759
C	0.124407	-0.803869	-2.398424
H	-0.477926	-0.876705	-3.309423
H	1.125857	-0.458522	-2.665852
H	0.193089	-1.794253	-1.948061
N	-0.334291	1.546305	-1.877815
H	-1.082628	2.111758	-1.487127
H	-0.449296	1.574581	-2.884907
Br	-3.774967	0.0	0.0
