17

C	0.0	0.0	0.0
C	-0.496812	0.064481	-1.452682
Cl	1.798604	0.0	0.0
H	-1.584728	0.144678	-1.345739
C	-0.334597	1.262185	0.700466
N	-0.52788	2.206688	1.3724
N	-0.509986	-1.171501	0.649668
H	-0.28406	-1.133711	1.638324
H	-1.53298	-1.107103	0.566053
C	-0.162439	-1.204594	-2.227353
H	0.920323	-1.315048	-2.343589
H	-0.548764	-2.090682	-1.723848
H	-0.612783	-1.138991	-3.222166
N	-0.012545	1.296116	-2.061986
H	0.880311	1.137711	-2.515019
H	-0.675795	1.608755	-2.758805
Br	-3.768564	0.0	0.0
