17

C	-0.436937	-0.072866	-1.45145
C	0.0	0.0	0.0
Br	-0.155855	1.746703	-2.396879
H	1.098507	0.0	0.0
H	-1.522802	-0.168666	-1.557813
N	0.236647	-1.114091	-2.120888
H	0.028001	-1.136209	-3.109208
H	1.24145	-1.036604	-1.973605
C	-0.470739	-1.282889	0.6946
H	-0.070988	-2.167384	0.200153
H	-1.566749	-1.350091	0.698737
H	-0.124734	-1.282824	1.73174
C	-0.5172	1.221127	0.745297
H	-1.609962	1.298134	0.676851
H	-0.081071	2.14005	0.356238
H	-0.245693	1.141724	1.801441
Cl	3.545901	0.0	0.0
