17

C	-0.458762	0.052065	-1.448876
C	0.0	0.0	0.0
Br	-0.029295	-1.599478	-2.431316
H	1.096089	0.0	0.0
H	0.143439	0.80097	-1.976859
N	-1.8969	0.245274	-1.573204
H	-2.140013	0.303265	-2.555583
H	-2.129577	1.135695	-1.145832
C	-0.527767	-1.200192	0.773649
H	-0.253647	-1.103903	1.828101
H	-0.0885	-2.12687	0.40315
H	-1.616682	-1.271057	0.694918
C	-0.412312	1.308377	0.688585
H	0.132257	1.396825	1.631002
H	-0.146001	2.182062	0.083677
H	-1.48461	1.34075	0.913817
Cl	3.56366	0.0	0.0
