17

C	-0.483288	0.064731	-1.43885
C	0.0	0.0	0.0
Br	0.191417	-1.544383	-2.485306
H	1.094563	0.0	0.0
H	0.017817	0.88024	-1.960632
N	-1.894999	0.204466	-1.561912
H	-2.165405	0.257789	-2.535596
H	-2.361521	-0.594372	-1.150778
C	-0.498206	-1.215943	0.771476
H	-1.588788	-1.210737	0.896875
H	-0.053842	-1.208976	1.769715
H	-0.200534	-2.145977	0.285169
C	-0.42124	1.295679	0.702397
H	-0.086189	2.170262	0.137605
H	-1.505768	1.361032	0.823828
H	0.057031	1.340044	1.684481
Cl	3.560073	0.0	0.0
