17

C	-0.350374	0.009162	-1.466433
C	0.0	0.0	0.0
Br	-2.486186	-0.344062	-1.663319
H	1.09869	0.0	0.0
H	-0.010782	-0.889177	-1.97815
N	0.005151	1.147613	-2.158125
H	-0.305254	2.008399	-1.738449
H	-0.180803	1.11692	-3.147013
C	-0.44341	-1.277289	0.702312
H	-0.191358	-2.159623	0.108039
H	0.089644	-1.360536	1.652698
H	-1.519179	-1.287616	0.892129
C	-0.472495	1.243119	0.743771
H	0.024162	2.146533	0.378606
H	-0.205595	1.153237	1.799553
H	-1.558127	1.365409	0.668114
Cl	3.493221	0.0	0.0
