17

C	-0.444294	-0.087978	-1.459528
C	0.0	0.0	0.0
Br	-0.195283	1.65376	-2.395923
H	1.098271	0.0	0.0
H	-1.526005	-0.248369	-1.527642
N	0.228998	-1.093379	-2.237854
H	-0.169271	-2.000319	-2.030502
H	1.215033	-1.09876	-1.98642
C	-0.445495	-1.290059	0.697147
H	0.00725	-2.173558	0.243167
H	-1.537998	-1.401618	0.677253
H	-0.124581	-1.269956	1.741356
C	-0.534215	1.208149	0.755109
H	-0.257952	1.133475	1.810552
H	-1.628563	1.266986	0.691259
H	-0.116506	2.135949	0.366958
Cl	3.545041	0.0	0.0
