17

C	0.0	0.0	0.0
C	-0.378453	0.105063	-1.519802
Br	1.93063	0.0	0.0
H	0.563089	0.199494	-2.068573
H	-0.365007	-0.907241	0.462843
N	-0.41602	1.094782	0.934665
O	-0.379208	2.253041	0.535193
O	-0.654191	0.752176	2.08711
C	-1.25478	1.276423	-1.962932
H	-2.167738	1.229575	-1.371046
H	-0.74823	2.233497	-1.839723
H	-1.472471	1.137547	-3.029277
C	-1.016793	-1.229406	-1.910978
H	-0.371317	-2.073747	-1.637936
H	-1.174311	-1.266401	-2.994872
H	-1.961371	-1.266054	-1.363823
F	-2.52371	0.0	0.0
