16

C	0.0	0.0	0.0
C	-0.182902	-0.118902	-1.544492
F	1.356461	0.0	0.0
H	0.279141	0.793452	-1.922074
H	-0.437605	-0.776531	0.61719
N	-0.376191	1.327085	0.58676
O	-0.260326	2.312611	-0.136861
O	-0.611182	1.330532	1.789907
N	-1.502783	-0.13798	-2.273885
O	-2.003734	-1.230339	-2.50948
O	-1.869734	0.93313	-2.746153
C	0.569011	-1.353338	-2.050931
H	0.469462	-1.410827	-3.135975
H	1.625573	-1.303609	-1.801557
H	0.127729	-2.259134	-1.63603
Cl	-3.094797	0.0	0.0
