14

C	-0.38366	-0.018936	-1.484211
C	0.0	0.0	0.0
Cl	0.163168	1.598405	-2.205268
H	1.097867	0.0	0.0
N	0.246646	-1.142719	-2.05746
H	0.119163	-1.177091	-3.060848
H	1.237943	-1.118102	-1.809584
C	-1.837246	-0.038651	-1.695915
N	-3.003681	-0.049812	-1.843638
C	-0.451796	-1.215078	0.658353
N	-0.793328	-2.181115	1.236138
C	-0.486323	1.170223	0.707747
N	-0.820515	2.120644	1.314738
H	2.511628	0.0	0.0
