14

C	-0.202808	0.057425	-1.518763
C	0.0	0.0	0.0
Cl	-1.929621	0.425861	-1.989527
H	1.098944	0.0	0.0
N	0.6604	1.093742	-1.983911
H	1.579347	0.936852	-1.530812
H	0.759007	1.058783	-2.991878
C	0.070335	-1.269112	-2.10809
N	0.32151	-2.282038	-2.650726
C	-0.548068	-1.180973	0.629776
N	-0.949229	-2.152634	1.157038
C	-0.446718	1.219171	0.646254
N	-0.776696	2.190253	1.221012
H	2.503974	0.0	0.0
