14

C	-0.204464	0.056683	-1.518163
C	0.0	0.0	0.0
Cl	-1.929342	0.43857	-1.985152
H	1.098868	0.0	0.0
N	0.66542	1.085603	-1.985428
H	0.761625	1.048653	-2.993091
H	1.583831	0.92521	-1.532144
C	0.054813	-1.273727	-2.105913
N	0.306781	-2.298662	-2.626573
C	-0.549158	-1.178335	0.633535
N	-0.952665	-2.147295	1.164532
C	-0.443799	1.220872	0.645227
N	-0.778064	2.191285	1.218689
H	2.505882	0.0	0.0
