14

C	-0.438991	0.039525	-1.468781
C	0.0	0.0	0.0
Cl	0.365687	-1.388006	-2.300721
H	1.095433	0.0	0.0
N	-1.85773	0.015263	-1.607108
H	-2.233711	-0.788809	-1.116327
H	-2.121931	-0.03643	-2.585037
C	0.07831	1.242225	-2.136797
N	0.410535	2.19775	-2.733843
C	-0.493832	-1.201888	0.6412
N	-0.871698	-2.178733	1.179602
C	-0.455041	1.183286	0.704437
N	-0.746754	2.168914	1.277558
H	2.451901	0.0	0.0
