14

C	-0.202263	0.037772	-1.518879
C	0.0	0.0	0.0
Cl	-1.927151	0.402036	-1.996423
H	1.098909	0.0	0.0
N	0.662478	1.068461	-1.994863
H	0.759533	1.021211	-3.001602
H	1.583138	0.914836	-1.542109
C	0.070783	-1.297788	-2.088431
N	0.334968	-2.32672	-2.593762
C	-0.547134	-1.17184	0.647363
N	-0.946758	-2.134824	1.192354
C	-0.446603	1.227762	0.630125
N	-0.78255	2.203825	1.192918
H	2.505666	0.0	0.0
