14

C	-0.450109	0.034818	-1.465757
C	0.0	0.0	0.0
Cl	0.361136	-1.384397	-2.304469
H	1.095445	0.0	0.0
N	-1.870282	-0.003737	-1.591822
H	-2.142519	-0.049685	-2.567817
H	-2.231695	-0.817546	-1.105755
C	0.049641	1.243228	-2.13602
N	0.365225	2.208491	-2.726467
C	-0.490645	-1.202043	0.644961
N	-0.868169	-2.178779	1.183688
C	-0.459835	1.182305	0.704013
N	-0.759793	2.164976	1.277962
H	2.456087	0.0	0.0
