16
Coordinates from ORCA-job run
  C   -0.73507643033023     -0.26824344748617      0.38681628969974
  C   0.79228666556573     -0.16116404357415      0.22842517338977
  Cl  -1.16132621133449     -0.63851435313976      2.03902512763305
  H   1.17330272351427     -1.07978244867978      0.69091822409114
  N   -1.23936162977450     -1.39654868318288     -0.50814441975334
  O   -2.07532997025132     -1.11956390300199     -1.35474961424870
  O   -0.73722117192555     -2.48500255970348     -0.28039259589840
  N   -1.43796423221635      1.00967740882242     -0.07082277055487
  O   -0.99938940119712      1.49180518478762     -1.10533824477544
  O   -2.37403987325836      1.42531699558288      0.59169275164870
  N   1.19972244911256      1.06170080164773      0.91045077908919
  H   2.13563470851538      1.30595505768162      0.61402704714592
  H   1.20769928533707      0.93758661029584      1.91606000360641
  N   1.14834018881643     -0.21739603273089     -1.15953953237173
  H   2.09879773690486     -0.53715562031531     -1.27856160246001
  H   1.00192516252162      0.67132903299630     -1.61686661624142
