16
Coordinates from ORCA-job run
  C   -0.77306054115419     -0.07016325365382      0.39852985111144
  C   0.66378135920719      0.45774495697004      0.23669406942958
  Cl  -1.28131896646266      0.02040503174809      2.06646452920365
  H   0.64912599461875      1.43017804083024      0.74375093984595
  N   -0.90770862201752     -1.50098486673843     -0.12215564766626
  O   -1.58434578052973     -2.28910342728464      0.51735930304569
  O   -0.33014085527443     -1.71727840892752     -1.17794217263533
  N   -1.70735703247271      0.79668130801901     -0.44058414515504
  O   -1.68464473910987      1.98360088331079     -0.15869527950599
  O   -2.37497461978089      0.24373322776873     -1.30130692572436
  N   0.94037231124397      0.71569625681218     -1.14653212689149
  H   1.67786529030835      1.39788946756040     -1.24893025687675
  H   1.15721559920235     -0.13463144099622     -1.64686992768280
  N   1.54390698628913     -0.52451678130677      0.85884709540727
  H   2.49273230151287     -0.35578600887278      0.55109409373083
  H   1.52055131441938     -0.45246498523932      1.86927660036360
