16
Coordinates from ORCA-job run
  C   -0.71904214569898     -0.26174713307007      0.48404423294024
  C   0.80090440732445     -0.17047553474094      0.25673426384938
  Cl  -1.11400680430971     -0.58668432541233      2.14411436543343
  H   1.18328965363752     -1.06310199016723      0.75866800949252
  N   -1.24812547020338     -1.39501896707496     -0.39893338597223
  O   -1.95087420896379     -1.08304666392075     -1.34760933694091
  O   -0.86415759206807     -2.50828222510909     -0.08381786639763
  N   -1.44963027230533      0.99305037720347      0.02018002232545
  O   -0.83001153938977      1.71627206008323     -0.75633276185669
  O   -2.59111238327560      1.16052083298346      0.41388400725382
  N   1.29284388632645      0.98614655666990      0.97446193620940
  H   2.25558432845641      0.85210420479312      1.25042326810702
  H   1.22477415005989      1.81562960079949      0.39980252279799
  N   1.07123170670444     -0.33434895982180     -1.15538419285490
  H   2.01989123650203     -0.65133528110006     -1.30097281086951
  H   0.91944104720345      0.52931744788457     -1.65826227351739
