16
Coordinates from ORCA-job run
  C   -0.77353540995088      0.08034260400857      0.24583949908888
  C   0.76727660987541      0.28977971152385      0.38784685494305
  Cl  -1.67666368672593      1.40337355305160      0.93388053622372
  H   0.96178468974180      0.18389892800013      1.46440074298227
  N   -1.25162563983155     -1.20804023752956      0.91542545779752
  O   -0.38221444370805     -1.94681132213725      1.36850902876738
  O   -2.45698351280220     -1.39676293147510      0.93690154858832
  N   -1.09726285939739     -0.08316301821432     -1.23226514793573
  O   -1.03356474823073      0.94119692631542     -1.89671535406159
  O   -1.30416496263044     -1.21834951421055     -1.63128105861588
  N   1.24138809380343      1.57989715677831     -0.02548458434400
  H   0.91200513845372      2.31629643257447      0.58217230384043
  H   0.95042796174974      1.77576273576489     -0.97600358539716
  N   1.41092570928905     -0.68527062054736     -0.46080415974220
  H   2.38275605553694     -0.41825039839378     -0.55091558959314
  H   1.35045100482710     -1.61290000550932     -0.06350649254187
