16
Coordinates from ORCA-job run
  C   -0.74474902347375     -0.06913788039670      0.32540579531231
  C   0.72126052823298      0.46732707674500      0.29083116254651
  Cl  -1.31949921639799     -0.28869661165013      1.95663382066880
  H   0.64628163425407      1.49855055410716      0.66361744329648
  N   -0.78934536243401     -1.38166733976587     -0.44376888529259
  O   -1.24787647326037     -1.34512659972936     -1.57473562668961
  O   -0.27749333593047     -2.33629973763102      0.12328071554814
  N   -1.72345895961907      0.86036794899007     -0.39220814705394
  O   -2.90545433275037      0.56484411433232     -0.32493765258923
  O   -1.23681530100228      1.82130003366829     -0.98104397562594
  N   1.19526080818083      0.32787572337235     -1.06604091446021
  H   2.19860757160578      0.45838511976280     -1.05444664930016
  H   0.77171347153298      1.01553780407793     -1.67409461497213
  N   1.64371882687693     -0.24343670791568      1.12981305526891
  H   1.43823983204048     -0.11615872840567      2.11042520812184
  H   1.63060933214426     -1.23266476956152      0.91126926522084
