16

C	-0.572751	-0.035494	-1.399115
C	0.0	0.0	0.0
Cl	0.058058	-1.42785	-2.291383
H	1.089376	0.0	0.0
H	-1.659414	-0.090236	-1.414556
N	-0.242495	1.204409	-2.201527
O	-0.958428	1.396119	-3.182475
O	0.691956	1.900074	-1.828924
C	-0.465732	-1.182802	0.839765
H	-1.559089	-1.237246	0.88901
H	-0.058207	-1.06844	1.844174
H	-0.071822	-2.107841	0.420289
N	-0.493193	1.236234	0.682283
O	0.016896	1.520021	1.757426
O	-1.42516	1.854909	0.156807
Br	3.455347	0.0	0.0
