16

C	-0.459338	0.02515	-1.446379
C	0.0	0.0	0.0
Cl	-2.224119	0.182119	-1.605637
H	1.093291	0.0	0.0
H	0.001411	0.850499	-1.978456
N	-0.013933	-1.22585	-2.166434
O	-0.616454	-2.267222	-1.929892
O	0.935582	-1.091258	-2.929826
C	-0.519141	-1.125295	0.860594
H	-0.132066	-0.998637	1.869669
H	-0.146858	-2.070819	0.469121
H	-1.609252	-1.152271	0.894998
N	-0.362796	1.344516	0.571359
O	-0.781231	1.39331	1.726434
O	-0.176868	2.324097	-0.147093
Br	3.381813	0.0	0.0
