16

C	-0.36905	0.445537	-1.405507
C	0.0	0.0	0.0
Cl	-0.018193	2.139339	-1.700759
H	1.104745	0.0	0.0
H	0.214647	-0.15586	-2.100104
N	-1.814257	0.144754	-1.753291
O	-2.680101	0.971891	-1.506036
O	-1.99787	-0.973324	-2.237168
C	-0.470373	-1.403288	0.328839
H	-1.556338	-1.489359	0.341082
H	-0.076001	-1.673637	1.310827
H	-0.054885	-2.101292	-0.399865
N	-0.529805	0.951212	1.019658
O	0.255794	1.724525	1.558921
O	-1.738218	0.88028	1.260399
Br	3.463321	0.0	0.0
