16

C	-0.496215	0.219232	-1.421091
C	0.0	0.0	0.0
Cl	-2.215524	0.635268	-1.482134
H	1.103233	0.0	0.0
H	0.065677	1.02193	-1.896999
N	-0.231979	-1.026904	-2.256044
O	-1.108408	-1.448238	-3.002796
O	0.896662	-1.483527	-2.131137
C	-0.55033	-1.226215	0.685711
H	-1.640461	-1.214217	0.739229
H	-0.147708	-1.282575	1.69506
H	-0.214163	-2.112031	0.144685
N	-0.329758	1.25548	0.755519
O	-0.76969	1.153956	1.898074
O	-0.086875	2.317983	0.187517
Br	3.426194	0.0	0.0
