16

C	-0.456535	0.043822	-1.444738
C	0.0	0.0	0.0
Cl	-2.22707	0.098992	-1.608789
H	1.093618	0.0	0.0
H	-0.046879	0.913647	-1.946096
N	0.057554	-1.145382	-2.217621
O	-0.400293	-2.251472	-1.950196
O	0.898194	-0.895386	-3.075486
C	-0.510329	-1.136059	0.852864
H	-0.163163	-2.077408	0.430764
H	-0.093217	-1.033188	1.852815
H	-1.599171	-1.148057	0.917931
N	-0.369939	1.335508	0.591239
O	-0.20723	2.328494	-0.115448
O	-0.770693	1.363258	1.752434
Br	3.376183	0.0	0.0
