16

C	-0.593852	-0.025139	-1.400804
C	0.0	0.0	0.0
Cl	-0.021358	-1.415744	-2.311748
H	1.103491	0.0	0.0
H	-1.682372	-0.057553	-1.363972
N	-0.281126	1.244293	-2.163515
O	-1.199013	2.064776	-2.172493
O	0.818628	1.369785	-2.672032
C	-0.469918	-1.187495	0.817871
H	-0.150463	-1.052143	1.851856
H	-1.554557	-1.306812	0.79671
H	0.014186	-2.086364	0.435774
N	-0.463648	1.280968	0.633084
O	0.177958	2.294729	0.370545
O	-1.466065	1.241135	1.351258
Br	3.45284	0.0	0.0
