16

C	-0.420984	-0.239848	-1.439519
C	0.0	0.0	0.0
Cl	-0.024557	1.021968	-2.595503
H	1.090851	0.0	0.0
H	0.056997	-1.15848	-1.773524
N	-1.903604	-0.513068	-1.502303
O	-2.235752	-1.677902	-1.71877
O	-2.660563	0.423785	-1.27605
C	-0.468075	-1.134849	0.892032
H	-0.077047	-2.075656	0.498232
H	-1.553534	-1.19234	0.973853
H	-0.050112	-0.990777	1.888407
N	-0.477131	1.318454	0.522414
O	0.073504	2.324333	0.086422
O	-1.380762	1.314915	1.361589
Br	3.405879	0.0	0.0
