16

C	-0.53123	-0.053954	-1.425838
C	0.0	0.0	0.0
Cl	-0.423738	-1.656867	-2.135986
H	1.092182	0.0	0.0
H	-1.572252	0.26623	-1.458202
N	0.212981	0.963659	-2.283966
O	0.154512	2.101017	-1.827928
O	0.746697	0.6226	-3.325888
C	-0.487911	-1.149316	0.870105
H	0.01091	-2.068913	0.569433
H	-1.571655	-1.273934	0.808184
H	-0.20278	-0.939219	1.903036
N	-0.519812	1.255014	0.64139
O	0.260099	1.929259	1.29965
O	-1.728892	1.474712	0.526172
Br	3.460798	0.0	0.0
