17

C	-0.49177	-0.108186	-1.455693
C	0.0	0.0	0.0
Cl	-0.00059	-1.784077	-2.024756
H	1.098003	0.0	0.0
C	-2.013289	-0.076009	-1.532149
H	-2.352386	0.906175	-1.193547
H	-2.333283	-0.228611	-2.567983
H	-2.461865	-0.855763	-0.913977
N	0.168274	0.837754	-2.303256
H	0.282942	1.701146	-1.785398
H	-0.398421	1.007212	-3.125397
C	-0.420366	-1.124529	0.809508
N	-0.728022	-2.065056	1.445825
N	-0.332472	1.214298	0.67416
O	-0.406363	2.27693	0.002089
O	-0.289719	1.206577	1.923768
H	2.300183	0.0	0.0
