17

C	-0.307231	0.00906	-1.529373
C	0.0	0.0	0.0
Cl	-0.070857	-1.705536	-2.065361
H	1.091367	0.0	0.0
C	-1.735644	0.401827	-1.84748
H	-1.891997	1.444573	-1.565302
H	-2.441007	-0.230501	-1.306138
H	-1.899128	0.295866	-2.921414
N	0.626154	0.803255	-2.286826
H	0.46683	1.764653	-1.999271
H	1.559211	0.567773	-1.936754
C	-0.544574	-1.109441	0.747122
N	-0.944751	-2.039715	1.34601
N	-0.35071	1.250681	0.655934
O	-0.171861	2.302458	0.016267
O	-0.668345	1.227496	1.852591
H	2.437902	0.0	0.0
