17

C	-0.313618	0.226136	-1.49352
C	0.0	0.0	0.0
Cl	-0.140697	-1.508651	-2.270949
H	1.106696	0.0	0.0
C	-1.734231	0.633806	-1.821722
H	-1.864492	0.680896	-2.905645
H	-2.444395	-0.090144	-1.421119
H	-1.914791	1.620924	-1.394639
N	0.650018	1.10032	-2.006059
H	0.638621	1.133581	-3.016115
H	1.576865	0.865341	-1.63845
C	-0.543123	-1.204774	0.581107
N	-0.960037	-2.192401	1.066656
N	-0.345293	1.136705	0.875194
O	-0.358033	0.903574	2.089754
O	-0.47275	2.261655	0.383016
H	2.478097	0.0	0.0
