17

C	-0.249705	0.030776	-1.515214
C	0.0	0.0	0.0
Cl	-2.039781	-0.016722	-1.851525
H	1.106699	0.0	0.0
C	0.355752	1.231103	-2.214583
H	1.395466	1.317916	-1.882168
H	-0.172401	2.148186	-1.976834
H	0.320908	1.032938	-3.286967
N	0.336999	-1.160076	-2.099816
H	-0.067575	-1.984781	-1.66675
H	1.324927	-1.132885	-1.831075
C	-0.457668	-1.238936	0.591585
N	-0.763261	-2.299166	1.000265
N	-0.426392	1.131798	0.816066
O	-0.738091	0.906908	1.992997
O	-0.328545	2.263957	0.331113
H	2.462072	0.0	0.0
