17

C	-0.418032	0.012617	-1.481511
C	0.0	0.0	0.0
Br	-2.403841	0.195229	-1.589754
H	1.100613	0.0	0.0
C	0.224366	1.217931	-2.159722
H	-0.029711	1.239133	-3.220122
H	1.30736	1.123554	-2.032766
H	-0.114059	2.139519	-1.688567
C	-0.099263	-1.176345	-2.265684
N	0.123848	-2.02483	-3.047654
N	-0.482838	-1.275366	0.672145
O	-0.245403	-2.320567	0.072865
O	-1.045424	-1.195938	1.757997
N	-0.389683	1.13229	0.749523
H	-1.268614	1.548059	0.485054
H	0.362235	1.798166	0.83172
Cl	3.226015	0.0	0.0
