17

C	-0.638528	-0.170463	-1.400031
C	0.0	0.0	0.0
Br	0.208341	-1.584818	-2.46382
H	1.109002	0.0	0.0
C	-2.137338	-0.45598	-1.311129
H	-2.616072	0.323024	-0.712544
H	-2.307095	-1.429508	-0.848961
H	-2.577359	-0.460979	-2.308886
C	-0.431936	1.0713	-2.144897
N	-0.3511	2.040808	-2.804339
N	-0.436511	-1.186893	0.840552
O	-1.294249	-0.996486	1.709148
O	0.053421	-2.277791	0.574217
N	-0.458352	1.234762	0.56463
H	-1.197094	1.065714	1.236317
H	0.322986	1.683348	1.027101
Cl	3.253891	0.0	0.0
