17

C	-0.449692	0.033158	-1.464815
C	0.0	0.0	0.0
Br	-2.436653	0.162138	-1.529178
H	1.093715	0.0	0.0
C	0.155754	1.264238	-2.129675
H	-0.13457	1.309856	-3.180423
H	1.244219	1.179037	-2.041422
H	-0.177046	2.155188	-1.600305
C	-0.110934	-1.149233	-2.253198
N	0.148915	-2.007851	-3.013882
N	-0.453381	-1.293182	0.659595
O	-1.163557	-1.208615	1.663108
O	-0.073142	-2.341521	0.151077
N	-0.429477	1.158052	0.704446
H	0.246501	1.358997	1.431011
H	-1.335516	1.008006	1.128359
Cl	3.229481	0.0	0.0
