17

C	-0.494819	-0.114406	-1.460668
C	0.0	0.0	0.0
Br	-0.05151	1.577075	-2.358767
H	1.109121	0.0	0.0
C	0.186324	-1.235027	-2.241862
H	1.265682	-1.132995	-2.1109
H	-0.075903	-1.159266	-3.297979
H	-0.125317	-2.207619	-1.86201
C	-1.952657	-0.232034	-1.492317
N	-3.12027	-0.376097	-1.490075
N	-0.413119	-1.309468	0.69773
O	0.225412	-2.324533	0.439043
O	-1.371294	-1.261285	1.473421
N	-0.514487	1.131101	0.67854
H	0.126748	1.397564	1.413527
H	-1.425984	0.936419	1.072674
Cl	3.290399	0.0	0.0
