14

C	-0.489583	0.000316	-1.439405
C	0.0	0.0	0.0
Br	0.385421	1.3935	-2.485622
H	1.089629	0.0	0.0
H	-0.360409	-0.945973	0.438146
N	-0.130626	-1.32444	-2.115162
O	0.980919	-1.76889	-1.884426
O	-0.981064	-1.829839	-2.848311
C	-1.93442	0.191119	-1.548717
N	-3.098137	0.362671	-1.529304
N	-0.503061	1.193944	0.657621
H	0.232641	1.546048	1.254854
H	-1.328828	1.009173	1.211878
F	2.594935	0.0	0.0
