14

C	-0.525411	0.008062	-1.420257
C	0.0	0.0	0.0
Br	0.375198	1.367207	-2.489099
H	1.092577	0.0	0.0
H	-0.380416	-0.910525	0.480186
N	-0.274425	-1.326598	-2.132142
O	-0.885691	-1.517298	-3.180804
O	0.513109	-2.098401	-1.605594
C	-1.963491	0.251708	-1.501852
N	-3.129412	0.409753	-1.480794
N	-0.435229	1.237019	0.652837
H	-1.09308	1.051057	1.3977
H	0.400137	1.640524	1.06502
F	2.597782	0.0	0.0
