14

C	-0.543068	-0.013823	-1.411495
C	0.0	0.0	0.0
Br	0.230716	1.438961	-2.458312
H	1.091223	0.0	0.0
H	-0.343717	0.935468	0.457895
N	-0.160185	-1.313273	-2.129712
O	-0.919514	-1.683026	-3.023613
O	0.874145	-1.854682	-1.784637
C	-1.997284	0.104066	-1.472171
N	-3.161517	0.264781	-1.4294
N	-0.52557	-1.19676	0.66071
H	0.274737	-1.706105	1.015617
H	-1.127317	-0.95889	1.43669
F	2.608165	0.0	0.0
