14

C	-0.571916	-0.010935	-1.400306
C	0.0	0.0	0.0
Br	0.180457	1.43875	-2.466469
H	1.090178	0.0	0.0
H	-0.343554	0.929377	0.470966
N	-0.209721	-1.314321	-2.118831
O	0.890776	-1.781076	-1.888788
O	-1.051651	-1.764368	-2.894427
C	-2.026776	0.114744	-1.420442
N	-3.188044	0.278717	-1.333486
N	-0.500522	-1.209278	0.657953
H	-1.130505	-0.991489	1.417354
H	0.309186	-1.688561	1.032945
F	2.605289	0.0	0.0
