19

C	-0.463329	0.044816	-1.455332
C	0.0	0.0	0.0
Br	0.063832	-1.75242	-2.280704
H	1.090168	0.0	0.0
N	-1.852391	0.288349	-1.59671
H	-2.381975	-0.412426	-1.092022
H	-2.113323	0.281422	-2.574816
C	0.357781	1.067875	-2.221659
H	1.423262	0.900602	-2.053607
H	0.140423	0.997709	-3.290159
H	0.085202	2.068767	-1.875936
N	-0.495363	-1.220549	0.705301
O	0.302601	-1.874202	1.364498
O	-1.709096	-1.459134	0.632597
C	-0.481263	1.195742	0.816928
H	-1.569407	1.248677	0.845785
H	-0.085234	2.117718	0.389051
H	-0.081177	1.104622	1.829751
Br	3.579991	0.0	0.0
