13

C	0.0	0.0	0.0
C	-0.624102	0.333098	-1.342502
Cl	1.789435	0.0	0.0
H	-1.729708	0.298533	-1.057631
H	-0.301121	0.773816	0.705897
H	-0.397214	-0.447737	-2.075914
C	-0.511463	-1.341299	0.488745
H	-0.133775	-1.559861	1.490843
H	-0.187918	-2.138885	-0.187623
H	-1.604786	-1.227428	0.482509
C	-0.234238	1.627598	-1.873185
N	0.062017	2.678257	-2.310073
F	-2.926583	0.0	0.0
