13

C	0.0	0.0	0.0
C	-0.589449	-0.036145	-1.3993
Cl	1.790459	0.0	0.0
H	-1.697798	-0.019824	-1.141496
H	-0.325321	0.931874	0.459951
H	-0.3012	0.851885	-1.970098
C	-0.481223	-1.174373	0.831626
H	-1.575652	-1.102228	0.791405
H	-0.118332	-2.113444	0.403822
H	-0.111856	-1.095326	1.857615
C	-0.206221	-1.224142	-2.14598
N	0.10153	-2.180775	-2.755815
F	-2.883965	0.0	0.0
