16
Coordinates from ORCA-job run
  C   0.58675607569374      0.23101408204256     -0.36345460390021
  C   -0.68190177389736      0.17564881985260      0.52341216254142
  F   0.18840597381795      0.57986228884697     -1.64834059939521
  H   -0.38368333155039      0.06407464943404      1.56633963153003
  C   1.40392792201971      1.33761473969176      0.16548507567614
  N   2.03974616611444      2.21016260396119      0.62754631350336
  C   1.37927861428931     -1.05677182572193     -0.43771926082914
  H   0.77790649873120     -1.82289446079059     -0.92825344661261
  H   2.28295251797088     -0.89098663556918     -1.02512585729430
  H   1.65377230612869     -1.40437172296047      0.55923600896387
  N   -1.39627076952167     -1.10782446018209      0.17744478223185
  O   -1.16986577022677     -2.07782714962022      0.89796825573028
  O   -2.10215059614303     -1.09080964202715     -0.82419965420862
  N   -1.58413042957384      1.26324209214127      0.36869014143168
  H   -1.32128455367861      2.05189882315388      0.94198998149727
  H   -1.67245885017427      1.53796779774736     -0.60001893086580
