16
Coordinates from ORCA-job run
  C   0.60594233557001      0.26322296078490     -0.42010921187579
  C   -0.58170657995141      0.26307108070926      0.55814530108458
  F   0.09765452250435      0.52085521901674     -1.68929570505733
  H   -0.21171379964126      0.20191924653065      1.58295924744015
  C   1.47613314552749      1.38971108214816     -0.04176524746519
  N   2.21328809959732      2.24631687109111      0.27560053947293
  C   1.39382440211066     -1.02942340586930     -0.47836772595308
  H   0.76424278289491     -1.82628675098622     -0.87429882466783
  H   2.24688794764117     -0.89220924366159     -1.14332042180070
  H   1.75007512910208     -1.31503503874722      0.51208980503621
  N   -1.32832768219764     -1.06115528907942      0.35533173684661
  O   -2.19043602334050     -1.08618226810775     -0.51782223006248
  O   -0.98618945860258     -2.00066182150330      1.07001534164452
  N   -1.37406070757800      1.41160237226768      0.35430770953025
  H   -2.11395592372042      1.49287872014654      1.03759688826039
  H   -1.76065818991617      1.42337626525976     -0.58006720243325
