16
Coordinates from ORCA-job run
  C   0.70962825665759     -0.47074774539905     -0.04061533088316
  C   -0.76905979407472     -0.32852310959849      0.35939361437872
  F   1.26268174177291     -1.21373925696847      1.01071222127836
  H   -1.17522383839393     -1.33906608829501      0.47659929139582
  C   0.79980538331610     -1.29119610691416     -1.25901017341390
  N   0.86415811144445     -1.93527116493326     -2.23876193235724
  C   1.50588099828263      0.80898907416437     -0.17382771290266
  H   1.18911579539355      1.37249731920340     -1.04786016282470
  H   2.55960956867596      0.54161350625607     -0.26886242981290
  H   1.36109959163901      1.42719292723888      0.71083105921033
  N   -1.58086909883261      0.25427142788891     -0.77434945141795
  O   -2.58986798680155     -0.37630229253088     -1.08722307723163
  O   -1.20558234116961      1.31068005104404     -1.26980355627686
  N   -0.89736313478518      0.53527026728664      1.49715641162004
  H   -1.81951149881121      0.43768946909727      1.90637987193528
  H   -0.21650175431340      0.26464172245975      2.19724135730245
