16
Coordinates from ORCA-job run
  C   0.56537623712974     -0.38432452397501     -0.61356789098910
  C   -0.85472426356405     -0.40303313458517     -0.00407181800283
  F   0.82139491387714     -1.69726699502007     -0.98204322194497
  H   -1.50860574705689     -0.92133177643267     -0.70596364100972
  C   0.59041990875411      0.42742919456315     -1.84311536572578
  N   0.65317574674930      1.07512253047762     -2.82068097624835
  C   1.64539493108644      0.06071907234171      0.34986266646116
  H   2.61090300556793      0.01787814641076     -0.15500524283374
  H   1.46671540398022      1.07897148041568      0.69659590403191
  H   1.66187026038232     -0.62726134831966      1.19501601368120
  N   -1.37427303655495      1.03420560882305      0.02943662290627
  O   -2.07367413540529      1.40202073717078     -0.90920587379029
  O   -1.03946111601754      1.71386371715604      0.99935393857546
  N   -0.86131922534002     -1.02998879706493      1.26547880783244
  H   -1.78967985879223     -1.34172284380247      1.51655209917593
  H   -0.51351302479624     -0.40428106815881      1.98135797788042
