16
Coordinates from ORCA-job run
  C   0.59593440273187      0.22515446078286     -0.35234780727287
  C   -0.70203210928664      0.18713099359031      0.49172120235354
  F   0.23877055819055      0.52249855428268     -1.66204831158068
  H   -0.43919305496738      0.11693850682276      1.54767285826324
  C   1.38330644973361      1.35878264513274      0.16441887766303
  N   2.00028144262680      2.24390639475629      0.62815723145184
  C   1.40387920144175     -1.05517848316002     -0.35193925802713
  H   2.32668769726968     -0.90031770886776     -0.91195028199104
  H   1.64543634171726     -1.36370500672808      0.66619306786150
  H   0.82851346109634     -1.84522059068024     -0.83572044362169
  N   -1.39055805728057     -1.11616969799508      0.16861957367674
  O   -2.06216627321614     -1.14345977470845     -0.85604590253176
  O   -1.17830458778648     -2.05690419906011      0.93107431206677
  N   -1.60934934677506      1.25800748490218      0.26611045442004
  H   -1.37602559648310      2.06924032519454      0.82029214700967
  H   -1.66618052901250      1.49729609573537     -0.71420771974120
