16
Coordinates from ORCA-job run
  C   0.54367558154297     -0.26310702470826     -0.53728428084585
  C   -0.62992888368919     -0.25523804818420      0.45268042138710
  F   0.32135914800837     -1.28769866600718     -1.44472810746201
  H   -0.58968772916101     -1.16935051208187      1.04673699343273
  C   0.59686434815483      1.00800671596826     -1.28114521828880
  N   0.68907049289171      2.03834209393241     -1.83683277536369
  C   1.85521709787032     -0.51530687022143      0.17834738215952
  H   1.80630507040758     -1.48798280840484      0.67206280347065
  H   2.66843031415344     -0.52846019963446     -0.54838894007808
  H   2.03526570308686      0.26245641288549      0.91910334755030
  N   -1.91597763766022     -0.39493143958642     -0.35990778707882
  O   -2.43438352622952     -1.50537770010849     -0.40387339521400
  O   -2.32580932428653      0.62938804169515     -0.90123165517313
  N   -0.58654975632392      0.90328730567445      1.26749760011534
  H   -1.22271010881665      0.83243027867265      2.05041441354243
  H   -0.81214078994903      1.73154242010875      0.72754919784631
