16
Coordinates from ORCA-job run
  C   0.51567593042647     -0.37145510378198     -0.50346181547227
  C   -0.62829008489799     -0.14899598603963      0.49648079407922
  F   0.21414362462810     -1.50482120378149     -1.24294583298308
  H   -0.62139833850137     -0.96634317830030      1.21906440021185
  C   0.61489561498156      0.77083134326542     -1.42926904486552
  N   0.72432718522537      1.70948652390171     -2.12630835062267
  C   1.83042939563843     -0.58967795647860      0.21747872885102
  H   1.74313705697067     -1.47676488415958      0.84812448887240
  H   2.06967881743108      0.27563094794501      0.83394092112248
  H   2.62318668020706     -0.75273117446076     -0.51367352923140
  N   -1.94265769912356     -0.33225988608115     -0.26019200177493
  O   -2.31568971469917      0.62545348675242     -0.93393543528897
  O   -2.51615749468244     -1.40909096359835     -0.13610919802044
  N   -0.49898646687045      1.11258208455623      1.12885520532960
  H   -1.11611603242587      1.19460213639001      1.92579965434883
  H   -0.69517847430787      1.86355381387103      0.47615101544386
