16
Coordinates from ORCA-job run
  C   0.58554978446095      0.18849349157868     -0.38922154551962
  C   -0.66155309517521      0.23012176666532      0.52886458361810
  F   0.16762474402167      0.47985980414656     -1.68194310041526
  H   -0.34100261598660      0.16619489716153      1.56924588497787
  C   1.45524795601002      1.29151760668731      0.05665572383141
  N   2.13461447450267      2.16365710570661      0.45284591871652
  C   1.32816243718246     -1.13059486519355     -0.40793317894322
  H   0.68772755381454     -1.89912478661773     -0.84202664263892
  H   1.61201854659312     -1.43266157401521      0.60120417682971
  H   2.22392888114155     -1.03282038569200     -1.02219581771150
  N   -1.43063340281750     -1.04196405323499      0.27274452113555
  O   -1.22088062843455     -1.97927033165544      1.04012520989019
  O   -2.16146661830146     -1.05307930151898     -0.71102131217812
  N   -1.52813119821632      1.34066382789245      0.33438162911193
  H   -1.21477918794337      2.15248190592186      0.84716355943832
  H   -1.63742763085199      1.55752489216759     -0.64688961014299
