16
Coordinates from ORCA-job run
  C   0.65237145929797     -0.48381739257515     -0.42984033476433
  C   -0.77437650196790     -0.51703604815460      0.16292049503740
  F   1.14191170251918     -1.77268135138967     -0.27486550826651
  H   -1.29617631534078     -1.36672948325584     -0.27817919810058
  C   0.60589368949353     -0.20439333224057     -1.87596497213493
  N   0.61239883121044      0.02966619334687     -3.02667185974273
  C   1.59201955603414      0.47189870827361      0.27467876099659
  H   1.68018262040243      0.16683198277281      1.31736833317194
  H   2.57563992020201      0.41091387432048     -0.19196756739401
  H   1.22823965449393      1.49804066967280      0.21254488032677
  N   -1.52698450547893      0.71306518953256     -0.34514625888255
  O   -2.22806367345540      0.57216832819682     -1.34222845183981
  O   -1.36139419202249      1.75512633533825      0.28833605376438
  N   -0.74212332204003     -0.60859805241645      1.57566759854840
  H   -0.54165521457989      0.29198825544406      1.99247993990824
  H   -1.61788370876820     -0.95744387686595      1.94086808937169
