16
Coordinates from ORCA-job run
  C   0.51540526269264     -0.32924129850194     -0.68640853969991
  C   -0.89859006311930     -0.27902029215836     -0.06460085453270
  F   0.59828505264716     -1.56850504019359     -1.30472128851336
  H   -1.61110761146787     -0.56223145848332     -0.83979019048904
  C   0.65265880747617      0.69349345822519     -1.73831019909141
  N   0.77844374450204      1.49966811183701     -2.58286268646314
  C   1.63882161313310     -0.22348262165763      0.32319250501118
  H   1.59307675488250      0.72204322036850      0.86445815257452
  H   1.56072083816353     -1.05885662617373      1.01891521719952
  H   2.59330902626851     -0.29207381104544     -0.19949970756820
  N   -1.22465136737088      1.18011921561287      0.25458103048794
  O   -0.80363295040789      1.61161585710031      1.32759031163695
  O   -1.87047109938192      1.80827665014748     -0.57833399559575
  N   -0.99494013523027     -1.13239297704224      1.06135151175332
  H   -1.95791615722726     -1.36109190591956      1.26719464869106
  H   -0.57141171556026     -0.70632048211560      1.87624408459896
