16
Coordinates from ORCA-job run
  C   0.71465596398804     -0.44686697859223      0.01531392591417
  C   -0.77424336192528     -0.42168300818505      0.45950441895695
  F   1.38562728979618     -0.93436122799893      1.13881057246839
  H   -1.06846893945927     -1.45107359875384      0.66865841380472
  C   0.90897166086952     -1.41534083233580     -1.07374872674758
  N   1.08381788239714     -2.17614916406382     -1.95136831442431
  C   1.30802972651194      0.89772071771202     -0.34318872628287
  H   2.37731675235957      0.77217322414578     -0.51829522285255
  H   1.17358092651856      1.59299923761406      0.48582509135217
  H   0.84470287131673      1.31020573281405     -1.23886673464184
  N   -1.60234149437615      0.01944991541891     -0.71158030904029
  O   -1.71514006334958      1.23298498726207     -0.87264094917279
  O   -2.07313116678196     -0.85774918635926     -1.42937435195350
  N   -1.08899751347361      0.40949554729851      1.57511615572972
  H   -0.87140580674413      1.38013055437048      1.39462858024425
  H   -0.60397472764777      0.08606407965304      2.40120617664539
