16
Coordinates from ORCA-job run
  C   0.53923086124728     -0.26603765114829     -0.53999067715848
  C   -0.62189335281187     -0.25433544051736      0.46449922106873
  F   0.31552146939396     -1.30690972444935     -1.42839557522437
  H   -0.56553193836015     -1.15934187006925      1.07106622249519
  C   0.57072383343307      0.99373873691762     -1.30405336383236
  N   0.64911333876548      2.01621620762895     -1.87614866260849
  C   1.86209853488713     -0.49432737818436      0.16267551395938
  H   2.04150415933896      0.29439201543622      0.89197000281196
  H   2.66707568839369     -0.50675738145752     -0.57320132974031
  H   1.83003439884077     -1.46156797787801      0.66841895161646
  N   -1.91641277938140     -0.41746607158924     -0.32959701959770
  O   -2.34127798301777      0.59452327518903     -0.88248152370552
  O   -2.42466170354673     -1.53319557041146     -0.35159822476899
  N   -0.57924468633096      0.91642490405646      1.26198636549418
  H   -1.20592572035870      0.85111035679681      2.05299646085557
  H   -0.81935412049278      1.73453356967969      0.71285363833473
