16
Coordinates from ORCA-job run
  C   0.60379629398592      0.20505232726966     -0.45408561362717
  C   -0.53256363798692      0.32024345624303      0.57688250058670
  F   0.05674501801610      0.46824253769280     -1.70567797803417
  H   -0.11971089326036      0.25844780348229      1.58516190913971
  C   1.57260224654485      1.27198335944189     -0.14991435118531
  N   2.37696114093165      2.09202976865968      0.09182379532283
  C   1.28862616420981     -1.14513271548361     -0.50991782407896
  H   2.11942793724521     -1.09082947918845     -1.21389887080988
  H   0.58357026203986     -1.90067824248882     -0.85680618513973
  H   1.66530391689540     -1.43282269072502      0.47230690541437
  N   -1.38298705837601     -0.94945484001857      0.44860377724511
  O   -1.07960479410702     -1.89122505990606      1.17773114549465
  O   -2.28313676853927     -0.93442828642770     -0.38558057354318
  N   -1.24700706944806      1.51887527290570      0.37497800312020
  H   -1.94480961664264      1.67467757028185      1.08886532672728
  H   -1.67621314150851      1.53501921826125     -0.54047196663245
