16
Coordinates from ORCA-job run
  C   0.57765828280686      0.19168644666182     -0.39817661612956
  C   -0.65098744780176      0.22124242813889      0.54478796835101
  F   0.13229281763735      0.49387826180648     -1.67953138870247
  H   -0.31103313745391      0.14287478108473      1.57792304038619
  C   1.45161432821129      1.29446855018121      0.03951170649350
  N   2.13146142547195      2.17035480367110      0.42670449446393
  C   1.32352880264293     -1.12466380855826     -0.44540753701862
  H   2.20728836136329     -1.01750256780481     -1.07525185060987
  H   0.67673394478115     -1.88989070524282     -0.87613595655743
  H   1.62708314001840     -1.43759607886022      0.55470752187619
  N   -1.42542559423711     -1.04745916381126      0.28536672033788
  O   -1.19991630428097     -1.99534806608248      1.03509773987344
  O   -2.17433183867613     -1.04501020493983     -0.68463956806638
  N   -1.52007412652610      1.33473040751681      0.38218368272036
  H   -1.64536173707840      1.56875318142198     -0.59309214301218
  H   -1.20053091687885      2.13748173481666      0.90495218559404
