16
Coordinates from ORCA-job run
  C   0.55009061355164     -0.52392046780881     -0.51698425287867
  C   -0.83490206491637     -0.41424883308572      0.15994943029794
  F   0.84707598109330     -1.87900285673496     -0.52319487147249
  H   -1.49990268710259     -1.12585516400716     -0.33017389340960
  C   0.47617959960981     -0.08557264782720     -1.92194346434240
  N   0.46206117309474      0.26605014502608     -3.04235489027203
  C   1.65602521196474      0.20427727614181      0.21757369157666
  H   1.44783972827477      1.27281438536332      0.28158031041342
  H   1.74850538235288     -0.22122123973316      1.21679743929419
  H   2.59530786203801      0.05309215072715     -0.31522000770823
  N   -1.41652782320706      0.96002660040850     -0.17305713497212
  O   -1.06669767768393      1.89187303776312      0.55083120598392
  O   -2.17575540046837      1.03164157367150     -1.13418623052513
  N   -0.74800972707227     -0.66292772517997      1.55118031508092
  H   -1.64804085825037     -0.91664267457114      1.93555093854308
  H   -0.39224931327893      0.14761643984664      2.04265141439056
