15

C	-0.200051	0.021939	-1.397222
C	-0.016881	-0.150603	0.105335
Br	0.265295	-1.654838	-2.268344
H	1.06466	-0.249832	0.205661
H	0.589122	0.781703	-1.659199
N	-1.588311	0.34356	-1.839968
O	-1.70445	1.092997	-2.803163
O	-2.533998	-0.174323	-1.239762
N	-0.763976	-1.13352	0.833382
H	-1.653896	-1.297214	0.384049
H	-0.239256	-1.993065	0.880952
N	-0.272138	1.19811	0.748436
O	-1.004053	1.993798	0.160645
O	0.228515	1.379851	1.848452
F	1.952149	1.230872	-0.973872
