15

C	0.0	0.0	0.0
C	-0.557602	-0.57919	-1.316465
Br	1.947656	0.0	0.0
H	0.273194	-0.791965	-2.004645
H	-0.2955	-0.679288	0.792967
C	-0.386278	1.419044	0.420921
H	-1.474596	1.444623	0.39744
H	0.066196	2.16599	-0.227385
H	-0.016377	1.566584	1.440001
N	-1.42786	0.32872	-2.149607
O	-2.306223	-0.197825	-2.815953
O	-1.06659	1.496183	-2.247773
C	-1.258603	-1.835266	-1.065139
N	-1.594748	-2.952382	-0.927378
F	-2.534036	0.0	0.0
