15

C	0.0	0.0	0.0
C	-0.559886	-0.185279	-1.425358
Br	1.94751	0.0	0.0
H	0.270499	-0.1958	-2.146319
H	-0.295406	-0.874075	0.570829
C	-0.386027	1.244437	0.80333
H	0.062755	2.144339	0.38828
H	-1.474463	1.273904	0.791249
H	-0.011934	1.102142	1.821894
N	-1.42835	0.923182	-1.967862
O	-1.055219	2.069389	-1.740299
O	-2.31424	0.608348	-2.747856
C	-1.262389	-1.4612	-1.538584
N	-1.599379	-2.571477	-1.726029
F	-2.535152	0.0	0.0
