15

C	0.0	0.0	0.0
C	-0.557445	-0.521886	-1.340552
Br	1.947619	0.0	0.0
H	0.273262	-0.702711	-2.03788
H	-0.297107	-0.712086	0.762949
C	-0.386369	1.400219	0.480329
H	-1.475031	1.424827	0.460199
H	0.062989	2.174306	-0.137726
H	-0.014	1.506125	1.503724
N	-1.427577	0.421756	-2.132933
O	-2.311997	-0.07234	-2.815196
O	-1.057333	1.589553	-2.186225
C	-1.257289	-1.788803	-1.145678
N	-1.599396	-2.909351	-1.058666
F	-2.533512	0.0	0.0
