15

C	0.0	0.0	0.0
C	-0.493613	0.133068	-1.444023
Br	1.949366	0.0	0.0
H	-0.130642	-0.728158	-2.009317
H	-0.324412	-0.977101	0.35056
C	-0.404427	1.088484	0.988163
H	-0.028592	0.821268	1.979648
H	-1.490612	1.124332	0.988254
H	0.024398	2.048292	0.702183
N	0.169956	1.300637	-2.136282
O	-0.060628	2.425295	-1.700853
O	0.892107	1.048667	-3.099721
C	-1.959313	0.275754	-1.713271
N	-2.678241	0.446542	-2.643814
F	-2.630801	0.0	0.0
