15

C	0.0	0.0	0.0
C	-0.461526	-0.068107	-1.456722
Br	1.948835	0.0	0.0
H	0.079304	-0.880079	-1.94522
H	-0.323089	-0.92832	0.467395
C	-0.417094	1.199385	0.840944
H	-0.087881	1.03381	1.869719
H	-1.502152	1.244767	0.787691
H	0.043862	2.115172	0.472581
N	-0.010191	1.152413	-2.220445
O	-0.513704	2.231039	-1.9205
O	0.832633	0.984965	-3.101035
C	-1.909476	-0.266146	-1.755223
N	-2.608461	-0.535565	-2.676661
F	-2.630025	0.0	0.0
