16
Coordinates from ORCA-job run
  C   -0.52394158922139     -0.11458354708351     -0.27347629843117
  C   0.90412710048433      0.03424453880965      0.26507649303521
  Br  -0.50654305982759     -1.10692131645107     -1.92147431457755
  H   0.83517636412919      0.39214059457619      1.29801894441120
  N   -1.35896659976806     -0.83862825738619      0.80097467908998
  O   -1.24015549127993     -0.35314902491887      1.92087755888043
  O   -2.10415564978972     -1.74067014218177      0.46774219382102
  C   -1.19104824085698      1.23710463170733     -0.47383412921855
  H   -2.23256216123220      1.08218271435654     -0.76078003176283
  H   -1.15560504478127      1.80731772946759      0.45719293692588
  H   -0.68926401709934      1.79333347722315     -1.26486970826357
  C   1.68728390114659      0.95524347781625     -0.54325654893584
  N   2.27678615795813      1.74707669734436     -1.18011563216955
  N   1.60433240739941     -1.31172511084963      0.36352322661838
  O   2.75689022542619     -1.38442791309457     -0.03642098655795
  O   0.93964569731262     -2.19953854933545      0.88082161713491
