16
Coordinates from ORCA-job run
  C   -0.50797820247876      0.10829365942397     -0.45853502234621
  C   0.94572896757361     -0.34670718062897     -0.22645097266031
  Br  -0.59176499685623      1.13551251284078     -2.10184592948178
  H   1.29775686278395     -0.91369684828133     -1.08652926532999
  N   -1.31140533349730     -1.17795837223733     -0.73298006258362
  O   -2.51336418432559     -1.12537431092253     -0.52030317343013
  O   -0.68891058553138     -2.13934038843449     -1.17133802893215
  C   -1.14366246726141      0.86176630438475      0.68360643204104
  H   -0.59287945743210      1.78041580790507      0.87635035336675
  H   -2.17431187262743      1.10035261886193      0.43046689889213
  H   -1.13295103422539      0.24452007108878      1.58543529841020
  C   1.04141861545939     -1.14138282268490      0.99212800234275
  N   1.09419891188254     -1.78624171553827      1.97262480694853
  N   1.86840781322973      0.84840924084180     -0.10623936355298
  O   2.60963988867439      1.04692504726557     -1.06130663863963
  O   1.79807707463199      1.50650637611517      0.92591666495538
