16
Coordinates from ORCA-job run
  C   -0.51131710637209     -0.16044827671198     -0.27631757036515
  C   0.89490628025149      0.10908713206866      0.27275892016184
  Br  -0.39851106225553     -1.18356885742768     -1.90142405780102
  H   0.78681947621884      0.48085370394036      1.29738329060140
  N   -1.30157363257345     -0.92271280147536      0.80529514600229
  O   -1.23492128715976     -0.40450260038352      1.91479279675854
  O   -1.97206124026370     -1.88599527492862      0.48461273216636
  C   -1.27713113950501      1.13174808480454     -0.51355864078955
  H   -0.80782746560250      1.70946664778529     -1.30924830820647
  H   -2.29941150582267      0.89152360612872     -0.81094430660637
  H   -1.29912632468371      1.72101314777677      0.40599457946947
  C   1.61434293633154      1.07168163376486     -0.54611576381964
  N   2.16569717218095      1.89459473156892     -1.17767091126733
  N   1.69405306103299     -1.17750316369613      0.40476365009015
  O   2.84833054136106     -1.17605211481532      0.00327403414300
  O   1.09673129686157     -2.09818559839952      0.94640440946248
