16
Coordinates from ORCA-job run
  C   -0.50063544942364     -0.17658309198610     -0.28263273030994
  C   0.88565294128559      0.12112684820068      0.30101498331312
  Br  -0.33806661109007     -1.33633258427727     -1.80892478574945
  H   0.74174646892993      0.58196284182964      1.28417128523204
  N   -1.34709012926703     -0.83376297618169      0.82523310345351
  O   -2.02216112033089     -1.81009278590915      0.55817816067840
  O   -1.31497799199770     -0.22595156908724      1.88995554726237
  C   -1.23585982452227      1.09967768388052     -0.66079372423376
  H   -0.72692257670935      1.60046932162876     -1.48366766987330
  H   -1.28441205495892      1.76659493773620      0.20304626408121
  H   -2.24962598368579      0.84735918050980     -0.97679332781693
  C   1.65401369171499      0.99829916054646     -0.56790124471298
  N   2.22640476155276      1.75253976744494     -1.26327221588059
  N   1.65798614942278     -1.15885274533627      0.57914707421072
  O   1.02099823717613     -2.02657841597607      1.16131763620765
  O   2.83194949190347     -1.19987557302320      0.24192164413792
