16
Coordinates from ORCA-job run
  C   -0.58235633351723      0.10528276793287     -0.41850786559513
  C   0.94500991939057      0.00733605649408     -0.34425181058319
  Br  -1.04631734032040      0.08082757866635     -2.30967701660358
  H   1.34859596157425      0.95322966161905     -0.71998297256615
  N   -1.23064397894733     -1.13464264845951      0.18985269494214
  O   -0.56415067373747     -2.16082059571187      0.18880775100167
  O   -2.37492119422957     -1.00254618705937      0.59953488722526
  C   -1.13638130103716      1.36305659072622      0.21570520078883
  H   -0.65411842205130      2.23469118732022     -0.23067935042866
  H   -0.96270143918644      1.34997913871806      1.29123607764322
  H   -2.20736771299771      1.42455142627369      0.03619691973388
  C   1.57085528723221     -1.07754752170124     -1.09240469011166
  N   2.13676296370874     -1.90206853212113     -1.70813004630748
  N   1.45615968337016     -0.06728753394375      1.09542480810938
  O   0.63966982717813     -0.25622378969129      1.98808613796574
  O   2.66290475357052      0.08318240093762      1.21678927478576
