16
Coordinates from ORCA-job run
  C   -0.57255146842730      0.07765995502306     -0.47080867467569
  C   0.96182589410460      0.09234138613740     -0.37939550834779
  Br  -1.02580217405198      0.18717061515439     -2.35266705655132
  H   1.31005108543592      1.04099247262999     -0.79372509094625
  N   -1.10786582446001     -1.26491797416359      0.04622611462038
  O   -0.70506183569461     -2.26832108675923     -0.52186169209675
  O   -1.88956377405330     -1.21437281650143      0.98812541206374
  C   -1.19018269431381      1.22863333778420      0.29023789080826
  H   -0.99243838277494      1.13516589275251      1.35857185513317
  H   -0.77560364287783      2.16899687920720     -0.07687969494264
  H   -2.26905450481844      1.23374745392341      0.14446987436923
  C   1.66411873909463     -1.00990923333266     -1.02326229633317
  N   2.32731906973267     -1.83626896954136     -1.53030420160493
  N   1.34420759780923      0.12992231172882      1.08818321556531
  O   1.10555848786626     -0.88409322389051      1.73365467569706
  O   1.81604342742891      1.18325299984788      1.50043517724139
