16
Coordinates from ORCA-job run
  C   -0.55164017258226     -0.00842714012628     -0.41890058928270
  C   0.93491739389059     -0.36904445732210     -0.23335560566995
  Br  -0.82740392416326      0.61369272137345     -2.23540397127025
  H   1.23095113565707     -1.10884260005312     -0.97519709885920
  N   -1.31982395511404     -1.34039310334337     -0.31659292224079
  O   -2.49036032651799     -1.27068127364626      0.02710753194264
  O   -0.70747714191000     -2.35867541859080     -0.61972859159048
  C   -1.11105384726885      0.97427523203416      0.57958046663381
  H   -2.16963012132080      1.12822610054909      0.38242529733521
  H   -0.58387776710940      1.92327519195103      0.50304945737600
  H   -0.99211990871283      0.58154479571953      1.59237183472428
  C   1.17200722307876     -0.86680330530998      1.11628489335812
  N   1.33889240864429     -1.28718119360318      2.20047332644728
  N   1.81354744384808      0.84067244934391     -0.47303900499167
  O   1.81269400170428      1.71125321773224      0.39038441087728
  O   2.45237755787636      0.83610878329169     -1.51845943478960
