16
Coordinates from ORCA-job run
  C   -0.58471017913752      0.06414787742049     -0.45586902604740
  C   0.95027928950491      0.11402915893845     -0.39928646565107
  Br  -1.08374282999859      0.17106921256555     -2.32654508775430
  H   1.26651877850297      1.07164317241800     -0.81867572874746
  N   -1.08157161672153     -1.29108878649365      0.06492879251955
  O   -0.65277795793917     -2.28417930744445     -0.50236012219805
  O   -1.86460436100491     -1.26067275992245      1.00657706020722
  C   -1.20924234043561      1.19822250758327      0.32465038956327
  H   -0.98781196375150      1.10127544917714      1.38816207265556
  H   -2.29072259609761      1.18333194958437      0.20138532377498
  H   -0.82062347561303      2.14883483118952     -0.04458390899646
  C   1.66612527249530     -0.96775598706942     -1.06283466826964
  N   2.33522482702441     -1.76673447932065     -1.60478494700376
  N   1.36550670740829      0.15792605154795      1.05912056180079
  O   1.14445511470180     -0.85489558349231      1.71278662946885
  O   1.84569733106180      1.21284669331816      1.45732912467782
