15

C	-0.369603	-0.145061	-1.489228
C	0.0	0.0	0.0
F	-1.696803	-0.563305	-1.598904
H	1.092602	0.0	0.0
C	-0.329663	1.187499	-2.144123
N	-0.264302	2.210821	-2.718222
N	0.482807	-1.098744	-2.09133
H	1.413344	-1.086236	-1.675003
H	0.542444	-0.968567	-3.091942
N	-0.464855	-1.237642	0.720186
O	-1.456199	-1.14109	1.43969
O	0.185305	-2.254825	0.517639
C	-0.577198	1.179114	0.616515
N	-1.013381	2.151122	1.111151
Cl	3.156663	0.0	0.0
