15

C	-0.337637	0.033744	-1.502465
C	0.0	0.0	0.0
F	-0.131421	-1.277735	-1.973296
H	1.092736	0.0	0.0
C	-1.755201	0.331954	-1.800258
N	-2.870718	0.574919	-2.073416
N	0.507862	0.990101	-2.079942
H	1.477896	0.834778	-1.798786
H	0.408511	1.038972	-3.08502
N	-0.56493	-1.245227	0.610968
O	0.204779	-2.172095	0.821943
O	-1.779122	-1.241659	0.819226
C	-0.523485	1.166436	0.689477
N	-0.940143	2.105743	1.258499
Cl	3.199357	0.0	0.0
