15

C	-0.538557	-0.054819	-1.438766
C	0.0	0.0	0.0
F	-0.108622	1.142452	-2.028427
H	1.091395	0.0	0.0
C	0.031966	-1.137311	-2.260459
N	0.434702	-1.919305	-3.037704
N	-1.95178	-0.171875	-1.435365
H	-2.366315	0.614152	-0.947165
H	-2.314123	-0.219388	-2.379687
N	-0.43109	-1.219101	0.758153
O	-0.23741	-2.290688	0.197855
O	-0.896778	-1.067167	1.884061
C	-0.519024	1.196501	0.645416
N	-0.954054	2.187462	1.102439
Cl	3.119252	0.0	0.0
