15

C	-0.551035	-0.032156	-1.436876
C	0.0	0.0	0.0
F	-1.909129	-0.464108	-1.328637
H	1.093689	0.0	0.0
C	-0.651496	1.329948	-2.000566
N	-0.76499	2.384176	-2.503878
N	0.220567	-0.827464	-2.284922
H	0.520034	-1.687017	-1.84754
H	-0.217617	-0.969085	-3.183403
N	-0.381037	-1.287969	0.688768
O	-0.06568	-2.322073	0.107642
O	-0.928672	-1.227702	1.782021
C	-0.537109	1.121223	0.752422
N	-0.950781	2.054129	1.334101
Cl	3.128322	0.0	0.0
