18

C	-0.166135	-0.050518	-1.520359
C	0.0	0.0	0.0
Br	-2.085284	-0.431937	-2.071875
H	1.099138	0.0	0.0
C	0.125652	1.241874	-2.133933
N	0.370194	2.276115	-2.637158
C	0.743207	-1.119577	-2.11092
H	0.76891	-1.077051	-3.201395
H	0.399589	-2.107141	-1.79935
H	1.728604	-0.910999	-1.660945
N	-0.391579	-1.236347	0.666728
H	-1.208872	-1.652592	0.235121
H	0.382867	-1.883765	0.610893
C	-0.629905	1.20282	0.664521
H	-0.349182	1.186907	1.718999
H	-1.724286	1.171719	0.601318
H	-0.277215	2.139956	0.227833
F	2.663293	0.0	0.0
