18

C	-0.441616	-0.024187	-1.477302
C	0.0	0.0	0.0
Br	0.434615	1.447827	-2.478282
H	1.095274	0.0	0.0
C	0.018284	-1.2628	-2.106725
N	0.327154	-2.286066	-2.597191
C	-1.944672	0.126735	-1.709038
H	-2.190799	0.040576	-2.769309
H	-2.277622	1.100114	-1.348824
H	-2.483042	-0.654731	-1.162324
N	-0.363981	-1.250164	0.677455
H	0.405899	-1.894639	0.544497
H	-1.209044	-1.680718	0.319777
C	-0.561223	1.18705	0.760298
H	-0.044473	1.221584	1.721096
H	-0.374992	2.131228	0.240825
H	-1.636996	1.091683	0.959489
F	2.632045	0.0	0.0
