18

C	-0.270002	0.056267	-1.518717
C	0.0	0.0	0.0
Br	0.060679	-1.736502	-2.311747
H	1.102779	0.0	0.0
C	-1.652704	0.380519	-1.860507
N	-2.75003	0.711519	-2.125818
C	0.751571	1.001798	-2.155795
H	1.719401	0.745797	-1.697517
H	0.763051	0.902958	-3.242624
H	0.495074	2.034539	-1.90344
N	-0.654781	-1.156163	0.624477
H	-0.059876	-1.960706	0.455647
H	-0.623653	-1.001811	1.62751
C	-0.512745	1.265842	0.671542
H	-0.109592	2.166479	0.206984
H	-0.167199	1.267712	1.710485
H	-1.608057	1.311573	0.665483
F	2.728837	0.0	0.0
