18

C	-0.209436	0.035431	-1.545337
C	0.0	0.0	0.0
Br	0.24314	-1.74451	-2.302814
H	1.096601	0.0	0.0
C	-1.59953	0.266924	-1.925322
N	-2.735862	0.474179	-2.150442
C	0.774603	1.0304	-2.158044
H	0.454329	2.047505	-1.921153
H	0.829882	0.925321	-3.243626
H	1.739537	0.824891	-1.670574
N	-0.545373	-1.148501	0.698978
H	-1.455384	-1.406322	0.332493
H	0.079598	-1.930363	0.556793
C	-0.536821	1.279162	0.628195
H	-0.282647	1.244924	1.689002
H	-1.628259	1.362139	0.539561
H	-0.077585	2.173349	0.201229
F	2.705516	0.0	0.0
