18

C	-0.463493	0.01041	-1.470734
C	0.0	0.0	0.0
Br	0.459363	1.458414	-2.467032
H	1.095252	0.0	0.0
C	-0.06501	-1.237574	-2.124313
N	0.187467	-2.276493	-2.613815
C	-1.962558	0.224474	-1.678605
H	-2.24972	1.205108	-1.299063
H	-2.226441	0.164021	-2.736273
H	-2.523817	-0.543208	-1.13511
N	-0.379416	-1.246495	0.668404
H	-1.276872	-1.615137	0.368312
H	0.339387	-1.9335	0.470096
C	-0.530627	1.188362	0.78146
H	-1.598687	1.097874	1.017259
H	0.021428	1.219792	1.721835
H	-0.358645	2.132134	0.257471
F	2.632827	0.0	0.0
