14
Coordinates from ORCA-job run
  C   0.88401589472660      0.11662326859568     -0.53151872954904
  C   -0.43198195375664      0.50929894856709      0.19582715907915
  H   0.76751988919903      0.37591649447517     -1.59145634571097
  H   -0.53993928099652      1.59424182699795      0.08440846579032
  C   1.12104216009185     -1.32849663682180     -0.44291296679192
  N   1.27331155347906     -2.49116505432273     -0.38288185513201
  C   2.02707861316466      0.86784986566409     -0.00214629606728
  N   2.91902971250088      1.50467395560938      0.41911033680625
  C   -0.31604447505824      0.21213306072660      1.62507236505281
  N   -0.24054963063446     -0.04536642615336      2.76835492113305
  C   -1.63924901751980     -0.20010828215814     -0.42127558771825
  H   -1.55427307701108     -1.28204653034138     -0.30656345100587
  H   -1.71367140868913      0.03973470933266     -1.48471764843632
  H   -2.55628897949621      0.12671079982878      0.07069963255008
