14
Coordinates from ORCA-job run
  C   0.87347732468453      0.09861157604073     -0.55198554947369
  C   -0.41238588769683      0.51733756857646      0.21282158834562
  H   0.73471133357067      0.36973983054704     -1.60627288043680
  H   -0.49434743613053      1.60594535391595      0.11558547647834
  C   1.07835867250198     -1.35234011241570     -0.48237035132937
  N   1.20608789323428     -2.51887422135092     -0.43915793664206
  C   2.04821319855935      0.81813591767759     -0.04879880176490
  N   2.96563026562071      1.43188029178430      0.35149459530350
  C   -0.27130970662467      0.20109520091029      1.63575335989479
  N   -0.18296921910232     -0.07264688158485      2.77438963366444
  C   -1.65352998787518     -0.15300487130625     -0.38094602678041
  H   -1.74875405882632      0.10149391335733     -1.43935352018526
  H   -2.54869768428216      0.19182310940679      0.13826192837333
  H   -1.59448470763352     -1.23819667555878     -0.28042151544752
