14
Coordinates from ORCA-job run
  C   0.81156011980199     -0.41363865124843     -0.39013475937997
  C   -0.30981202489409      0.17554146435938      0.51369354554831
  H   0.39143363540681     -1.25001484054162     -0.96318841248288
  H   0.13388761017239      0.97511370032354      1.11717549476300
  C   1.93003187022708     -0.91947535267753      0.41309459839876
  N   2.81480516400269     -1.32036804817079      1.07280524505788
  C   1.28566093098320      0.60189182073017     -1.33685441259677
  N   1.63270969302096      1.43311646115725     -2.08986173561789
  C   -0.77286827400922     -0.87845772129480      1.41892789173871
  N   -1.16723228797577     -1.73597376153528      2.11764289420721
  C   -1.46987713719816      0.72936250741016     -0.31720690159072
  H   -1.90380335104523     -0.05367946846881     -0.94307367292052
  H   -2.25031664834466      1.11146402882763      0.34211711743117
  H   -1.12617930014798      1.54511786112911     -0.95513689255631
