14
Coordinates from ORCA-job run
  C   1.09608673387051      0.06031596386469      0.06520238022080
  C   -0.34191374494903      0.50317698821313      0.46481197966386
  H   1.79604759689847      0.37196324614503      0.84985054333226
  H   -0.32709770449729      1.59731545987545      0.52831107687299
  C   1.48731538345725      0.71527426595465     -1.18810007929737
  N   1.76839995957729      1.27196599438148     -2.18286107028835
  C   1.17684962387527     -1.39847011298959     -0.07012661956006
  N   1.21427672825744     -2.56778617134787     -0.16912393756568
  C   -0.63558742146611     -0.02129237237360      1.80023356403242
  N   -0.87218937017602     -0.45113147368794      2.86718604625616
  C   -1.39295946308294      0.05889583427147     -0.55371577625441
  H   -1.42584681184702     -1.02973909397678     -0.62592922546133
  H   -2.37843363937141      0.41400866996595     -0.24898354025429
  H   -1.16394787054642      0.47550280170393     -1.53675534169698
