17

C	0.0	0.0	0.0
C	-0.597403	-0.055704	-1.414092
Cl	1.794578	0.0	0.0
H	-1.701943	0.035835	-1.135671
C	-0.481489	1.247645	0.732899
H	-0.108033	1.251223	1.759228
H	-1.576864	1.16884	0.693782
H	-0.111755	2.135176	0.214738
C	-0.414375	-1.199983	0.738525
N	-0.624352	-2.18222	1.348242
C	-0.331621	-1.362752	-2.154403
H	-0.772309	-1.319306	-3.153096
H	-0.802318	-2.184167	-1.611533
H	0.73825	-1.563985	-2.256072
C	-0.154606	1.089325	-2.195262
N	0.174902	1.999244	-2.864422
F	-2.834667	0.0	0.0
