17

C	0.0	0.0	0.0
C	-0.476087	0.051136	-1.491792
Cl	1.798715	0.0	0.0
H	0.406121	-0.181406	-2.101006
C	-0.426873	1.161009	0.896833
H	-0.04887	2.103787	0.497023
H	-1.520114	1.105893	0.908899
H	0.003145	1.00922	1.889486
C	-0.390252	-1.265281	0.630401
N	-0.533888	-2.290568	1.186482
C	-1.01535	1.419019	-1.90598
H	-1.910991	1.586023	-1.309911
H	-0.266232	2.201749	-1.753428
H	-1.274141	1.395779	-2.967977
C	-1.451563	-0.987361	-1.846426
N	-2.034325	-1.828108	-2.428309
F	-2.61269	0.0	0.0
