17

C	0.0	0.0	0.0
C	-0.605361	-0.209161	-1.395037
Cl	1.794817	0.0	0.0
H	-1.708965	-0.068114	-1.114671
C	-0.465139	1.324503	0.599867
H	-1.559271	1.254773	0.597663
H	-0.063378	1.443321	1.608154
H	-0.105685	2.144526	-0.025935
C	-0.404762	-1.112123	0.871532
N	-0.604678	-2.026932	1.581554
C	-0.380734	-1.604356	-1.968057
H	0.6788	-1.873497	-1.990472
H	-0.922824	-2.327994	-1.357862
H	-0.772931	-1.658951	-2.98584
C	-0.144997	0.825063	-2.304623
N	0.212276	1.645832	-3.068262
F	-2.827566	0.0	0.0
