17

C	0.0	0.0	0.0
C	-0.590644	-0.046286	-1.421011
Cl	1.794826	0.0	0.0
H	-1.69638	0.042702	-1.141019
C	-0.462184	1.248406	0.748579
H	-0.067054	2.133307	0.245663
H	-0.089797	1.226041	1.775279
H	-1.556394	1.205758	0.708702
C	-0.415505	-1.207643	0.723439
N	-0.627123	-2.19867	1.318041
C	-0.323077	-1.35386	-2.158934
H	-0.754864	-1.30844	-3.161691
H	-0.804154	-2.173068	-1.620266
H	0.747448	-1.562758	-2.249087
C	-0.163013	1.104735	-2.19877
N	0.142167	2.026767	-2.863293
F	-2.792711	0.0	0.0
