14

C	-0.480522	-0.004434	-1.444209
C	0.0	0.0	0.0
Cl	-2.258225	-0.215847	-1.517398
H	1.093768	0.0	0.0
H	-0.343935	-0.930257	0.458036
C	-0.140195	1.22072	-2.155673
N	0.118221	2.206254	-2.740885
N	0.109302	-1.206998	-2.188092
O	0.534617	-1.022919	-3.322555
O	0.066676	-2.268541	-1.581347
N	-0.490075	1.205632	0.647827
H	-1.194649	0.994258	1.33957
H	0.287075	1.669557	1.099136
Br	3.489217	0.0	0.0
