14

C	-0.489905	-0.005902	-1.434979
C	0.0	0.0	0.0
Cl	-0.016769	1.480863	-2.2825
H	1.09338	0.0	0.0
H	-0.348293	0.924533	0.464045
C	-0.033133	-1.1736	-2.179365
N	0.341039	-2.111846	-2.778828
N	-2.0308	-0.027774	-1.44286
O	-2.584281	0.616102	-0.561006
O	-2.586819	-0.642156	-2.34427
N	-0.523198	-1.204124	0.631942
H	0.246861	-1.738882	1.011472
H	-1.164365	-0.976569	1.377894
Br	3.516862	0.0	0.0
