14

C	-0.556717	0.052782	-1.417483
C	0.0	0.0	0.0
Cl	-2.297556	0.427382	-1.394258
H	1.106157	0.0	0.0
H	-0.315612	0.93289	0.47592
C	0.111032	1.031773	-2.26905
N	0.60831	1.845319	-2.955721
N	-0.364105	-1.317745	-2.106218
O	0.632429	-1.931195	-1.758329
O	-1.17011	-1.645034	-2.963994
N	-0.562603	-1.161932	0.677489
H	0.182513	-1.837017	0.79756
H	-0.895489	-0.898361	1.594611
Br	3.541314	0.0	0.0
