14

C	-0.554963	0.047988	-1.413349
C	0.0	0.0	0.0
Cl	0.17132	-1.213049	-2.427351
H	1.090109	0.0	0.0
H	-0.322783	-0.958	0.419362
C	-2.010621	-0.09394	-1.423969
N	-3.173547	-0.252193	-1.372699
N	-0.233856	1.393677	-2.077413
O	-0.929478	1.694938	-3.042352
O	0.700182	2.030021	-1.618037
N	-0.574745	1.125116	0.732223
H	-0.937545	0.818821	1.623262
H	0.161218	1.798142	0.905229
Br	3.575656	0.0	0.0
