14

C	-0.498223	-0.114291	-1.432078
C	0.0	0.0	0.0
Cl	-2.28437	-0.094841	-1.505219
H	1.094209	0.0	0.0
H	-0.326119	0.986993	0.341654
C	-0.002623	0.966023	-2.279954
N	0.354182	1.871546	-2.938217
N	-0.05504	-1.432163	-2.093211
O	0.54777	-2.233927	-1.396276
O	-0.351363	-1.562146	-3.274891
N	-0.568542	-1.050448	0.834864
H	-0.83929	-0.659413	1.726108
H	0.155882	-1.736048	1.004033
Br	3.527631	0.0	0.0
