14

C	-0.543461	0.013529	-1.418549
C	0.0	0.0	0.0
Cl	0.179629	-1.281949	-2.391712
H	1.091581	0.0	0.0
H	-0.324758	-0.946124	0.443981
C	-1.999365	-0.116492	-1.437691
N	-3.16088	-0.284089	-1.386003
N	-0.201613	1.337716	-2.114295
O	-0.900607	1.631897	-3.07949
O	0.749093	1.963978	-1.677038
N	-0.568797	1.151391	0.693441
H	-0.999686	0.870579	1.562266
H	0.179211	1.800489	0.901776
Br	3.584772	0.0	0.0
