14

C	-0.55961	0.030836	-1.411049
C	0.0	0.0	0.0
Cl	0.165915	-1.238195	-2.415202
H	1.090358	0.0	0.0
H	-0.322478	-0.950282	0.43727
C	-2.013785	-0.118727	-1.407887
N	-3.172719	-0.285973	-1.326662
N	-0.248381	1.368644	-2.090636
O	0.71256	1.990158	-1.671522
O	-0.97518	1.677631	-3.029975
N	-0.567295	1.141288	0.713031
H	0.176148	1.805853	0.891873
H	-0.949362	0.852308	1.599164
Br	3.582795	0.0	0.0
