14

C	-0.574072	-0.028167	-1.415409
C	0.0	0.0	0.0
Cl	-2.342111	0.195716	-1.359378
H	1.093602	0.0	0.0
H	-0.323095	0.954868	0.435065
C	-0.013929	1.00012	-2.283341
N	0.377833	1.859977	-2.981316
N	-0.257844	-1.397656	-2.044869
O	0.907582	-1.513529	-2.395023
O	-1.137782	-2.237802	-2.105846
N	-0.446711	-1.175473	0.721631
H	-1.245885	-0.984891	1.306063
H	0.316347	-1.515786	1.291168
Br	3.518949	0.0	0.0
