15

C	-0.44349	-0.049652	-1.449627
C	0.0	0.0	0.0
F	-0.174231	1.140975	-2.089138
H	1.091064	0.0	0.0
H	0.162191	-0.824934	-1.929767
C	-1.863684	-0.389574	-1.649238
N	-2.960606	-0.748049	-1.858895
C	-0.46996	-1.209074	0.79388
H	-1.560184	-1.255756	0.860224
H	-0.096629	-2.119741	0.319476
H	-0.037975	-1.159837	1.794415
N	-0.530069	1.222304	0.664162
O	-1.629456	1.640124	0.291269
O	0.129825	1.694837	1.582505
Cl	3.297101	0.0	0.0
