15

C	-0.521988	-0.024125	-1.432802
C	0.0	0.0	0.0
F	-0.122186	-1.21286	-2.020366
H	1.090983	0.0	0.0
H	-1.613643	0.00056	-1.452053
C	-0.021408	1.103975	-2.233149
N	0.31945	2.009135	-2.897305
C	-0.526249	-1.172528	0.808288
H	-1.620228	-1.164095	0.853629
H	-0.116662	-1.121639	1.817877
H	-0.187363	-2.101125	0.349541
N	-0.479238	1.259384	0.642353
O	0.193266	1.718767	1.556909
O	-1.552208	1.733075	0.243254
Cl	3.307691	0.0	0.0
