15

C	-0.522152	-0.023753	-1.432672
C	0.0	0.0	0.0
F	-0.122445	-1.212436	-2.020446
H	1.090965	0.0	0.0
H	-1.613811	0.00102	-1.451793
C	-0.021571	1.104298	-2.233111
N	0.319471	2.009291	-2.897441
C	-0.525962	-1.172877	0.80806
H	-0.187643	-2.101337	0.348603
H	-1.619921	-1.164192	0.854237
H	-0.115594	-1.122513	1.817354
N	-0.479665	1.258777	0.643189
O	-1.551862	1.733119	0.242686
O	0.190578	1.716007	1.560714
Cl	3.306606	0.0	0.0
