12
Coordinates from ORCA-job run
  C   -1.25285101834547      0.17539390307745      0.35102576999439
  C   0.10482028298499      0.26072585221703     -0.29701893875577
  Cl  -2.43358244451485     -0.35534682232346     -0.86322819060665
  H   0.13287933082184      0.92994469018262     -1.15693144333546
  H   -1.23175232146539     -0.54775007158184      1.16407139477396
  H   -1.54659562200921      1.15420406924142      0.71991771333961
  N   0.55878139833886     -1.08595232877246     -0.76910497860676
  O   0.91349101752895     -1.17347532310412     -1.93856451556116
  O   0.53435298483590     -1.97788374036983      0.07176835245464
  N   1.15289467581734      0.74275541955457      0.68106737212308
  O   0.75689625807288      1.44765210948810      1.60239638494344
  O   2.30966545793414      0.42973224239052      0.43560107923665
