12
Coordinates from ORCA-job run
  C   -1.26681277227430      0.32886724232451      0.13445076109834
  C   0.16851028203100     -0.05910505330190      0.37342803142604
  Cl  -2.31374245176523     -0.99874039333441      0.67611628466913
  H   0.38935469143071     -0.31145610396751      1.40973527611395
  H   -1.43409805246121      0.50407906703396     -0.92596633533835
  H   -1.50964327916652      1.22086018293276      0.70667535609002
  N   1.11923157565116      1.03998836197464     -0.03547781083867
  O   2.30647460412546      0.74167313971341     -0.01722492459963
  O   0.63381934221348      2.12813633176061     -0.32473360969725
  N   0.54660274632666     -1.24766393910899     -0.46021887988120
  O   0.99370788269316     -2.22280101777412      0.13044725140985
  O   0.36759543119562     -1.12283781825297     -1.66723140045223
