12
Coordinates from ORCA-job run
  C   -1.26842427405295      0.16462209137597      0.35521280900988
  C   0.21847710890628     -0.10976213214898      0.34251287133283
  Cl  -1.90752073383325      0.76007958068835     -1.18221263000220
  H   0.56380833524607     -0.32141559007136      1.35563607063528
  H   -1.78867329175661     -0.75755307548459      0.61859281687523
  H   -1.45984421994292      0.92271901157295      1.11213245217445
  N   1.00873567675184      1.09115788606823     -0.11736302932456
  O   0.65203258788007      2.14879454646889      0.38537624987939
  O   1.95230869664133      0.90627096836269     -0.87119119479242
  N   0.59120282821786     -1.30369835730692     -0.47572931617817
  O   1.09239650872132     -2.23633943499790      0.15042194281503
  O   0.34650077722096     -1.26587549452733     -1.67438904242473
