12
Coordinates from ORCA-job run
  C   -1.22639766439298      0.38359892440327      0.22662440645171
  C   0.17715593502442     -0.14904895268462      0.33953073398549
  Cl  -2.36897964467244     -0.84183497150933      0.80452052667900
  H   0.41882101353274     -0.55438482637159      1.31870083300537
  H   -1.32370598694889      1.26905850124627      0.85544112263870
  H   -1.45246163591456      0.61755034283304     -0.81127098040058
  N   1.14790739186031      0.96465289241294      0.06031577087314
  O   1.22015958265900      1.34454421174187     -1.10348722037979
  O   1.73862976570876      1.42164162704040      1.03240454563733
  N   0.46889748777993     -1.22916500058911     -0.66603343668910
  O   -0.21665417704257     -1.27168060242504     -1.67960864602341
  O   1.41662793240629     -1.95493214609809     -0.37913765577786
