12
Coordinates from ORCA-job run
  C   -1.28835678979167      0.36113891432666     -0.06201134965750
  C   0.04970166368599     -0.17734667115196      0.38807683506269
  Cl  -1.22538103939268      1.27586721884321     -1.57422390747020
  H   -0.01220339284660     -0.47743376779056      1.43436264738739
  H   -1.65202040743095      1.03017337316491      0.71770713781523
  H   -1.97597320453619     -0.47407032931447     -0.19183683252217
  N   1.10791552411002      0.88339484193324      0.31743634675539
  O   1.07551326674288      1.69429268279468      1.23747916087971
  O   1.90769568920401      0.83964184791009     -0.60746997915541
  N   0.54425036784295     -1.35823783085850     -0.37684883989496
  O   -0.03619626833952     -1.66616493519433     -1.41338322034745
  O   1.50505459075176     -1.93025534466296      0.12971200114730
