12
Coordinates from ORCA-job run
  C   -1.22747249543528      0.14881066666817      0.49174519518203
  C   0.25334550106458     -0.10360997121330      0.34261762124701
  Cl  -2.05188705227481      0.33600716316626     -1.06288705635078
  H   0.68885699263464     -0.44695014495305      1.28195019544303
  H   -1.66308721121735     -0.70859657498094      1.00359922376403
  H   -1.37843285093940      1.05429558942650      1.07748635378252
  N   1.05452843143351      1.09639988271792     -0.06626789955435
  O   0.45416793393647      2.12366548801320     -0.36015787594514
  O   2.26891913059809      0.92918075811392     -0.04256579114472
  N   0.49649577847837     -1.20544702102107     -0.65558163158713
  O   0.14619198366604     -2.31093018453190     -0.26060814156804
  O   0.95637385805515     -0.91282565140571     -1.74833019326846
