13

C	0.0	0.0	0.0
C	-0.493305	-0.200569	-1.408885
Cl	1.774648	0.0	0.0
H	0.301467	-0.041537	-2.145421
H	-0.372067	-0.790957	0.634075
H	-0.346736	0.95751	0.361555
N	-1.543013	0.80068	-1.828697
O	-2.397359	0.458632	-2.629827
O	-1.260803	1.958615	-1.530073
N	-0.931087	-1.612409	-1.69146
O	-1.073927	-2.40891	-0.77355
O	-1.033586	-1.885686	-2.887093
F	-2.401026	0.0	0.0
