13

C	0.0	0.0	0.0
C	-0.331472	-0.166045	-1.472156
Cl	1.772328	0.0	0.0
H	0.314104	0.469301	-2.077305
H	-0.380442	0.94696	0.356484
H	-0.395193	-0.818559	0.580552
N	-1.712989	0.159844	-1.995379
O	-2.367603	-0.74813	-2.490104
O	-1.893184	1.361286	-2.165458
N	-0.007429	-1.555109	-1.943762
O	-0.118088	-2.490759	-1.159616
O	0.344896	-1.647502	-3.119568
F	-2.371284	0.0	0.0
