13

C	0.0	0.0	0.0
C	-0.570412	-0.00715	-1.388689
Cl	1.769628	0.0	0.0
H	-1.711627	-0.172925	-1.076908
H	-0.378391	0.876619	0.510055
H	-0.359335	-0.891685	0.500928
N	0.097743	-1.044629	-2.21077
O	-0.049489	-2.20067	-1.816619
O	0.791012	-0.7148	-3.172387
N	-0.461748	1.285691	-2.100524
O	-1.017287	1.345237	-3.196209
O	0.116229	2.226455	-1.553694
F	-2.618008	0.0	0.0
