14

C	-0.524258	-0.053395	-1.431996
C	0.0	0.0	0.0
Cl	-0.340875	1.584464	-2.142791
H	1.08856	0.0	0.0
H	-1.599527	-0.245386	-1.424703
H	-0.416471	0.847857	0.540285
C	0.233666	-1.064785	-2.268789
H	1.301649	-0.840216	-2.228312
H	-0.111536	-1.052223	-3.304323
H	0.084014	-2.066486	-1.858187
N	-0.510485	-1.21494	0.695385
O	0.218761	-2.201512	0.77687
O	-1.674125	-1.163397	1.110126
Br	3.580287	0.0	0.0
