14

C	-0.411832	0.034925	-1.458023
C	0.0	0.0	0.0
Cl	-2.21194	0.029016	-1.621395
H	1.091437	0.0	0.0
H	-0.086759	-0.925985	-1.863318
H	-0.396313	-0.878854	0.50333
C	0.194164	1.153961	-2.279386
H	-0.207854	2.121719	-1.987143
H	1.27286	1.155341	-2.102199
H	-0.005145	0.986933	-3.340237
N	-0.492429	1.16399	0.772403
O	-0.134003	2.286136	0.416585
O	-1.233796	0.938056	1.732345
Br	3.500248	0.0	0.0
