14

C	-0.423752	-0.014189	-1.453111
C	0.0	0.0	0.0
Cl	-2.229749	-0.00992	-1.590371
H	1.091424	0.0	0.0
H	-0.116479	-0.995489	-1.823036
H	-0.385942	-0.866285	0.532825
C	0.182023	1.061192	-2.3326
H	-0.206274	2.044904	-2.079338
H	1.264029	1.058631	-2.172578
H	-0.034477	0.846082	-3.381067
N	-0.48307	1.179373	0.757296
O	-1.074706	0.966015	1.816478
O	-0.252476	2.297511	0.300385
Br	3.494231	0.0	0.0
