13
Coordinates from ORCA-job run
  C   -0.26250652843301      0.26860336338369      0.12446441965505
  C   1.05926336499816      0.18219834918152      0.32232367423441
  H   1.61338344638325      0.88600686110255      0.92754188017490
  C   -1.19619597990657     -0.62021944485230     -0.61537994327524
  H   -2.11579004105041     -0.74600538013391     -0.04294559216206
  H   -0.73660094561534     -1.58548006849211     -0.80898886863480
  H   -1.46428168041879     -0.16506780895366     -1.57113120592601
  N   -0.88601680491696      1.48723689454320      0.70724327613275
  O   -0.28508090420250      2.09324900310430      1.58951667255614
  O   -1.97619383996825      1.80385004300877      0.23449963944333
  N   1.86462097563187     -0.92281403108359     -0.17169047062735
  O   1.55601706286875     -1.46459245709570     -1.23211418021675
  O   2.82838187462978     -1.21596532371276      0.53566069864561
