13
Coordinates from ORCA-job run
  C   -0.31169797320764     -0.04507641405700     -0.00394686659989
  C   0.86049704117620     -0.68439520724729     -0.02337160354780
  H   0.93899349175423     -1.76336548886648     -0.00609600242219
  C   -1.64857165284377     -0.70087460543317     -0.00958165473799
  H   -2.20516073372011     -0.38858751898279     -0.89644169365440
  H   -1.55295343243684     -1.78659794459562     -0.00922687307931
  H   -2.21485648262868     -0.39207044129022      0.87332411578566
  N   -0.39569729981636      1.42291622994762      0.01922857067370
  O   -0.24266020073798      1.96526252378110      1.10718624207517
  O   -0.69519625450790      1.95366889742186     -1.04411311525986
  N   2.15421623159208     -0.01849675071967     -0.00816131868309
  O   3.10774809266536     -0.73631680743231      0.29271250139389
  O   2.20533917271140      1.17493352747398     -0.29251230194389
