13
Coordinates from ORCA-job run
  C   -0.24099043181166      0.30364305517277      0.08403058328061
  C   1.08584916786241      0.26536230859224     -0.09500537210721
  H   1.72060593590662      1.13533509356280     -0.00056075281296
  C   -1.25812577384336     -0.77993302164346      0.05071946423202
  H   -1.97209764385654     -0.63862233773072      0.86268230544933
  H   -0.78506161719880     -1.75484792271616      0.12944171607917
  H   -1.81475595144947     -0.73930501059900     -0.88790775883429
  N   -0.78546645414073      1.66976465942685      0.30539174426020
  O   -1.98829848347096      1.80378252822598      0.08741133830321
  O   -0.02017064506239      2.55851441793247      0.66775948225621
  N   1.81831977104702     -0.96626164153263     -0.34026283979689
  O   1.27389454103282     -1.87461614085321     -0.96627602471954
  O   2.96629758498504     -0.98181598783793      0.10357611441014
