13
Coordinates from ORCA-job run
  C   -0.24399475104963      0.30373774706053      0.07219925995265
  C   1.07259809802516      0.27960303454699     -0.17251527329049
  H   1.68967323622406      1.16724137530361     -0.17543470403458
  C   -1.23451099812149     -0.79988825565638      0.17385745443625
  H   -1.84185159815085     -0.83980518436073     -0.73285716728183
  H   -1.90742838285414     -0.61371022588744      1.01146701311713
  H   -0.73435874715184     -1.75659681430900      0.29635588620378
  N   -0.81021742704470      1.67141359369808      0.21966086270257
  O   -2.02568177755351      1.76344887828559      0.05741333648569
  O   -0.04912463893592      2.60079142675974      0.47229066368606
  N   1.82242764202286     -0.95163148964480     -0.36074512086190
  O   1.27076996938829     -1.91644434788776     -0.88821110799012
  O   2.99069937520173     -0.90915973790842      0.02451889687479
