13
Coordinates from ORCA-job run
  C   -0.26120929799685      0.27953297824397     -0.10211071023640
  C   1.02766048424802      0.12599861070253     -0.43240372536380
  H   1.54869980755096      0.79489489057526     -1.10307618066464
  C   -1.15461876088564     -0.55418505435231      0.74399281000263
  H   -2.13193313085573     -0.64385501759523      0.26847795211345
  H   -0.72278190662458     -1.53757973284619      0.90794507397713
  H   -1.30416113880174     -0.07472017165261      1.71362287052863
  N   -0.88321760709635      1.51890215651641     -0.63988320407171
  O   -1.90303902254108      1.89420820532845     -0.06420512387269
  O   -0.34754298264123      2.08433517864827     -1.58868138279936
  N   1.82741045308245     -1.00921596243606     -0.00217154280508
  O   2.70053357344437     -1.35687886534476     -0.79709776639210
  O   1.60319952911740     -1.52143721578773      1.09359092958393
