13
Coordinates from ORCA-job run
  C   -0.30681399140769     -0.07022928077782     -0.00336554620615
  C   0.89816517659209     -0.52823925509389     -0.35156913133431
  H   1.03888100614503     -1.46019023832357     -0.88289266216849
  C   -1.59600362569583     -0.77739430732830     -0.23850976535088
  H   -2.07966904521343     -0.98346077930808      0.71937143018774
  H   -1.43826505514219     -1.71541093229676     -0.77061882019692
  H   -2.26356529835676     -0.14159368811986     -0.82642016948918
  N   -0.47998174084676      1.22053386586903      0.67918937544145
  O   -0.46784021407144      2.22128036496599     -0.02775664730704
  O   -0.70498240383319      1.15880681218894      1.88235572338777
  N   2.14361544422148      0.18584837431186     -0.11401700666729
  O   3.10998473096856     -0.21968528771220     -0.75949795483950
  O   2.14647501664015      1.11073435162467      0.69373117454281
