13
Coordinates from ORCA-job run
  C   -0.30837423042065     -0.05408419841190      0.00222796797910
  C   0.89096918956312     -0.64134163189447     -0.01563320536243
  H   1.01476912131915     -1.71605109184277     -0.03302055006892
  C   -1.61266038754495     -0.77310354720631      0.00454495227898
  H   -1.46649759762084     -1.85295794601469     -0.01576389895255
  H   -2.17815766453261     -0.50484208312347      0.90079693504781
  H   -2.19758683535284     -0.47408349305957     -0.86918862191850
  N   -0.46667120667286      1.40723462343745      0.02473520533570
  O   -0.58553005355315      1.95270817222092     -1.06581776522080
  O   -0.55409479008399      1.92282570846810      1.13264429371662
  N   2.15876825891896      0.07273054354898     -0.01954630227298
  O   2.14366679795722      1.30048199692953     -0.00811461080619
  O   3.16139939802345     -0.64151705305179     -0.03486439975586
