13
Coordinates from ORCA-job run
  C   -0.25990112916945      0.29722527140651      0.03220089726098
  C   1.06968182002302      0.27870492008096      0.19247494072539
  H   1.64963953347885      1.16082905059027      0.42515003959784
  C   -1.21007802721145     -0.78373943831553     -0.33979136580052
  H   -1.94162470847720     -0.40042420212628     -1.05178045041669
  H   -1.75583428971946     -1.12007552883096      0.54424913507107
  H   -0.68083712838913     -1.63335036997896     -0.76226941986306
  N   -0.88909584531743      1.61433638835374      0.32063587452305
  O   -2.09337992069269      1.58481465768593      0.56735730096909
  O   -0.18437123752464      2.61929699052951      0.31035125105672
  N   1.87838616855587     -0.90970750280699     -0.02520790258734
  O   1.40042954004220     -2.01563928790596      0.22341490585906
  O   3.01698522440152     -0.69127094868226     -0.43878520639559
