13
Coordinates from ORCA-job run
  C   -0.26230609045406      0.29676779040950     -0.02245310081538
  C   1.05890750439372      0.28165722974765     -0.24104366684655
  H   1.61605511231545      1.15196205498275     -0.55856041551902
  C   -1.19667280194341     -0.79468305613431      0.35863458008665
  H   -0.74268907392820     -1.76719075813937      0.18925317707322
  H   -1.45414101519795     -0.71228033132038      1.41670387271782
  H   -2.12103990224809     -0.70337291439988     -0.21244372359988
  N   -0.88277505800888      1.64399753845326     -0.13719368982498
  O   -0.27692777046501      2.52265645049757     -0.74349132682358
  O   -1.97458925942647      1.77441535834850      0.41330995324439
  N   1.86093968041018     -0.92878837383651     -0.16662313150936
  O   1.54982044756598     -1.80682280140535      0.63689857798006
  O   2.82441822698675     -0.95831818720342     -0.93199110616338
