13
Coordinates from ORCA-job run
  C   -0.30910229216812     -0.05295352520172      0.02805186941025
  C   0.87439491368034     -0.65958208698091     -0.09249613914176
  H   0.97621752215726     -1.73398124459505     -0.16992057500373
  C   -1.62368390696717     -0.74625394424514      0.12078335195001
  H   -2.27715545612198     -0.40839488482308     -0.68815787691237
  H   -2.10201667035137     -0.49620622716573      1.07086508955653
  H   -1.50325710282784     -1.82734169420559      0.05266672590944
  N   -0.43007820811822      1.41120996062895      0.08968486467142
  O   -0.40787081983675      2.00907388665425     -0.97955462966474
  O   -0.62675349543417      1.88130872859032      1.20423880948440
  N   2.14660394845060      0.04041982779282     -0.18632597015573
  O   2.18997329369840      1.22595552078118      0.13085235688152
  O   3.09172827383902     -0.64225431723030     -0.58068787698524
