13
Coordinates from ORCA-job run
  C   -0.24716870208602      0.30754201061504     -0.03104858733152
  C   1.06625024917535      0.21600672779374     -0.27592704166852
  H   1.67022286352452      1.05777875890284     -0.58464336965829
  C   -1.21934490965205     -0.70867928863731      0.44990467898167
  H   -1.86118368430801     -0.27024989500263      1.21489102122304
  H   -0.70332620897485     -1.57961969589344      0.84429340091356
  H   -1.86155161726011     -1.02753227887655     -0.37361078365260
  N   -0.83208693569431      1.64216187446682     -0.33129571009240
  O   -2.05422170268891      1.66881726914275     -0.46578344652687
  O   -0.07959875258164      2.60606349341644     -0.43754713471101
  N   1.83152817106692     -1.00093165261133     -0.05713479200990
  O   1.29327775678808     -2.09117816984342     -0.24348751571563
  O   2.99820347269102     -0.82117915347296      0.29138928024845
