13
Coordinates from ORCA-job run
  C   -0.24984516504635      0.30631060742611     -0.02439230328203
  C   1.00775077605085      0.17071727087519     -0.46404026291229
  H   1.55176442716456      0.96549585857166     -0.95504218467372
  C   -1.12886939077502     -0.63757544842376      0.71455969998976
  H   -1.87972140423799     -1.05387420684276      0.03977575132753
  H   -1.65806779012362     -0.10319683457435      1.50429132176292
  H   -0.55059301351108     -1.45607079815529      1.13406190679304
  N   -0.88050837170008      1.60675003163811     -0.37588305813798
  O   -2.10952459003865      1.62813579828927     -0.33937537891709
  O   -0.15696538747577      2.54791762091615     -0.68773409389639
  N   1.80205559588263     -1.02564795401160     -0.23589421833432
  O   3.00952543986599     -0.82697804533435     -0.10435533299551
  O   1.24299887394453     -2.12098390037439     -0.20597184672390
