13
Coordinates from ORCA-job run
  C   -0.30431351681254     -0.03596681417256      0.07010896149824
  C   0.84216441966857     -0.70107166765941     -0.09213580473677
  H   0.90744253061956     -1.77889213865526     -0.02352728065748
  C   -1.61563118856397     -0.65489801115058      0.40928222435555
  H   -1.97261210327302     -0.25589158706703      1.36179914267088
  H   -2.35113553670210     -0.40542525296915     -0.36040149395545
  H   -1.53126519092129     -1.73905933188170      0.48255472088681
  N   -0.38286682443263      1.42547745777430     -0.07039199883819
  O   -0.44111389045819      2.05711364275830      0.97835548321610
  O   -0.46831167648047      1.86369891498533     -1.21138822815923
  N   2.11101151180737     -0.07321675555034     -0.42815272947426
  O   2.98726843992723     -0.84230978855682     -0.82270132414425
  O   2.21936302562148      1.14244133214494     -0.29240167266194
