13
Coordinates from ORCA-job run
  C   -0.24574198619212      0.30776646840820     -0.04075664933823
  C   1.07171070311134      0.20702012353759     -0.25966173615088
  H   1.68312286159404      1.03956117615519     -0.57859948708910
  C   -1.23007543963418     -0.69415065542730      0.44570623405752
  H   -1.89732541270276     -0.23031567618940      1.17294557146076
  H   -1.84407894957378     -1.04586499725663     -0.38601374794236
  H   -0.72497581334069     -1.54838879155270      0.88781796164375
  N   -0.82070352393136      1.63553744416474     -0.38728612928630
  O   -2.03784778985814      1.65858507550156     -0.56094706415397
  O   -0.06452568743720      2.59713825412469     -0.48884444585434
  N   1.82975610217798     -1.00611987719742      0.00063743655318
  O   2.99490709721066     -0.82161227202832      0.35195531624162
  O   1.28777783857621     -2.09915627224021     -0.15695326014164
