13
Coordinates from ORCA-job run
  C   -0.30905366271161     -0.05931905974774      0.00606380945871
  C   0.86348102013332     -0.53583261561106     -0.41953140368432
  H   0.94835804745306     -1.43879023498055     -1.00959400720120
  C   -1.63083169112148     -0.70878359970581     -0.21407181769628
  H   -2.08366804951975     -0.95045779094011      0.75057564725636
  H   -1.52722116632950     -1.62138118672864     -0.80086400876130
  H   -2.29793994939346     -0.02018336467784     -0.73970123825043
  N   -0.40836783084628      1.19410870030141      0.76820767463576
  O   -0.39254353326311      2.23336451784360      0.11919127990457
  O   -0.58234605544147      1.06996829244004      1.97499783060046
  N   2.14284819550769      0.12040238159740     -0.19549692080625
  O   2.21025659078139      0.99941138660544      0.65938558444123
  O   3.06802808475120     -0.28250742639615     -0.90016242989733
