16

C	0.0	0.0	0.0
C	-0.395828	-0.279412	-1.463764
Br	1.974678	0.0	0.0
H	0.171983	-1.102809	-1.824193
N	-0.439302	1.194395	0.585805
H	-0.21018	1.91742	-0.047774
H	-0.018944	1.368553	1.475559
C	-0.341642	-1.100988	0.88804
N	-0.456484	-1.867948	1.734751
N	0.215447	0.949713	-2.285435
O	0.149358	2.10519	-1.857083
O	-0.215884	0.665914	-3.590843
N	-1.741644	-0.253382	-2.039084
H	-2.024345	-1.255109	-2.122809
H	-1.021199	0.154561	-3.211815
Br	-3.192951	0.0	0.0
