16

C	0.0	0.0	0.0
C	-0.584057	-0.285595	-1.418423
Br	1.959715	0.0	0.0
H	-1.572207	-0.721035	-1.23768
N	-0.486344	1.278804	0.434301
H	-1.512344	1.211456	0.394044
H	-0.224488	1.41231	1.406576
C	-0.321806	-1.097333	0.934814
N	-0.525174	-1.901873	1.76908
N	0.241071	-1.374166	-2.064566
O	0.147933	-2.486354	-1.547171
O	0.951853	-1.092072	-3.021251
N	-0.71358	0.835159	-2.269677
H	-1.621326	1.24653	-2.096283
H	0.005157	1.522667	-2.092137
Br	-3.635135	0.0	0.0
