18

C	-0.488252	-0.036946	-1.467996
C	0.0	0.0	0.0
Br	0.006591	1.670255	-2.311358
H	1.092103	0.0	0.0
C	0.294709	-1.141609	-2.168263
H	0.060513	-1.143105	-3.235224
H	1.367876	-0.996142	-2.023962
H	0.010606	-2.111633	-1.747612
C	-1.991631	-0.208298	-1.619037
H	-2.541277	0.605063	-1.146797
H	-2.300368	-1.150501	-1.15672
H	-2.246173	-0.238138	-2.680735
C	-0.472888	-1.195087	0.693822
N	-0.838034	-2.185231	1.210652
N	-0.517405	1.198542	0.744853
O	0.255309	2.131067	0.919254
O	-1.697268	1.162109	1.104401
Br	3.419379	0.0	0.0
