18

C	-0.347507	0.002824	-1.4988
C	0.0	0.0	0.0
Br	-2.314764	0.075514	-1.730626
H	1.094857	0.0	0.0
C	0.270669	1.190171	-2.220196
H	-0.162283	2.137003	-1.905254
H	1.341819	1.201427	-1.996626
H	0.117372	1.071219	-3.294719
C	0.167397	-1.304119	-2.088106
H	-0.318565	-2.171508	-1.639971
H	1.244857	-1.356532	-1.898414
H	-0.013615	-1.318245	-3.16436
C	-0.50469	-1.17453	0.695575
N	-0.863624	-2.149115	1.244563
N	-0.467114	1.235633	0.708475
O	0.135333	2.273122	0.445997
O	-1.416666	1.136552	1.484704
Br	3.380328	0.0	0.0
