18

C	-0.500964	-0.018551	-1.461777
C	0.0	0.0	0.0
Br	0.090983	1.646875	-2.325547
H	1.092081	0.0	0.0
C	0.203085	-1.176366	-2.160492
H	1.28409	-1.103264	-2.01804
H	-0.030258	-1.1615	-3.227282
H	-0.148877	-2.123859	-1.739302
C	-2.01398	-0.093411	-1.598712
H	-2.503413	0.770707	-1.150382
H	-2.384036	-0.996352	-1.103454
H	-2.278167	-0.137553	-2.657584
C	-0.482734	-1.192526	0.690701
N	-0.856142	-2.178326	1.20986
N	-0.50196	1.200948	0.754214
O	0.27368	2.135898	0.903922
O	-1.671687	1.164401	1.146072
Br	3.41349	0.0	0.0
