18

C	-0.490712	-0.024591	-1.467216
C	0.0	0.0	0.0
Br	0.00988	1.685768	-2.301919
H	1.092118	0.0	0.0
C	0.285427	-1.128241	-2.176912
H	1.359908	-0.988273	-2.033948
H	0.049233	-1.120111	-3.24329
H	-0.002401	-2.100818	-1.763331
C	-1.995268	-0.187098	-1.617863
H	-2.540825	0.626949	-1.141076
H	-2.30949	-1.130185	-1.160036
H	-2.249918	-0.209747	-2.679846
C	-0.473551	-1.199369	0.685503
N	-0.838494	-2.193492	1.194684
N	-0.515688	1.193605	0.754744
O	0.257252	2.12598	0.932264
O	-1.694647	1.153828	1.117983
Br	3.418091	0.0	0.0
