15

C	-0.45132	-0.037746	-1.440579
C	0.0	0.0	0.0
F	-1.843934	-0.294287	-1.50829
H	1.093577	0.0	0.0
H	-0.321148	-0.951913	0.447458
C	-0.264188	1.269948	-2.097654
N	-0.15562	2.280963	-2.683692
C	0.276604	-1.126308	-2.201894
H	1.353711	-0.951838	-2.116986
H	0.04556	-2.089709	-1.741428
H	-0.036767	-1.145482	-3.248016
N	-0.500251	1.175628	0.703484
H	0.25946	1.54752	1.259509
H	-1.265088	0.938602	1.319772
H	2.949917	0.0	0.0
