15

C	-0.570468	0.00658	-1.408646
C	0.0	0.0	0.0
F	-0.125392	1.160782	-2.066266
H	1.098983	0.0	0.0
H	-0.351646	-0.91138	0.498637
C	-0.084934	-1.15652	-2.181147
N	0.290999	-2.097638	-2.771946
C	-2.090055	0.037915	-1.444
H	-2.419007	0.875377	-0.831875
H	-2.43712	0.156505	-2.472509
H	-2.497304	-0.889086	-1.033563
N	-0.519288	1.181874	0.719886
H	-0.317623	1.02422	1.701929
H	0.097685	1.943989	0.451794
H	2.983571	0.0	0.0
