15

C	-0.573504	-0.021177	-1.407901
C	0.0	0.0	0.0
F	-0.085879	1.0833	-2.112089
H	1.098477	0.0	0.0
H	-0.358951	0.921308	0.472945
C	-0.1406	-1.235145	-2.135967
N	0.120878	-2.196047	-2.75808
C	-2.090407	0.057101	-1.430885
H	-2.503438	-0.773347	-0.857631
H	-2.462658	0.029657	-2.458098
H	-2.392765	1.002539	-0.970518
N	-0.502786	-1.185611	0.724803
H	-0.633532	-0.934359	1.696546
H	0.262372	-1.855384	0.723538
H	2.979928	0.0	0.0
