15

C	-0.435082	0.019556	-1.450581
C	0.0	0.0	0.0
F	-0.153617	-1.235946	-2.011978
H	1.100961	0.0	0.0
H	-0.345637	0.928564	0.468492
C	-1.896318	0.208004	-1.591053
N	-3.042983	0.417563	-1.73291
C	0.341534	1.059946	-2.233839
H	0.111511	0.979423	-3.298626
H	0.085741	2.063519	-1.886011
H	1.405012	0.881823	-2.049159
N	-0.611523	-1.144024	0.687719
H	-0.355625	-1.06904	1.666741
H	-0.123435	-1.966237	0.34804
H	3.043118	0.0	0.0
