15

C	-0.577762	0.000723	-1.406497
C	0.0	0.0	0.0
F	-0.130263	1.141457	-2.078739
H	1.09252	0.0	0.0
H	-0.350733	0.919795	0.483344
C	-0.120618	-1.174985	-2.176212
N	0.196101	-2.091383	-2.837714
C	-2.096672	0.035109	-1.417687
H	-2.474117	0.041766	-2.443277
H	-2.479088	-0.835275	-0.885511
H	-2.425512	0.946626	-0.911526
N	-0.476839	-1.207446	0.699684
H	-0.860544	-0.954057	1.599831
H	0.349532	-1.767868	0.887229
H	2.957725	0.0	0.0
