15

C	-0.433224	-0.038893	-1.457685
C	0.0	0.0	0.0
F	-0.113602	-1.293135	-1.989994
H	1.093654	0.0	0.0
H	-0.349646	0.946435	0.428886
C	-1.900314	0.097152	-1.586089
N	-3.059584	0.254667	-1.686498
C	0.300786	1.013221	-2.26737
H	0.087478	0.892777	-3.332545
H	-0.006663	2.013269	-1.952473
H	1.369952	0.889591	-2.069848
N	-0.579619	-1.132919	0.726486
H	0.122373	-1.864378	0.731872
H	-0.700864	-0.859781	1.69306
H	3.034388	0.0	0.0
