14

C	-0.440624	0.023838	-1.472299
C	0.0	0.0	0.0
Cl	0.077043	-1.530704	-2.215828
H	1.093728	0.0	0.0
H	-0.355933	-0.910292	0.487652
C	-1.89991	0.08593	-1.591424
N	-3.068726	0.149699	-1.681685
C	0.226025	1.175809	-2.209494
H	1.304517	1.08719	-2.073029
H	-0.025103	1.14271	-3.269641
H	-0.112329	2.124928	-1.78631
C	-0.504307	1.170943	0.706642
N	-0.910086	2.123881	1.260441
Br	3.49697	0.0	0.0
