14

C	-0.401692	-0.067433	-1.478383
C	0.0	0.0	0.0
Cl	-2.20135	-0.23103	-1.644713
H	1.095019	0.0	0.0
H	-0.364334	0.918574	0.465079
C	-0.049333	1.198634	-2.125743
N	0.201851	2.220675	-2.647944
C	0.281329	-1.237129	-2.171477
H	0.033993	-1.253773	-3.233849
H	1.361343	-1.128137	-2.032752
H	-0.046209	-2.170681	-1.710382
C	-0.486359	-1.157297	0.739405
N	-0.884554	-2.089548	1.331721
Br	3.451871	0.0	0.0
