14

C	-0.436109	0.061314	-1.470749
C	0.0	0.0	0.0
Cl	-0.060438	-1.501868	-2.272638
H	1.093638	0.0	0.0
H	-0.315784	0.931668	0.48368
C	-1.881001	0.274856	-1.589284
N	-3.03265	0.491799	-1.675708
C	0.343389	1.168977	-2.169391
H	0.091516	2.129941	-1.715036
H	1.409335	0.978617	-2.025862
H	0.099949	1.199734	-3.232829
C	-0.566974	-1.122291	0.732055
N	-1.049352	-2.007829	1.33308
Br	3.480296	0.0	0.0
