14

C	-0.437357	0.064606	-1.470682
C	0.0	0.0	0.0
Cl	-0.072434	-1.500627	-2.273074
H	1.093797	0.0	0.0
H	-0.314962	0.931244	0.484895
C	-1.881916	0.286794	-1.587776
N	-3.03249	0.512988	-1.669024
C	0.348038	1.16768	-2.172795
H	1.41383	0.969334	-2.035502
H	0.098931	1.199475	-3.234429
H	0.106282	2.132076	-1.717521
C	-0.567019	-1.123143	0.730944
N	-1.049485	-2.009926	1.330194
Br	3.48709	0.0	0.0
