14

C	-0.403526	-0.065454	-1.477848
C	0.0	0.0	0.0
Cl	-2.204644	-0.208865	-1.643257
H	1.094984	0.0	0.0
H	-0.362712	0.918958	0.466093
C	-0.035672	1.195418	-2.127738
N	0.233814	2.213231	-2.649759
C	0.264912	-1.244666	-2.169909
H	1.34626	-1.150609	-2.029856
H	-0.076518	-2.173399	-1.709389
H	0.018201	-1.258445	-3.232802
C	-0.488615	-1.156551	0.739085
N	-0.894791	-2.086294	1.329891
Br	3.448671	0.0	0.0
