14

C	-0.402712	-0.017212	-1.479543
C	0.0	0.0	0.0
Cl	-2.203157	-0.167395	-1.649281
H	1.095461	0.0	0.0
H	-0.364323	0.902312	0.496185
C	-0.04334	1.266955	-2.086829
N	0.22523	2.295895	-2.586102
C	0.273978	-1.167722	-2.211609
H	1.355013	-1.069415	-2.070673
H	0.026168	-1.14758	-3.273631
H	-0.059812	-2.114265	-1.781491
C	-0.486954	-1.181395	0.700337
N	-0.885176	-2.128497	1.267493
Br	3.449446	0.0	0.0
