16
Coordinates from ORCA-job run
  C   0.83851615130415      0.19132156234394     -0.00861453080985
  C   -0.62546724205645     -0.30819924030454      0.03243008497353
  Cl  1.67276103995995     -0.27427772689230      1.47369160172209
  H   -1.06118325046130      0.08357351675199     -0.89941847214765
  N   1.59043170093927     -0.24630037264018     -1.13551664958391
  H   1.19943050942864      0.17307220651777     -1.97162567858854
  H   1.47296957827714     -1.25313320660595     -1.18722329671857
  N   0.75160814944308      1.72143785079831     -0.10137342373224
  O   0.86256981175872      2.39722292446852      0.91251667011136
  O   0.48412374066524      2.14576227268296     -1.22307801371432
  N   -1.30531427232654      0.13675877891060      1.23393440544840
  H   -2.30557480261763      0.16427364422266      1.08447527088587
  H   -0.99903099338388      1.04940657701686      1.54756031844112
  N   -0.59165049371673     -1.75168570061148     -0.08428782876211
  H   -1.43459100557925     -2.09207844581405     -0.52773957324664
  H   -0.54959862163440     -2.13615464084510      0.85326911572145
