16
Coordinates from ORCA-job run
  C   0.65400652303861      0.39069317502510      0.20552219342559
  C   -0.80567273618756     -0.07107009252288      0.38430952710023
  Cl  1.24205816241320      1.21090730057482      1.66888685323840
  H   -1.39592434464897      0.79459030793285      0.69623168169930
  N   1.47746692831434     -0.69496742839312     -0.12256781757566
  H   2.42435983706260     -0.40222148127242     -0.32496700031736
  H   1.06413291058304     -1.16347508458797     -0.92344002637392
  N   0.68126806194788      1.50403087328987     -0.88479293248119
  O   -0.30128539615269      2.23472300029554     -0.96816877718950
  O   1.69261835641194      1.57290333939033     -1.57218683445946
  N   -0.94034553798273     -1.10758944680953      1.37864169943452
  H   -0.92233354921526     -0.70676707371469      2.30671851376869
  H   -0.15974983103164     -1.75053822116939      1.29986911147423
  N   -1.20172360086171     -0.62268553367605     -0.90773723931922
  H   -1.57174232399073      0.10739661412183     -1.50454672511489
  H   -1.93613345970031     -1.29693024848429     -0.73077222730975
