16
Coordinates from ORCA-job run
  C   0.92686751658648      0.17149291754978     -0.01075124066632
  C   -0.39581781334835     -0.39791140210003      0.55479294349714
  Cl  2.28507795410189     -0.49702773011214      0.90111902291307
  H   -0.34107150403902     -0.35007633078770      1.64739808024923
  N   1.15127277658711     -0.01511537645480     -1.39541039735916
  H   1.28856089909194     -1.00245852615488     -1.57095802781362
  H   0.35291369360473      0.33292839152923     -1.91450579312643
  N   0.87793520995741      1.67952019223213      0.27287825355983
  O   0.94140344962410      2.44915029156764     -0.67530398742884
  O   0.69762324725211      1.98896284616622      1.44795408522561
  N   -0.47595070671793     -1.77847868019460      0.14599583977062
  H   -0.98497268596569     -2.33481800563491      0.81762940766239
  H   -0.93203815619875     -1.84319073390255     -0.75580001812029
  N   -1.47961149957260      0.39459828023240     -0.02552768511149
  H   -1.55711229399690      1.29573896206321      0.43416738293439
  H   -2.35508008696653     -0.09231509599898      0.12532213381390
