16
Coordinates from ORCA-job run
  C   0.77551096007191      0.04996151197278      0.05206628349536
  C   -0.73987699017732     -0.20018522924603      0.02767411333210
  Cl  1.50176788519260     -0.47607958473962      1.56076121296948
  H   -1.06864942972013      0.18691864156690     -0.94844257283750
  N   1.40466974979652     -0.60873035282948     -1.04226891861380
  H   1.11775358690978     -0.16070926574561     -1.90582913354109
  H   2.41377326475997     -0.57130059597413     -0.96216653317721
  N   0.92489516693527      1.59649644480695     -0.05942336415346
  O   1.31969024714363      2.25976686097604      0.88147565492663
  O   0.59812018506519      2.02198864977976     -1.16677332022901
  N   -1.36765072901572      0.61652060103913      1.03440475387600
  H   -1.28826820267093      0.14929043367001      1.93058512038843
  H   -2.34790943796334      0.75186578821956      0.82715012070237
  N   -0.96286535625910     -1.62429139169946      0.20644724195864
  H   -0.35425608358758     -2.14613710950077     -0.41460990382805
  H   -1.92470481648075     -1.84437540229603     -0.02205075526889
