16
Coordinates from ORCA-job run
  C   0.74603814860983      0.44199823741995      0.09945591615682
  C   -0.67733590872837     -0.02902980060861      0.42948731999346
  Cl  1.40000308222661      1.34510043454169      1.56679574289385
  H   -1.20320646199414      0.82299539371018      0.87058278491863
  N   1.57139777655195     -0.57692707199943     -0.31798828950490
  H   1.18881797116651     -1.50126982393055     -0.20679217307543
  H   2.12397575985581     -0.39268064485266     -1.13803666674706
  N   0.62126685740387      1.53902905282906     -0.96747646468754
  O   1.34029279153912      1.44283145989002     -1.95451752642863
  O   -0.18756672991449      2.42598375042277     -0.74472886728294
  N   -0.55355760744312     -1.19216464269655      1.29950048400112
  H   -1.48018729871159     -1.51315076350078      1.55382496392796
  H   -0.06133478916486     -0.94841717089099      2.15272423170956
  N   -1.32235583166989     -0.36866478632535     -0.81731228810944
  H   -1.19874299359525     -1.35125794092766     -1.02346183503519
  H   -2.30650476613199     -0.14437568308107     -0.80205733273029
