16
Coordinates from ORCA-job run
  C   0.78228107817051      0.23620698484388     -0.14310081018077
  C   -0.41037350230310     -0.39468807039677      0.60936882260194
  Cl  2.30554258203752     -0.21415474256532      0.78124500442845
  H   -0.17546665641244     -0.34783428799753      1.67758226921624
  N   0.80560600610621     -0.11190096646862     -1.48961022429204
  H   0.88200028201943     -1.11760861453735     -1.56954808108669
  H   1.54526982339009      0.35962261597992     -1.99226746669753
  N   0.75898701160660      1.75335019839505     -0.03139984507584
  O   1.25231627784969      2.39068099455203     -0.95229125826079
  O   0.29304838666207      2.22197038915520      1.00287446886618
  N   -0.46003523860634     -1.78262925065882      0.19701512184277
  H   -1.12961632405634     -1.87468728232810     -0.55813521195012
  H   -0.72525217004030     -2.38853427941485      0.95940764861040
  N   -1.63852083824525      0.29400388034055      0.24004026254308
  H   -2.41918263883314     -0.23746790040365      0.60712851878476
  H   -1.66860407934521      1.21367033150440      0.66269078064995
