16
Coordinates from ORCA-job run
  C   0.73773036921090      0.25136476732651     -0.01201890213010
  C   -0.70948603859824     -0.27589245822456     -0.04932913870800
  Cl  1.46271835587878     -0.06918584768794      1.62334088997546
  H   -1.09315304903527      0.06635613785340     -1.02038621393287
  N   1.45825191653961     -0.27319921770191     -1.09072640269890
  H   1.30627027548548     -1.27383390755507     -1.12998660476357
  H   2.43844160279840     -0.02878442713051     -1.04801916294702
  N   0.80409468032062      1.77025384579532     -0.17163263669961
  O   1.92170386306756      2.24224732327394     -0.32133837684386
  O   -0.24993954621259      2.40117667097037     -0.17580297264734
  N   -1.48814280717644      0.16075243372247      1.09191874328133
  H   -1.57100721589578      1.16975586675648      1.09040010369065
  H   -2.41935842400762     -0.22948161253493      1.00945501858336
  N   -0.61127631616030     -1.72299161210613     -0.10125481573893
  H   -1.42995915611396     -2.11818585960965     -0.54446409620510
  H   -0.55688851010116     -2.06935210314779      0.85084456778449
