16
Coordinates from ORCA-job run
  C   0.87421401651746      0.24663935360627      0.04745545741748
  C   -0.39788368499132     -0.54110417416492      0.43482709086930
  Cl  1.80462910404357      0.59839567489248      1.52872501975460
  H   -0.03002188162710     -1.35185738069892      1.08047974884949
  N   1.63607670757425     -0.40639439563958     -0.92512664554384
  H   1.18193887723551     -1.24502370309015     -1.25832761145480
  H   2.61532377372749     -0.49610072820839     -0.71576252631470
  N   0.37445813707718      1.61336614639062     -0.52555833025791
  O   -0.19691629377675      1.49312986634293     -1.60158768495236
  O   0.53798507582807      2.64827024556096      0.09887549060415
  N   -0.95140665227022     -1.17323138506562     -0.73909977215885
  H   -1.60680652628231     -1.89693983180983     -0.47475229426769
  H   -1.42105636933911     -0.48037190045277     -1.31052470066430
  N   -1.32837108612557      0.36561525436874      1.08567003884777
  H   -0.92587457932345      0.76711079418884      1.92545823737733
  H   -2.16528861826770     -0.13950383622065      1.34824848189433
