16
Coordinates from ORCA-job run
  C   0.87983616595324      0.19814024773112      0.11684721701000
  C   -0.44745901543107     -0.55384023973847      0.36521831599887
  Cl  1.73448432136454      0.38327273282235      1.67180629244943
  H   -0.15603691520352     -1.43123822641253      0.96083896722633
  N   1.66973105509557     -0.41102575354667     -0.86304322204828
  H   1.19805929436353     -1.19748493445273     -1.28727167671780
  H   2.62708300063917     -0.57174526052690     -0.60086451432233
  N   0.47725432401724      1.62913343407721     -0.36839995399320
  O   -0.03076009774893      1.62406708853856     -1.48219635114199
  O   0.64636023337524      2.60090181558147      0.34905574248353
  N   -0.95675313759937     -1.06105447611835     -0.88670742718464
  H   -1.35827366375901     -0.30188927228214     -1.42483672174239
  H   -1.65975204710743     -1.76930799454624     -0.72146027496786
  N   -1.37365841078874      0.34288070008034      1.03569247835100
  H   -2.24568297832074     -0.14033392331496      1.21049807125802
  H   -1.00343212884972      0.65752406210794      1.92582305734130
