16
Coordinates from ORCA-job run
  C   0.65847343871374      0.37912337632315     -0.01506841558947
  C   -0.73072233418856     -0.03950295825086      0.50501966117351
  Cl  1.55117930600003      1.21838098687674      1.36268140778458
  H   -1.19239499756573      0.83832807077582      0.96569736497418
  N   1.32026424288957     -0.70265813643472     -0.58057912087946
  H   1.29269669846224     -1.48563441051538      0.06185568586064
  H   2.24823823130827     -0.48495101429548     -0.91430048762256
  N   0.54516234001216      1.48155492147886     -1.05684864273546
  O   1.46408405457608      1.57073513120621     -1.86107267488382
  O   -0.43681537863250      2.21395656474915     -0.99396381207045
  N   -0.49645802292284     -1.14863492472888      1.42192090235344
  H   -0.17367431985549     -0.80838198961758      2.31944682008197
  H   -1.38454248111231     -1.61762815306058      1.55022718229433
  N   -1.60625402758753     -0.51710197020030     -0.53646771176772
  H   -1.10230209818791     -1.15396279421942     -1.14276496965317
  H   -1.95693465190924      0.25637729991325     -1.08478318932054
