16
Coordinates from ORCA-job run
  C   0.73542386189047      0.21976502119936      0.12193895714397
  C   -0.56127995682284     -0.58779865840524      0.40049197905256
  Cl  1.43745127983651      0.81716666534070      1.68808914290399
  H   -0.19443779710840     -1.52020988285335      0.86524740717297
  N   1.62167095640674     -0.56508626520912     -0.64068961778349
  H   2.00028408774017     -1.31483270262413     -0.07668750429621
  H   2.36803961926617     -0.01490980609093     -1.04600054781402
  N   0.40401208801307      1.47769846377793     -0.67365238159882
  O   -0.45770350696771      2.20730101791435     -0.20499350053814
  O   1.02482992886504      1.66913567701050     -1.71207552789626
  N   -1.17873999258887     -0.75374342397540     -0.89745208914588
  H   -0.57851083864925     -1.28141079742434     -1.51686428181533
  H   -2.06183323511206     -1.23124449595917     -0.77304671601236
  N   -1.55022350096152     -0.03984438018106      1.28247372379576
  H   -1.19352241977635      0.03770059471764      2.22514738229326
  H   -1.81546057403117      0.88131297276224      0.95707357453800
