16
Coordinates from ORCA-job run
  C   0.87224306367938      0.27066393399980      0.07069795369169
  C   -0.36129683501343     -0.54874783084834      0.51040840761892
  Cl  1.86959411275214      0.62390656246667      1.50867711948127
  H   0.05524292487302     -1.30540654364491      1.18113554803982
  N   1.58208843690237     -0.34592846196193     -0.96735527413120
  H   2.58346503303426     -0.26009684885011     -0.91086822254639
  H   1.22922445220973     -1.26802908897202     -1.17834212246641
  N   0.40268947204765      1.64332741276627     -0.48238638792699
  O   1.14963702365403      2.60302149118159     -0.41340440520291
  O   -0.67583182196610      1.61165459024130     -1.07552890974824
  N   -0.89928758462821     -1.27059944068110     -0.63415448506866
  H   -1.56705996143541     -1.96165016423173     -0.31637240761550
  H   -1.36701247652564     -0.62344204885493     -1.25733701384989
  N   -1.23440752901452      0.28571314264842      1.30901280172668
  H   -1.78749351451609     -0.27909574561713      1.93858829295074
  H   -1.85179479605318      0.82570904035816      0.71722910504707
