16
Coordinates from ORCA-job run
  C   0.78174381753628      0.24375134353239      0.02382290679128
  C   -0.68318405505956     -0.29161325509394      0.04202979544053
  Cl  1.53322807099415      0.05350434231482      1.60238074831765
  H   -1.11046129965337      0.03537982175319     -0.91871934321694
  N   1.64344057628765     -0.32277160307539     -0.96440046818423
  H   1.81488532723079     -1.29250391581087     -0.73207857228294
  H   1.23122450730621     -0.23706201171742     -1.88517176250682
  N   0.64509475373855      1.72933698195371     -0.31143388417985
  O   0.48882441246058      1.95777308634930     -1.50942311880978
  O   0.58911883065941      2.55217811215559      0.59200770768797
  N   -1.53013004423077      0.21880518327095      1.08898487188243
  H   -1.07103555980798      0.11439787078260      1.98643573092762
  H   -1.74222924053011      1.19817938353318      0.95279227387816
  N   -0.60402075189076     -1.73492858711857      0.17665942479506
  H   -1.47732268494897     -2.04608218445220      0.58351639297368
  H   -0.50917666009209     -2.17634456837732     -0.72840270351382
