16
Coordinates from ORCA-job run
  C   0.74588758609755      0.04191986366876     -0.06379719697579
  C   -0.76585591769432     -0.28613687010259      0.06712864200985
  Cl  1.69471145391622     -0.65382437102114      1.23451693259912
  H   -1.20863156514266      0.12129859983972     -0.85683930258517
  N   1.22017455107830     -0.42977166253834     -1.31689446420340
  H   2.22785756491849     -0.35416197380006     -1.38289248247724
  H   0.79082578666919      0.10414572770956     -2.06377162190703
  N   0.83419559481315      1.59143581223224      0.03064206452231
  O   1.21944128444347      2.14089559277982      1.05151680578298
  O   0.40326087920806      2.15563709819210     -0.97751106184599
  N   -1.29235110809688      0.28494654108642      1.28393927450370
  H   -1.34948853032498      1.29446726112393      1.24015423185117
  H   -2.22826704518248     -0.07974275119521      1.41100966986633
  N   -1.04172430761410     -1.69686712717112      0.10022557886471
  H   -0.61429658058041     -2.14807877335706     -0.69923396733004
  H   -0.63473964650861     -2.08616296744702      0.94380689732449
