16
Coordinates from ORCA-job run
  C   0.83001759512556      0.21552575746125      0.00522780501767
  C   -0.63798600013972     -0.24517323968206     -0.04589811002806
  Cl  1.50330943029271     -0.17721397972112      1.59975715411345
  H   -0.97767168785307      0.02658123913148     -1.04982391853736
  N   1.68191230283171     -0.30951305617018     -1.00967496742921
  H   1.53866931483329     -1.31368196574048     -1.03111570881884
  H   1.39133991013086      0.08229653049070     -1.89919910261586
  N   0.80311617964131      1.73495376965267     -0.18557788603985
  O   1.08256422334476      2.47916601335653      0.73579669132821
  O   0.45605821321469      2.06876264225520     -1.31656909422456
  N   -1.41469796666079      0.53088287041601      0.89379853572214
  H   -2.40537363104171      0.37933349452311      0.75664698594057
  H   -1.17557167163787      0.29810684889830      1.85003321374383
  N   -0.63794225746189     -1.69962836250316      0.02585413776393
  H   -1.51789034238534     -2.06480013612038     -0.31576760465456
  H   -0.52085361223451     -2.00359842624789      0.98551186871851
