16
Coordinates from ORCA-job run
  C   0.72941577459907      0.36087953306396     -0.01835829577677
  C   -0.69197934241663      0.03178963488314      0.44411334501243
  Cl  1.68057390966625      0.99150550658076      1.42952359920067
  H   -1.09620000563098      0.91909010500689      0.93910081859276
  N   1.29647824607562     -0.73009712272888     -0.66321940574622
  H   1.26686805219744     -1.53960105742913     -0.05680818768158
  H   2.21295071377703     -0.54582437763845     -1.04473945113806
  N   0.68827414451053      1.55699055207689     -0.95963804295854
  O   1.41106926708550      1.50753779737019     -1.94714774518500
  O   -0.03607172124435      2.48447960316864     -0.63179643225460
  N   -0.58862244656213     -1.14315326697867      1.31666827742898
  H   -1.51334223950766     -1.53825150535257      1.43540530278852
  H   -0.24581519739057     -0.87333842040493      2.23241930676999
  N   -1.46227018223181     -0.20701781074425     -0.74584253860100
  H   -1.19608869838456     -1.08621543982841     -1.16984761608980
  H   -2.45524027454273     -0.18777373104519     -0.55883293436177
