16
Coordinates from ORCA-job run
  C   0.90005194055110      0.17312217235987      0.00713343717528
  C   -0.37621452254709     -0.53408042773289      0.51460993244717
  Cl  2.04277871294559      0.34232748293523      1.36810461675065
  H   0.00716385409244     -1.36370086666403      1.11510312847943
  N   1.45233739304393     -0.45758889183505     -1.11512242718801
  H   2.45847612681969     -0.48163857898540     -1.13933736330970
  H   0.98675205071219     -1.32652240445727     -1.33344373500526
  N   0.53768244652492      1.61506023528915     -0.44108199112438
  O   -0.57864973746743      1.72409994299475     -0.94888996157675
  O   1.38196408940876      2.49115076193828     -0.38250227970266
  N   -1.07884688010683     -1.13641999390482     -0.61000707186132
  H   -1.52060231715026     -0.41230242252386     -1.16365839211021
  H   -1.79146645860538     -1.76725611435943     -0.26536113021607
  N   -1.08722947137708      0.34655783221581      1.41747874154499
  H   -1.64126880796620     -0.18703192263719      2.07284591085259
  H   -1.69192841887836      0.97322319536685      0.90312858484424
