16
Coordinates from ORCA-job run
  C   0.66468327123859      0.36873676542363     -0.00637949129970
  C   -0.73291264367655     -0.03581316837817      0.50174634547831
  Cl  1.56437455974276      1.17451268726127      1.38668727787466
  H   -1.18316478386817      0.84207038329504      0.97339417139809
  N   1.31236519770695     -0.71474600675429     -0.58484488136023
  H   2.24397819715399     -0.50525451503124     -0.91371290904977
  H   1.27284862830811     -1.50573518011368      0.04701711040734
  N   0.57169633371368      1.48766849207485     -1.03281971613930
  O   1.49075176379932      1.57057498295098     -1.83755478358176
  O   -0.39612433757833      2.23755814772035     -0.95804445163192
  N   -0.51991009223303     -1.16199124436433      1.40294726396635
  H   -0.19913145682618     -0.83985965533952      2.30783440475906
  H   -1.41504721731306     -1.62095603952761      1.51773971777105
  N   -1.61046490303560     -0.48388135882340     -0.55124767720274
  H   -1.94975711052905      0.30338824413165     -1.08692992460290
  H   -1.11218540660342     -1.11627253452552     -1.16683245678654
