16
Coordinates from ORCA-job run
  C   0.74664160454117      0.22769253112365     -0.05007589487714
  C   -0.73300181938557     -0.21725098312626      0.04324407751782
  Cl  1.60880972565382     -0.23629580906297      1.42138636844480
  H   -1.17427570440927      0.11052112627083     -0.90416358547720
  N   1.49068475429234     -0.24157609050252     -1.17821150692334
  H   1.66223861650402     -1.23484681449869     -1.10653060159803
  H   0.99573480413490     -0.02097423204575     -2.03388150872674
  N   0.71678249994483      1.75243889504283     -0.18541831237846
  O   0.25082128186011      2.11600510167796     -1.26298463411120
  O   1.10836950952396      2.46710237320768      0.71841169773971
  N   -1.36537505479046      0.52760735827564      1.10157249252530
  H   -0.96966412199644      0.27663339442397      2.00030975576140
  H   -2.35042272727787      0.29440466652424      1.11890193879055
  N   -0.92513331124104     -1.65162572308889      0.12918386857836
  H   -0.41112825955058     -2.04388188920831      0.90921699029554
  H   -0.65008179780390     -2.12395390501343     -0.72296114556137
