16
Coordinates from ORCA-job run
  C   0.73633031061137      0.38936738522174      0.02600433987796
  C   -0.69312256658245      0.05219671517319      0.46624309545383
  Cl  1.64829034601455      1.05420671703315      1.45460530904508
  H   -1.09419991734474      0.93252606304273      0.97223628252022
  N   1.32626302151271     -0.72765558718760     -0.57727345360833
  H   2.20769365390519     -0.50607300692499     -1.02007755023395
  H   1.42653684412724     -1.45258774134062      0.12269756886090
  N   0.68656038980476      1.54488193773538     -0.96329792974173
  O   0.00880918150535      2.50634198149728     -0.63370720349728
  O   1.34178273315700      1.43140680221538     -1.99279680083571
  N   -0.59739754867593     -1.09559443974618      1.37492268227624
  H   -1.17322308670369     -1.84932082298650      1.02615830439640
  H   -0.90227685681954     -0.85979025832927      2.30903420713455
  N   -1.43757883803633     -0.16589691810469     -0.74661894813354
  H   -2.42249952935029     -0.29760196043599     -0.56074458290264
  H   -1.05996813712522     -0.95640686686301     -1.25438532061198
