16
Coordinates from ORCA-job run
  C   0.87814105151875      0.20319477419555      0.12100710696804
  C   -0.44634084424811     -0.55555497223006      0.36420461878838
  Cl  1.72333711975789      0.39665082606819      1.68056311932582
  H   -0.15316586866434     -1.42952281658159      0.96395553800724
  N   1.67555105053561     -0.40496108944809     -0.85216457815023
  H   2.63508934079387     -0.55308508329431     -0.59121412920558
  H   1.21148786087260     -1.19441203612690     -1.27879444797258
  N   0.47050631493613      1.63125511522359     -0.36930635792608
  O   -0.03373006635898      1.62090443876720     -1.48483289413393
  O   0.63310580195371      2.60585415599407      0.34579486162230
  N   -0.94629080184269     -1.06889508958384     -0.88892761753098
  H   -1.34913276005577     -0.31317663065362     -1.43093279507730
  H   -1.64607175639361     -1.78075646904150     -0.72545690802026
  N   -1.38093529542695      0.33794813147551      1.02741377234749
  H   -1.01826029447935      0.65411982456664      1.92015138308957
  H   -2.25229085289875     -0.14856307933084      1.19653932786808
