16
Coordinates from ORCA-job run
  C   0.67173233284638      0.24875903585707     -0.12724872363210
  C   -0.78379287524401     -0.22013031367789      0.05998556876535
  Cl  1.61099469395094     -0.15112939041506      1.37075491989101
  H   -1.29348380423850      0.12198169255448     -0.84307964667124
  N   1.24335421304176     -0.27352605103053     -1.30340959867338
  H   2.21143212954670      0.00487226807965     -1.41064186542201
  H   1.18603397690407     -1.28294228541527     -1.30072300500556
  N   0.64241142727467      1.77835372117710     -0.28407195098868
  O   -0.08891154578111      2.16337118577251     -1.18658629109768
  O   1.32901260601086      2.47537044578164      0.44614979649239
  N   -1.33474444233734      0.50026674299742      1.18096689739649
  H   -0.94087617718293      0.15721053617424      2.04934044561424
  H   -2.33235520671288      0.33065162353221      1.20929096008609
  N   -0.94063059238898     -1.65896015268363      0.13032524315463
  H   -0.29547018912968     -2.08699125536092      0.78245555117019
  H   -0.88270654655995     -2.10815780334303     -0.77350830107974
