16
Coordinates from ORCA-job run
  C   0.90013354226474      0.15175520475311      0.11736285813790
  C   -0.39882161357197     -0.55198842465438      0.55041018814544
  Cl  1.85292367421219      0.72729939848361      1.49200844169653
  H   -0.03386686448756     -1.49003297578082      0.97760452091370
  N   1.66964471370261     -0.72159172556527     -0.66981521182299
  H   2.48206433839130     -0.25342570503096     -1.04972121992246
  H   1.07785628318682     -1.09089802034293     -1.40599649121471
  N   0.54488033710489      1.45297352502218     -0.67731939158744
  O   -0.55623258064394      1.96940444600098     -0.49395405461925
  O   1.40325051204802      1.86877553921095     -1.44312684494424
  N   -1.09684967325044     -0.88966194001870     -0.69602054311424
  H   -1.70228429222292     -0.12185404123664     -0.96247610128234
  H   -1.67263948654732     -1.71049733816963     -0.55864897306283
  N   -1.11029104726245      0.14300665066856      1.59201569252844
  H   -1.81262636638530     -0.46278866847171      1.99413383951689
  H   -1.54714147653866      0.98052407513165      1.23354329063161
