16
Coordinates from ORCA-job run
  C   0.89756284535303      0.15848645257665      0.12785664442922
  C   -0.40054550749516     -0.55895539074048      0.54131071034429
  Cl  1.83003692958551      0.72922020551645      1.51861550381763
  H   -0.03297458158737     -1.49619117966570      0.96801265625951
  N   1.68225836151801     -0.70209176024110     -0.65803124229450
  H   2.49408993119257     -0.22477978185291     -1.02762309585515
  H   1.10024976745391     -1.07284562603229     -1.40127783965972
  N   0.54122916305266      1.46373951548785     -0.65901288129810
  O   1.40790783343770      1.89659268500813     -1.40578277873446
  O   -0.56828553652628      1.96637508578521     -0.48842480099307
  N   -1.08058712900588     -0.89641287512655     -0.71526650185355
  H   -1.68568414710372     -0.13019840418379     -0.98726620988794
  H   -1.65579744472343     -1.71907889474622     -0.58607223336014
  N   -1.13030789528654      0.12394649154698      1.57764710664322
  H   -1.82375541108654     -0.49249577314836      1.97852310467529
  H   -1.57739717877850      0.95568924981612      1.21879185776748
