16
Coordinates from ORCA-job run
  C   0.88821003835164      0.12537669584616      0.19392138089214
  C   -0.47019645550495     -0.57487769624540      0.41593587273124
  Cl  1.68799140130526      0.41812293854791      1.75407533282079
  H   -0.21889473119679     -1.45877462342019      1.01827256802159
  N   1.69852309538954     -0.65660577744000     -0.63316413882065
  H   2.55079542973987     -0.18901646037986     -0.90936784288866
  H   1.15267588535973     -0.97378015931166     -1.42551877235469
  N   0.55710538840650      1.52908681328357     -0.41971488930236
  O   0.32570261730864      1.48733767246524     -1.62614524828841
  O   0.49773514921534      2.51745892309692      0.29291237958076
  N   -0.97204250911349     -1.04855455382913     -0.85574049848957
  H   -1.49208848701122     -0.30516860226749     -1.30788147113459
  H   -1.57669147689120     -1.84812074522962     -0.72573282162358
  N   -1.39057682529992      0.35551975943545      1.04510664841566
  H   -0.99714755579919      0.75725888783764      1.88848632340673
  H   -2.24110096425978     -0.13326307238954      1.29555517703360
