16
Coordinates from ORCA-job run
  C   0.82273464699094      0.23337696981703      0.06036714372484
  C   -0.62810533847250     -0.25990868962622     -0.08510609964643
  Cl  1.37892007285061     -0.08845681831570      1.71501115984342
  H   -0.89411317144252     -0.03169659457405     -1.12164350663836
  N   1.75981999837245     -0.30974903379463     -0.86628571188600
  H   1.63784995997944     -1.31697996877809     -0.85934926302329
  H   1.52964302375776      0.04169730841141     -1.78975144853179
  N   0.78313126354759      1.74397744955166     -0.18856961022169
  O   0.97814063418932      2.52624703728487      0.72297082056215
  O   0.51805764017839      2.02968817428217     -1.35431023628428
  N   -1.48889621963648      0.53332925250493      0.76269659610245
  H   -2.46298142969714      0.35045118355364      0.56000435622050
  H   -1.31606486432018      0.34306750937870      1.74240057892769
  N   -0.60720518774172     -1.71022969710481      0.04109062196933
  H   -1.44911283694581     -2.10733327564161     -0.35601937299805
  H   -0.56081819161015     -1.97748080694929      1.01749397187952
