16
Coordinates from ORCA-job run
  C   0.69371429681919      0.43976460904563      0.27592122307246
  C   -0.76408843008173     -0.01437418600821      0.40743657588024
  Cl  1.24068928092552      1.34020462335220      1.69552615935413
  H   -1.37081597132284      0.85948436360508      0.65711923900809
  N   1.52942123312830     -0.65886565130297      0.02091113570176
  H   2.49178462093185     -0.37404404577992     -0.10416584186295
  H   1.18440265492978     -1.12459093025248     -0.81226251196348
  N   0.74518276958057      1.49142174810415     -0.87978750098250
  O   1.77866963157119      1.52920652240831     -1.53544814522860
  O   -0.23542242455893      2.21255186019745     -1.03583526653745
  N   -0.83504458915534     -0.94456775008598      1.49564850590936
  H   -1.78856940230073     -1.22085572581717      1.68473102440884
  H   -0.25377259499549     -1.75322378592724      1.31851475945177
  N   -1.10892687955411     -0.58784251934651     -0.90601503028993
  H   -1.79846033751413     -1.31688759500319     -0.77747231856720
  H   -1.50976385840311      0.12361846281084     -1.50682200735454
