16
Coordinates from ORCA-job run
  C   0.72908311377014      0.20226282244129      0.07331202794467
  C   -0.60661673958806     -0.46627086391278      0.45265136330994
  Cl  2.06207250144380     -0.58384480291446      1.07602577384570
  H   -0.69284695899144     -0.44437099688006      1.54256391708828
  N   0.92321049847181      0.17277293788967     -1.30098741884466
  H   1.79732678641334      0.58111244504837     -1.59924025839431
  H   0.77731322808447     -0.77043497568613     -1.64073123703536
  N   0.77022252906355      1.64869024191670      0.54247637371766
  O   0.08825055817104      1.94042573585490      1.51942621006477
  O   1.50846792472698      2.40456496550552     -0.07632607392873
  N   -0.56087443377875     -1.80547773498443     -0.12200192668238
  H   -1.51263088895636     -2.15040909974193     -0.14035498772300
  H   -0.00055259610332     -2.42225639658157      0.45341959992786
  N   -1.75448855618318      0.20513087799498     -0.10556592328222
  H   -1.94740098406362      1.05684509283535      0.40360062455188
  H   -1.58053598248042      0.43025975121457     -1.07826806456009
