16
Coordinates from ORCA-job run
  C   0.89444484618772      0.10939868544626      0.16974317516363
  C   -0.46971312749496     -0.56628702996154      0.42903121862904
  Cl  1.74127831444361      0.38963326449595      1.70724590213213
  H   -0.21817032196466     -1.45388844040390      1.02573634976069
  N   1.66839761898817     -0.68832806685746     -0.67733610926326
  H   1.09552550236502     -0.99577706674865     -1.45436700664942
  H   2.52012914075630     -0.23491798623103     -0.97795908684988
  N   0.57295273996850      1.51769609116636     -0.43768444418793
  O   0.54618708031875      2.50692139167298      0.27591033074224
  O   0.31366740480307      1.48004596879332     -1.63848181138946
  N   -1.01335074139808     -1.03203365652381     -0.82845460534253
  H   -1.53525386945931     -0.28092689586840     -1.26542640439000
  H   -1.62565965043868     -1.82282827885187     -0.68179278604299
  N   -1.35671637859763      0.38063858939142      1.08118562901991
  H   -0.92955662392039      0.78365107833158      1.90741480913499
  H   -2.20416193455744     -0.09499764785120      1.36523483953283
