16
Coordinates from ORCA-job run
  C   0.84178267853283      0.21566631679184      0.14174258086547
  C   -0.48906996449566     -0.52657970438338      0.47949954989840
  Cl  1.72586717030075      0.48430194580473      1.65124509511233
  H   -0.16517606539062     -1.39065125270082      1.08369617879471
  N   1.72178182709016     -0.41461288308173     -0.79018684476853
  H   2.08042787238036     -1.28098335730104     -0.41049284565165
  H   1.23901694990208     -0.57539139703117     -1.66455749904267
  N   0.45478140622696      1.55619438399309     -0.47764312439668
  O   0.51228132890252      2.58140997438817      0.17605876911996
  O   0.04973320185228      1.45016296968577     -1.63536118163524
  N   -1.21909549290711     -1.04795883805029     -0.64565309338034
  H   -1.42953180861649     -0.30980887484577     -1.30654834188968
  H   -0.72352266288501     -1.79732455226538     -1.10767134007745
  N   -1.36995889249051      0.40026577996056      1.15164307124388
  H   -0.98096519731336      0.72202172126565      2.02848896833462
  H   -2.25035235108916     -0.06671223223024      1.32574005747288
