16
Coordinates from ORCA-job run
  C   0.71582393409224      0.08856618819077     -0.04154642117131
  C   -0.79535492163008     -0.22769238851763      0.00248141719767
  Cl  1.52478618704901     -0.43562527297480      1.43662144503629
  H   -1.17334136964958      0.11135416317940     -0.96911467366031
  N   1.31749461926630     -0.54786011470145     -1.16034410163704
  H   2.32631999298238     -0.45738683464144     -1.13701302326102
  H   0.96348726602253     -0.12204292614846     -2.01001638651266
  N   0.81669470302991      1.63562647540111     -0.13984513686266
  O   1.18859256933692      2.30451369916650      0.80786095701596
  O   0.45983243205279      2.05686903205392     -1.23887690934420
  N   -1.40301347739425      0.59501796327401      1.01597336058961
  H   -2.40459620038997      0.45022307580433      0.99264051450757
  H   -1.07095925707160      0.32870957092981      1.93635315556537
  N   -1.09464055708013     -1.63883623672232      0.11828888686006
  H   -0.62086727266753     -2.15184320332039     -0.61749160124575
  H   -0.74825864794895     -1.98859319097335      1.00502851692241
