16
Coordinates from ORCA-job run
  C   0.76615119565613      0.21476221287726      0.09354372700241
  C   -0.48277747500263     -0.58071018131637      0.54392041407055
  Cl  1.63908407172365      0.91792508680024      1.51180520250288
  H   -0.05362872653712     -1.48040396559776      1.00427807205966
  N   1.57566664287308     -0.60470628267227     -0.72629879993634
  H   1.94755840672032     -1.37433560135401     -0.18370527044549
  H   2.33731779149610     -0.07289659276065     -1.12994414518329
  N   0.39141428769085      1.42809929382503     -0.75611463509012
  O   1.22757273545708      1.82081849224791     -1.55927107388526
  O   -0.70458647742192      1.94257488421820     -0.55617774139775
  N   -1.28678230942267     -1.02278113868639     -0.58568960108881
  H   -1.77961021795264     -0.23308067860790     -0.98548543290833
  H   -0.69775124663291     -1.43355953890969     -1.30110284602682
  N   -1.23902681042445      0.08981778290553      1.56625359432892
  H   -1.97228356561566     -0.53757198290876      1.87120791978253
  H   -1.66731830260722      0.92504820993966      1.18978061621526
