16
Coordinates from ORCA-job run
  C   0.89391188639253      0.10909890668122      0.17521097750233
  C   -0.47323771491259     -0.56229817922739      0.42963171892563
  Cl  1.73017288320727      0.39714071350318      1.71715914004315
  H   -0.22759534105622     -1.44664268693542      1.03358751949122
  N   1.67214301338140     -0.69511393811875     -0.66143321854412
  H   1.10451702425601     -1.00777498949581     -1.44015960592559
  H   2.52751755486627     -0.24636472230716     -0.95855286737493
  N   0.57877772154066      1.51439891486019     -0.44272875064435
  O   0.55594697170803      2.50947431049246      0.26263638071953
  O   0.32066893101887      1.46785083997876     -1.64354114837211
  N   -1.00978054705121     -1.03531119706835     -0.82828174683186
  H   -1.62895138221609     -1.82035139440258     -0.67920298384233
  H   -1.52298860451246     -0.28449575384243     -1.27598467374075
  N   -1.36216078276470      0.39099637608367      1.06965160443879
  H   -0.94389365016423      0.79095892148770      1.90186960408072
  H   -2.21704796369353     -0.07856612168929      1.34113805007466
