16
Coordinates from ORCA-job run
  C   0.68979900628795      0.32170796447775      0.20621233591716
  C   -0.79919124572700     -0.02387559764443      0.40394923192450
  Cl  1.38446016996800      1.00390168335102      1.69350779898425
  H   -1.30464328528144      0.86959576564956      0.77995848459931
  N   1.40760293416657     -0.80979925378572     -0.20547959041847
  H   0.93605849453841     -1.19399891945193     -1.01897299363631
  H   2.37109613655261     -0.58738306666475     -0.41883437046604
  N   0.78605785642557      1.48870728684309     -0.82184542221338
  O   -0.13429104791175      2.30046891010766     -0.84073388716702
  O   1.78529838809856      1.51404639852595     -1.52961961314345
  N   -0.99725887134124     -1.09954648029195      1.34457004273559
  H   -0.92152043294091     -0.75477636719932      2.29200372427392
  H   -0.27729186166953     -1.80078177924020      1.20757057214029
  N   -1.27409839874230     -0.46615377383396     -0.90335276572530
  H   -2.05749816072921     -1.08674307461683     -0.74095204970962
  H   -1.59657968169430      0.32463030377407     -1.44798149809542
