16
Coordinates from ORCA-job run
  C   0.72011821032526      0.16856782268342     -0.13079408417501
  C   -0.51726613033631     -0.37871840178098      0.62574137816033
  Cl  2.19489640451892     -0.62014369087497      0.66198785206045
  H   -0.26676096388011     -0.32790113240836      1.69075829800999
  N   0.66655818827915      0.02178698716414     -1.51024340879076
  H   0.54388714258136     -0.94184869063517     -1.78203831366833
  H   1.46329915726002      0.43682579319335     -1.97388352743836
  N   0.93692764542055      1.64831545383833      0.16744112061986
  O   0.47419473460384      2.07581060517470      1.21977651763439
  O   1.59132770309988      2.28617826195947     -0.64650957724789
  N   -0.81657055113935     -1.75357535767375      0.30678364004027
  H   -0.04252992129741     -2.37392719967809      0.49970111273509
  H   -1.11847744533237     -1.83768592513395     -0.65606204458140
  N   -1.68229377214369      0.39298534760838      0.24564144518780
  H   -2.49277496949072     -0.10178005445193      0.59935673679013
  H   -1.65553543246901      1.30511018101543      0.68234285466344
