16
Coordinates from ORCA-job run
  C   0.60879286477329      0.42229590633401      0.27079477003536
  C   -0.84228330123627     -0.09722308918133      0.28830067209646
  Cl  0.98701153813010      1.29533940065558      1.77246852856024
  H   -1.49955720708174      0.74877893671143      0.50593802587986
  N   1.50780866729793     -0.63376179585237      0.06861377854756
  H   2.45981930365437     -0.30540792769034     -0.02677312224528
  H   1.21205079366315     -1.13547877363873     -0.76349604324076
  N   0.72118057974594      1.51411502248218     -0.83570210324179
  O   1.80553591998105      1.61635858806554     -1.39587279181635
  O   -0.27463070725831      2.19639587674850     -1.05742400611256
  N   -1.05249540711589     -1.11771058548313      1.28605450959823
  H   -0.24325606544334     -1.72865771063766      1.31541067745558
  H   -1.15964759044811     -0.69765394234830      2.19952450236544
  N   -1.05998154125420     -0.69192278998615     -1.02685624343485
  H   -1.38687067635832      0.00876385277885     -1.68120261496521
  H   -1.78147717104964     -1.39423096895808     -0.91977853948194
