16
Coordinates from ORCA-job run
  C   0.74771521164056      0.26512430944594     -0.05787963815984
  C   -0.69759683264529     -0.24013457285278     -0.08943172677508
  Cl  1.40735139299331     -0.00592521526548      1.61697044256990
  H   -1.06280761377959      0.02703552664773     -1.08229775699816
  N   1.50628418722483     -0.32109097372629     -1.07553110650739
  H   2.49924729472902     -0.15831733377628     -0.97309402441340
  H   1.28890911779152     -1.30976193324354     -1.12113657221172
  N   0.72749367402492      1.78528954121913     -0.30832234603618
  O   1.42091472453413      2.51620465580725      0.38236541441375
  O   0.03492625121772      2.12298409159488     -1.25812064426952
  N   -1.47430792790905      0.50130373040339      0.87640088562557
  H   -1.28077080901544      0.19553414309534      1.82169954923117
  H   -2.46349431036136      0.40303735442531      0.69236712608935
  N   -0.64553168097629     -1.69558736303111     -0.02134559048802
  H   -0.48571792007755     -1.99569399968187      0.93368707920529
  H   -1.52261475939144     -2.09000196106161     -0.33633109127571
