16

C	-0.505415	0.125543	-1.390302
C	0.0	0.0	0.0
Cl	0.169041	1.491227	-2.255708
H	1.102296	0.0	0.0
H	-0.328086	-0.971307	0.380506
N	-0.247783	-1.130959	-2.232664
O	0.416118	-2.025735	-1.733133
O	-0.733625	-1.121293	-3.358487
N	-2.04146	0.216683	-1.393164
O	-2.581125	1.301223	-1.562058
O	-2.605419	-0.838874	-1.108539
C	-0.47618	1.129724	0.90367
H	-1.553808	1.104502	1.098906
H	0.052592	1.042034	1.855915
H	-0.222093	2.104188	0.481694
H	2.77711	0.0	0.0
