16

C	-0.524131	-0.069234	-1.382093
C	0.0	0.0	0.0
Cl	-2.316781	0.019867	-1.520922
H	1.101872	0.0	0.0
H	-0.307866	0.959682	0.420881
N	-0.012386	1.06253	-2.269148
O	0.476273	2.032753	-1.707573
O	-0.174249	0.917468	-3.475708
N	-0.037653	-1.355527	-2.042103
O	1.102348	-1.305029	-2.484482
O	-0.765279	-2.339867	-1.977376
C	-0.443706	-1.16431	0.875336
H	-0.012677	-2.102713	0.520242
H	-1.529215	-1.278586	0.935046
H	-0.04717	-0.996188	1.879349
H	2.760648	0.0	0.0
