16

C	-0.475349	-0.048624	-1.399376
C	0.0	0.0	0.0
Cl	-2.255792	-0.220375	-1.615943
H	1.095648	0.0	0.0
H	-0.317388	0.94827	0.436586
N	-0.097504	1.200741	-2.196767
O	0.333166	2.159375	-1.570975
O	-0.286812	1.143594	-3.405523
N	0.228176	-1.196913	-2.111845
O	-0.298954	-2.304225	-2.056849
O	1.340422	-0.920975	-2.552028
C	-0.4365	-1.186752	0.848214
H	-0.009192	-1.055695	1.845538
H	-0.03592	-2.119457	0.448786
H	-1.521825	-1.281388	0.934351
H	2.740068	0.0	0.0
