16

C	0.0	0.0	0.0
C	-0.541354	0.049353	-1.434616
F	1.356142	0.0	0.0
H	0.347894	0.341334	-2.010103
H	-0.364685	0.853393	0.566251
N	-0.343752	-1.206859	0.845188
O	-0.7957	-0.994598	1.966587
O	-0.024196	-2.310442	0.405472
N	-1.49748	1.154467	-1.474917
H	-1.827301	1.238081	-2.432793
H	-2.32903	0.828784	-0.915916
C	-1.078347	-1.263169	-2.010351
H	-1.384669	-1.067362	-3.043428
H	-1.964541	-1.559781	-1.447262
H	-0.335865	-2.063773	-2.010602
H	-3.424728	0.0	0.0
