16

C	0.0	0.0	0.0
C	-0.433729	0.205944	-1.448069
F	1.359586	0.0	0.0
H	-1.521779	0.29826	-1.419112
H	-0.374155	0.809427	0.649821
N	-0.576171	-1.210203	0.581072
O	-0.311673	-1.406319	1.796755
O	-1.747926	-1.448335	0.035962
N	-0.092011	-0.929325	-2.310886
H	0.879235	-1.171489	-2.136082
H	-0.650952	-1.702598	-1.963659
C	0.173591	1.482888	-2.010062
H	1.265474	1.426548	-2.035273
H	-0.186522	1.628004	-3.031007
H	-0.110102	2.350976	-1.406437
H	-2.81747	0.0	0.0
