16

C	0.0	0.0	0.0
C	-0.216057	0.046447	-1.53824
F	1.365064	0.0	0.0
H	0.45248	-0.759684	-1.878255
H	-0.339447	0.867625	0.551662
N	-0.579665	-1.185419	0.628441
O	-0.575009	-2.243076	-0.064066
O	-0.562559	-1.20079	1.886185
N	0.274499	1.373051	-1.973369
H	0.141617	1.436806	-2.97637
H	1.272237	1.408375	-1.803952
C	-1.54816	-0.210698	-2.213382
H	-1.345146	-0.327421	-3.29376
H	-1.99042	-1.127964	-1.832529
H	-2.240433	0.615792	-2.058223
H	-2.165579	0.0	0.0
