16

C	0.0	0.0	0.0
C	-0.458524	-0.135273	-1.464137
F	1.361348	0.0	0.0
H	0.282972	0.522196	-1.941063
H	-0.359949	0.930149	0.439573
N	-0.375235	-1.051538	1.019237
O	-0.271243	-0.684274	2.189191
O	-0.65326	-2.188981	0.657379
N	-1.769515	0.368611	-1.795046
H	-1.774491	1.380264	-1.69611
H	-2.514085	0.059442	-1.110224
C	-0.25525	-1.525578	-2.064073
H	-0.287903	-1.418556	-3.150243
H	-1.059814	-2.19045	-1.757637
H	0.701987	-1.967678	-1.772496
H	-3.619254	0.0	0.0
