16

C	0.0	0.0	0.0
C	-0.309235	0.302055	-1.48967
F	1.356876	0.0	0.0
H	0.531821	0.948769	-1.766807
H	-0.369472	0.808417	0.649163
N	-0.617126	-1.211749	0.501657
O	-1.810281	-1.362751	-0.030723
O	-0.286941	-1.571837	1.663122
N	-1.523007	1.081307	-1.690583
H	-1.834835	0.931249	-2.645579
H	-2.25529	0.676962	-1.083858
C	-0.186439	-0.958807	-2.348515
H	-1.037133	-1.612004	-2.171596
H	-0.151748	-0.67632	-3.408112
H	0.738808	-1.497497	-2.117796
H	-3.035225	0.0	0.0
