16

C	0.0	0.0	0.0
C	-0.295585	0.172022	-1.525285
F	1.358259	0.0	0.0
H	0.49057	0.877224	-1.824667
H	-0.376113	0.856885	0.583114
N	-0.617625	-1.165337	0.595747
O	-0.323141	-1.419207	1.793504
O	-1.792635	-1.375505	0.04902
N	-1.556397	0.751937	-1.951694
H	-2.295262	0.272027	-1.424909
H	-1.598628	1.705329	-1.602341
C	-0.042125	-1.134314	-2.268661
H	-0.864964	-1.823086	-2.083644
H	0.891812	-1.599675	-1.938516
H	0.018306	-0.925861	-3.340555
H	-2.997618	0.0	0.0
