13

C	-0.435976	-0.066837	-1.44537
C	0.0	0.0	0.0
F	0.246853	-1.030444	-2.151531
H	1.089613	0.0	0.0
H	-0.334875	0.923244	0.473891
C	-1.887466	-0.310593	-1.625177
N	-3.051157	-0.42411	-1.740889
C	-0.139867	1.245745	-2.061641
N	0.068174	2.28755	-2.560326
N	-0.516909	-1.117673	0.782034
O	-0.556708	-0.974683	2.00428
O	-0.831538	-2.153522	0.188875
F	2.465706	0.0	0.0
