13

C	-0.441608	-0.043845	-1.44366
C	0.0	0.0	0.0
F	0.158618	0.936482	-2.200667
H	1.089721	0.0	0.0
H	-0.32593	-0.891805	0.53701
C	-0.032408	-1.355368	-1.993785
N	0.263341	-2.391868	-2.457947
C	-1.90787	0.065856	-1.629333
N	-3.072638	0.089567	-1.77876
N	-0.533244	1.163231	0.704922
O	-0.452924	1.147169	1.932665
O	-0.991422	2.102828	0.045631
F	2.47186	0.0	0.0
