13

C	-0.398127	0.027332	-1.446668
C	0.0	0.0	0.0
F	-1.781061	0.126821	-1.638617
H	1.091883	0.0	0.0
H	-0.382121	-0.891072	0.495093
C	0.234401	1.114176	-2.221116
N	0.695086	1.91602	-2.943996
C	0.024207	-1.255701	-2.047162
N	0.325579	-2.277409	-2.540776
N	-0.50765	1.159988	0.726374
O	-0.646208	2.2234	0.116801
O	-0.723954	1.014497	1.930438
F	2.465599	0.0	0.0
