13

C	-0.435584	0.01485	-1.446604
C	0.0	0.0	0.0
F	0.250731	0.948321	-2.18973
H	1.089612	0.0	0.0
H	-0.33795	-0.90459	0.50579
C	-0.146254	-1.321673	-2.013365
N	0.055279	-2.379874	-2.480155
C	-1.88588	0.258856	-1.634718
N	-3.046929	0.379833	-1.767461
N	-0.517461	1.145355	0.740797
O	-0.820781	2.163593	0.110413
O	-0.568567	1.042233	1.966816
F	2.466648	0.0	0.0
