13

C	-0.395243	0.061672	-1.446672
C	0.0	0.0	0.0
F	-1.777176	0.170308	-1.639373
H	1.091851	0.0	0.0
H	-0.383437	-0.902144	0.47352
C	0.242848	1.163153	-2.194739
N	0.70596	1.981201	-2.89765
C	0.023733	-1.209063	-2.074871
N	0.323617	-2.219203	-2.592606
N	-0.507051	1.143559	0.752265
O	-0.725984	0.970678	1.952215
O	-0.642452	2.220887	0.167097
F	2.465753	0.0	0.0
