13

C	0.0	0.0	0.0
C	-0.388802	-0.355483	-1.510143
Cl	1.778937	0.0	0.0
H	0.465086	0.000404	-2.096116
H	-0.387104	-0.718385	0.716488
C	-0.437237	1.353625	0.324085
N	-0.610406	2.497088	0.536718
N	-1.590003	0.183082	-2.0879
H	-2.323946	0.086588	-1.31741
H	-1.443241	1.181532	-2.218444
C	-0.359831	-1.826529	-1.614041
N	-0.270812	-2.994993	-1.698968
H	-2.874994	0.0	0.0
