13

C	0.0	0.0	0.0
C	-0.454608	0.213804	-1.479881
Cl	1.780997	0.0	0.0
H	0.435698	0.508782	-2.041711
H	-0.359326	-0.945776	0.395577
C	-0.421852	1.083691	0.889536
N	-0.543901	1.953421	1.670777
N	-1.424894	1.279676	-1.607355
H	-1.71298	1.335147	-2.581436
H	-2.229678	0.921882	-1.017614
C	-0.83512	-1.107201	-2.039082
N	-1.037472	-2.131925	-2.578373
H	-2.767078	0.0	0.0
