13

C	0.0	0.0	0.0
C	-0.548959	0.10011	-1.42734
Cl	1.781051	0.0	0.0
H	-1.653414	0.212517	-1.157772
H	-0.373164	-0.929418	0.42977
C	-0.430716	1.12293	0.84284
N	-0.555419	2.064126	1.53681
N	-0.390341	-1.107994	-2.211921
H	-1.08862	-1.767122	-1.880632
H	0.5315	-1.50864	-2.075159
C	-0.027625	1.262877	-2.129835
N	0.372971	2.206077	-2.707529
H	-2.733559	0.0	0.0
