13

C	0.0	0.0	0.0
C	-0.501538	0.002439	-1.437078
Cl	1.783146	0.0	0.0
H	-1.617217	-0.000864	-1.213502
H	-0.36874	-0.917321	0.458684
C	-0.456174	1.162854	0.768203
N	-0.562798	2.128933	1.431572
N	-0.095714	-1.228363	-2.102325
H	0.867426	-1.157714	-2.412149
H	-0.67858	-1.36527	-2.9186
C	-0.10493	1.21305	-2.157836
N	0.198907	2.136859	-2.821302
H	-2.721004	0.0	0.0
