14

C	0.0	0.0	0.0
C	-0.566732	0.293616	-1.396242
Cl	1.787523	0.0	0.0
H	-1.68677	0.236761	-1.227998
C	-0.401541	1.099903	0.891606
N	-0.581693	2.030778	1.586356
C	-0.440668	-1.278525	0.574141
N	-0.595189	-2.294984	1.144435
N	-0.212209	-0.75	-2.41097
O	0.13144	-1.85172	-1.998123
O	-0.363053	-0.430052	-3.585049
C	-0.167207	1.600683	-1.880545
N	0.148909	2.668961	-2.254766
Cl	-3.240653	0.0	0.0
