16

C	-0.428183	-0.06713	-1.459248
C	0.0	0.0	0.0
F	-0.228597	-1.400462	-1.865447
H	1.09874	0.0	0.0
H	-0.323629	0.971089	0.394209
C	-1.894261	0.235147	-1.6806
H	-2.146766	0.043009	-2.724719
H	-2.489831	-0.399625	-1.024372
H	-2.110071	1.281503	-1.446558
N	0.405683	0.735225	-2.321392
H	1.377866	0.583938	-2.052781
H	0.203933	1.714381	-2.157173
N	-0.625142	-1.064331	0.792905
H	-0.26133	-1.937838	0.429134
H	-0.267578	-0.988772	1.739179
Br	3.720699	0.0	0.0
