16

C	-0.518672	-0.020603	-1.432233
C	0.0	0.0	0.0
F	-0.281189	1.254289	-1.960993
H	1.093263	0.0	0.0
H	-0.346434	0.932769	0.467208
C	0.213824	-1.034887	-2.276459
H	1.281021	-0.807287	-2.259779
H	-0.171193	-1.00078	-3.297269
H	0.068829	-2.033409	-1.859517
N	-1.954568	-0.221482	-1.535825
H	-2.407724	0.456728	-0.928994
H	-2.149175	-1.14169	-1.152332
N	-0.466195	-1.207343	0.703607
H	-1.234813	-0.980755	1.319705
H	0.290542	-1.550442	1.280714
Br	3.749416	0.0	0.0
