16

C	-0.459485	0.014021	-1.449632
C	0.0	0.0	0.0
F	-1.889772	0.254138	-1.420442
H	1.092702	0.0	0.0
H	-0.338834	0.939614	0.448354
C	0.156683	1.155708	-2.221595
H	-0.195685	1.151336	-3.257735
H	-0.125253	2.106521	-1.765485
H	1.242828	1.052149	-2.197378
N	-0.21273	-1.225679	-2.092966
H	-0.592811	-1.984277	-1.543163
H	-0.635	-1.235245	-3.012425
N	-0.494281	-1.114332	0.800689
H	-1.450805	-1.334328	0.55307
H	0.093014	-1.926137	0.667361
Br	3.748318	0.0	0.0
