14

C	0.0	0.0	0.0
C	-0.56169	-0.090475	-1.398458
Cl	1.77763	0.0	0.0
H	-1.693342	-0.154225	-1.077903
H	-0.349717	-0.865451	0.559541
C	-0.45039	1.233974	0.652688
N	-0.572107	2.283409	1.171281
N	-0.199356	-1.385523	-2.00101
O	-0.157098	-1.465073	-3.233127
O	-0.104727	-2.359545	-1.23846
N	-0.202685	0.997831	-2.258666
H	0.172985	1.770235	-1.722612
H	-1.017066	1.322577	-2.764277
H	-2.694106	0.0	0.0
