16

C	-0.599367	-0.001211	-1.409312
C	0.0	0.0	0.0
F	-0.121173	1.112537	-2.104023
H	1.090224	0.0	0.0
C	-0.147654	-1.196761	-2.14817
N	0.17673	-2.102555	-2.819757
N	-2.022672	-0.019374	-1.36142
H	-2.406276	-0.034598	-2.297765
H	-2.373898	0.784521	-0.855181
N	-0.46343	-1.131651	0.709692
H	-1.436075	-1.049584	0.968391
H	0.123354	-1.305434	1.513656
N	-0.438048	1.336031	0.618542
O	0.274775	2.31574	0.450383
O	-1.515631	1.339262	1.231468
Cl	3.296005	0.0	0.0
