16

C	-0.351341	-0.046568	-1.495236
C	0.0	0.0	0.0
F	-1.670921	-0.465889	-1.647857
H	1.090548	0.0	0.0
C	-0.205685	1.258114	-2.169947
N	-0.069967	2.268778	-2.750436
N	0.479757	-0.999767	-2.185515
H	0.460812	-1.86107	-1.647555
H	1.443682	-0.668525	-2.135511
N	-0.461743	-1.149384	0.712938
H	-1.240128	-1.613054	0.270777
H	0.294992	-1.772485	0.945695
N	-0.549831	1.220209	0.688384
O	-1.526907	1.776322	0.177229
O	-0.028739	1.534783	1.75128
Cl	3.265437	0.0	0.0
