16

C	-0.353785	-0.137082	-1.484989
C	0.0	0.0	0.0
F	-1.677317	-0.55883	-1.644586
H	1.101361	0.0	0.0
C	-0.245068	1.126185	-2.252266
N	-0.100617	2.050328	-2.963248
N	0.497432	-1.167012	-1.996021
H	0.496851	-1.160093	-3.008349
H	1.452766	-1.029351	-1.661572
N	-0.485687	-1.090747	0.789257
H	0.277317	-1.718427	0.998024
H	-1.220934	-1.585886	0.304265
N	-0.52837	1.273228	0.595209
O	-1.49126	1.815098	0.044665
O	-0.006117	1.645566	1.638172
Cl	3.265015	0.0	0.0
