16

C	-0.47567	-0.160609	-1.450016
C	0.0	0.0	0.0
F	-1.876023	-0.219897	-1.404543
H	1.09224	0.0	0.0
C	-0.135509	0.946433	-2.363671
N	0.07476	1.742161	-3.200575
N	0.006207	-1.380235	-2.017128
H	0.0026	-2.063511	-1.262459
H	0.973125	-1.25094	-2.300326
N	-0.446488	-1.12582	0.751151
H	0.165312	-1.257454	1.544519
H	-1.396716	-1.000085	1.073082
N	-0.471896	1.321567	0.575008
O	-1.137282	1.296031	1.609555
O	-0.140936	2.335247	-0.028973
Cl	3.235117	0.0	0.0
