14
Coordinates from ORCA-job run
  C   0.42842179897547      0.30345495456744      0.53310368865692
  C   -0.56634254643246     -0.85961133759398      0.39230968701760
  Cl  1.30810700994666      0.08123293248872      2.08585647299004
  H   -1.15700329455381     -0.92020572555619      1.31512797850074
  H   0.02383364048402     -1.77654143561361      0.31474147261614
  C   1.43000567729677      0.35052464395971     -0.61004944113279
  H   2.00510756073109     -0.57775914492040     -0.62030481583737
  H   0.88589304631804      0.44870112252513     -1.54933610055361
  H   2.11646244240543      1.18882640900111     -0.48693875806142
  C   -0.32411536099234      1.55670686546563      0.61473439487509
  N   -0.97111233147028      2.53698713267739      0.64248128677441
  N   -1.34653049571322     -0.67701058345626     -0.82153333890432
  H   -2.15118667524538     -0.08958221483453     -0.64293426776158
  H   -1.67954047175000     -1.56572361871014     -1.16925825917986
