14
Coordinates from ORCA-job run
  C   0.32915682014952      0.35493828857087      0.27297783906306
  C   -0.55627507643979     -0.78366731805280     -0.23558034278426
  Cl  0.60275654286241      0.10871148236133      2.03966538109197
  H   0.00281172497719     -1.71788291891966     -0.07723870457328
  H   -0.66997363013081     -0.63933382952705     -1.31487694915351
  C   1.68362384192737      0.37046537397787     -0.42295330872595
  H   1.54383991259908      0.54120894871936     -1.49341934817235
  H   2.18463032554426     -0.58762780088045     -0.27295232472833
  H   2.31357465121288      1.16339669575687     -0.01947338207031
  C   -0.35110054661310      1.63844067614794      0.09825496097460
  N   -0.84391795033446      2.68484201303046     -0.10459258204212
  N   -1.86863922255480     -0.73769513251189      0.37789427404779
  H   -1.83677765403512     -1.11898722020821      1.31411834209742
  H   -2.53170973916462     -1.27680925846464     -0.16182385502474
