14
Coordinates from ORCA-job run
  C   0.28060466236828      0.46606660012493      0.39411334722760
  C   -0.99690020949042     -0.32601006978609      0.07704005842774
  Cl  0.97289748386696     -0.17368065855217      1.93296290181802
  H   -1.43078369603242      0.12368506653827     -0.82169028684962
  H   -1.70361313138283     -0.17136274401941      0.90310675334584
  C   1.32876836697918      0.35163507264163     -0.70158430558268
  H   2.23027757517721      0.90010989649859     -0.42755970803298
  H   1.56164387198742     -0.69994050511223     -0.85664132865557
  H   0.92743914977531      0.76826777294929     -1.62936509938237
  C   -0.08350473433408      1.86485608532772      0.62381690399273
  N   -0.40821675693936      2.98537507057784      0.76136142819634
  N   -0.67926567993387     -1.71588519728465     -0.20164649292491
  H   -1.43496436127892     -2.14602591852065     -0.71767519657913
  H   -0.56338254076247     -2.22709047138307      0.66376102499898
