14
Coordinates from ORCA-job run
  C   0.29959132064475      0.41320076433538      0.43659933645030
  C   -1.00881935543903     -0.29327405997540      0.05131343090060
  Cl  0.97184789643367     -0.40423050115055      1.89857283096165
  H   -1.70662133001717     -0.19473354487145      0.89331132643881
  H   -1.42772975390035      0.26002987675679     -0.79524168727045
  C   1.33866426108740      0.36877767451355     -0.67289644942240
  H   0.95048775850142      0.89165190520578     -1.55119711925527
  H   1.52980416635794     -0.67014504957482     -0.93415693323232
  H   2.26174378739385      0.85219724644493     -0.35202466225351
  C   -0.00744605549815      1.79476898850840      0.80872984819131
  N   -0.28571933940798      2.90772980316550      1.06173040660358
  N   -0.74637874012295     -1.65977859282241     -0.36615289384585
  H   -1.51732608846526     -2.00538084026916     -0.92167587858573
  H   -0.65209852756812     -2.25981367026653      0.44308844431929
