14
Coordinates from ORCA-job run
  C   0.27416720059677      0.41608448403179      0.44971435284552
  C   -1.01273563968616     -0.28739866713992     -0.00747775902430
  Cl  0.85001636765627     -0.38925303837691      1.95888861545011
  H   -1.37602339303564      0.25909835869503     -0.88364253262635
  H   -1.75988266150858     -0.17555136411450      0.78941439834048
  C   1.37915116535981      0.35356911382505     -0.59314534455269
  H   1.04901560551610      0.86871717278080     -1.49929525867944
  H   2.28370259243882      0.83537609241675     -0.22119307054257
  H   1.57945808985003     -0.68923745866452     -0.83101645535421
  C   -0.04573918012220      1.80352673391241      0.78730589027900
  N   -0.32640805564878      2.92251112777229      1.00932019090396
  N   -0.73366270928372     -1.65962318416527     -0.39350974503890
  H   -1.46945926459892     -2.00730670240861     -0.99339178332023
  H   -0.69360011753381     -2.25151266856433      0.42602850131965
