14
Coordinates from ORCA-job run
  C   0.30844669421900      0.42155339037506      0.42145834269212
  C   -1.00608508253908     -0.29941282662678      0.08671890532989
  Cl  1.02958698121669     -0.36891729835034      1.87490716872030
  H   -1.45488048204682      0.23798570471045     -0.75471204835330
  H   -1.67856384037521     -0.19260932638935      0.94819637051325
  C   1.31420091497705      0.36661963682693     -0.71786858386258
  H   1.50465107292558     -0.67495420232512     -0.96885638426302
  H   0.89654423569446      0.87338673273984     -1.59205154659473
  H   2.24304230825197      0.86079610776287     -0.43192218853116
  C   0.00465979328047      1.80724688649281      0.78056904575567
  N   -0.26045056368289      2.92661480769307      1.01939718658256
  N   -0.74657832743658     -1.67047912772147     -0.31741796394183
  H   -1.52982928609534     -2.02953137164790     -0.84619011078176
  H   -0.62574441838930     -2.25729911354008      0.49777180673460
