14
Coordinates from ORCA-job run
  C   0.42637801962107      0.32146637418925      0.52390382961198
  C   -0.55603881179334     -0.85566310311970      0.41759004959225
  Cl  1.31504461166112      0.14875709768324      2.07776217382313
  H   0.04374050706545     -1.76807873611717      0.36263818014919
  H   -1.14280510095430     -0.89814769836474      1.34401159192559
  C   1.42241949094117      0.35025765130870     -0.62464816647762
  H   2.00872128591257     -0.57097344382213     -0.61296456083422
  H   0.87315740464079      0.41685850667361     -1.56369698161395
  H   2.09908846949342      1.19977735084193     -0.52702884523395
  C   -0.33883696179804      1.56859649326826      0.57630895512962
  N   -0.98967179145239      2.54667149080400      0.57841667429855
  N   -1.34248557428506     -0.71395754158404     -0.79767313267137
  H   -1.66477375572692     -1.61530801568920     -1.12203640220065
  H   -2.15393779332552     -0.13225642607204     -0.63158336549857
