14
Coordinates from ORCA-job run
  C   0.39165445327400      0.30188510358733      0.33491790236959
  C   -0.52150896993525     -0.82056752116205     -0.17763598648307
  Cl  0.82194896135528     -0.02211648009687      2.04494836444956
  H   -0.60209977356798     -0.68771228740261     -1.26759108992299
  H   0.00244644886213     -1.76227127484321      0.00514697318622
  C   1.67427969073372      0.39456973901344     -0.48239162369772
  H   2.20116370972808     -0.56074392545072     -0.43839704453634
  H   1.43819109453048      0.62815078623696     -1.52346301502421
  H   2.32698074579859      1.17199152942253     -0.08514199307465
  C   -0.34292594850723      1.56732342252552      0.28089169978143
  N   -0.95861506340698      2.56151593011289      0.16853260549064
  N   -1.78956937833000     -0.82885393261061      0.52184982384735
  H   -2.19682696637625     -1.75284264756920      0.52601180633206
  H   -2.44611900415859     -0.19132844176339      0.09132157728215
