14
Coordinates from ORCA-job run
  C   0.34726639171835      0.28703248625034      0.24385888026325
  C   -0.53849094646150     -0.89063418269262     -0.22190704932530
  Cl  0.75811355801496      0.03644937692504      1.97965861612390
  H   -0.68972904324408     -0.76544605315375     -1.29954708935849
  H   0.04678238501136     -1.80308404015349     -0.07353227790899
  C   1.63856504766854      0.37341189862951     -0.55646263114866
  H   2.18416021112329     -0.56778551173011     -0.46518664628443
  H   2.27037305841797      1.18289119070121     -0.18999489876171
  H   1.40724291013901      0.55339876263018     -1.60933872383901
  C   -0.41622962858275      1.53031671339103      0.14149609208820
  N   -1.04185633837183      2.51441779513886     -0.00252918512104
  N   -1.82458928514754     -1.04540481559870      0.40980724197290
  H   -2.41751921991587     -0.24385265445159      0.23508716224783
  H   -1.72508910036993     -1.16171096588593      1.40959050905157
