14
Coordinates from ORCA-job run
  C   0.39119960499050      0.27764503880684      0.54288433442620
  C   -0.59287661076077     -0.91508405451163      0.48506016529289
  Cl  1.35022901876110      0.11387218789413      2.05469844141360
  H   0.01010422862579     -1.82747990585439      0.45595803921370
  H   -1.15863650134550     -0.92998808847580      1.41983302838209
  C   1.34846355652701      0.31212142622829     -0.64054749672250
  H   2.05793404619748      1.13363992685896     -0.53829152698415
  H   1.90220078842369     -0.62808014251595     -0.68537416131005
  H   0.79238376590294      0.45145345305312     -1.56989872031518
  C   -0.37335859277716      1.52320598227728      0.61583324366883
  N   -1.03430179713412      2.49478599594935      0.61543150980123
  N   -1.51892058247234     -0.91698633649205     -0.62205382963445
  H   -2.12001948223036     -0.10341612806273     -0.61543359788899
  H   -1.05440144270825     -0.98568935515542     -1.51609942934324
