14
Coordinates from ORCA-job run
  C   0.41602927288650      0.28969344626770      0.51767718852074
  C   -0.59240264631919     -0.88468523111516      0.53563513762263
  Cl  1.42192205229731      0.16018109589032      2.00192234092215
  H   -1.12552416705463     -0.85488881607045      1.48903800320041
  H   -0.00806192845346     -1.80943243707811      0.51887874449949
  C   1.33324742040292      0.26173268015819     -0.69692739285485
  H   1.86763917069708     -0.69018814897736     -0.72475149385131
  H   2.06090739836441      1.07226023642793     -0.64917280458655
  H   0.74882605712789      0.37746466771951     -1.61204664904802
  C   -0.32392819107661      1.55079137388770      0.57176741256123
  N   -0.97423636638793      2.52946179495360      0.57011169888864
  N   -1.55629373615087     -0.90664684935808     -0.53827403200765
  H   -1.12486718422468     -1.01369579593006     -1.44507549440655
  H   -2.14225715210877     -0.08204801677574     -0.53878265946036
