14
Coordinates from ORCA-job run
  C   0.20940330786781      0.42934857986442      0.43854589456311
  C   -1.08703583832421     -0.34999558778959      0.10027502670943
  Cl  0.92693027648510     -0.28054810576792      1.93172944878302
  H   -1.55927671948610      0.16892150379949     -0.74051564219318
  H   -1.75920340690130     -0.26131764918158      0.95729007716505
  C   1.24551452600177      0.36891599359049     -0.67390771049442
  H   1.54318540222092     -0.66579997875161     -0.84562924263799
  H   0.82109732812694      0.78198059612146     -1.59311468773952
  H   2.13295724321143      0.94238879144527     -0.40578330526148
  C   -0.14578932670478      1.81706958044888      0.73100862862690
  N   -0.47123827264075      2.93035657000351      0.91956699882307
  N   -0.94188107996183     -1.74430322300939     -0.23618766861549
  H   -0.49085808847383     -2.25809501618417      0.50876253672977
  H   -0.42380535142118     -1.87792205458927     -1.09304035445825
