14
Coordinates from ORCA-job run
  C   0.24253813893855      0.42113381872967      0.42975684533039
  C   -1.07533105002644     -0.35600155593421      0.18090448681658
  Cl  1.07882840036717     -0.31607830214387      1.84596871696957
  H   -1.61493098149229      0.17846392651237     -0.60802191759621
  H   -1.67642600322604     -0.28791502124016      1.09096010748916
  C   1.18617281483740      0.38583518239562     -0.76326394121231
  H   1.47266568087713     -0.64417784457305     -0.97709411132503
  H   2.09022458468938      0.95891091201147     -0.55684035915652
  H   0.68785682595623      0.81315144194158     -1.63780793004271
  C   -0.08999975000288      1.80163740352652      0.77699210349857
  N   -0.39757816460522      2.91095431485905      1.01290769101574
  N   -0.95429976963190     -1.74229429397183     -0.19613953347532
  H   -0.51061027772126     -1.85457224118875     -1.09676972557680
  H   -0.43911044895986     -2.26904774092444      0.49644756726487
