14
Coordinates from ORCA-job run
  C   0.24989207852768      0.43688118757888      0.41087951850257
  C   -1.06143617124436     -0.36827967584766      0.22224848550826
  Cl  1.14064125068158     -0.24874215787058      1.81968058632348
  H   -1.63601355109125     -0.28569837168225      1.14807364075913
  H   -1.63334345164866      0.13624169191922     -0.56359897098611
  C   1.15782671984031      0.38585509934577     -0.80880926153791
  H   1.45426983697526     -0.64477347040584     -1.00544932026703
  H   0.62693437817156      0.78314310619742     -1.67830811332419
  H   2.05844102059288      0.97757336072856     -0.64420945676264
  C   -0.09834171438724      1.81959216639587      0.73279808350983
  N   -0.43767965398339      2.92285947041281      0.95298948306776
  N   -0.92773815016780     -1.76187671281925     -0.12177917191790
  H   -0.38424784963146     -2.26166517618255      0.56913905301407
  H   -0.50820474263508     -1.89111051777039     -1.03165455588932
