15

C	0.0	0.0	0.0
C	-0.300709	-0.453666	-1.437002
Br	2.17115	0.0	0.0
H	0.45682	-0.046319	-2.107065
H	-0.20437	-1.551341	-1.451731
N	-0.439796	1.293606	0.245613
H	-0.912376	1.390168	1.133089
H	-1.057672	1.57495	-0.512768
N	-0.397433	-0.943805	0.952752
H	0.084912	-1.824063	0.844887
H	-0.305797	-0.612741	1.904234
N	-1.591552	0.085074	-1.82701
H	-2.360238	-0.208175	-1.217862
H	-1.821581	-0.181558	-2.775058
Br	-4.506763	0.0	0.0
