15

C	0.0	0.0	0.0
C	-0.313672	-0.765822	-1.307724
Br	2.036743	0.0	0.0
H	-0.382258	-1.82216	-1.007869
H	0.537562	-0.678314	-1.984786
N	-0.476647	1.317978	-0.062195
H	-0.284099	1.783919	-0.93699
H	-0.23418	1.878373	0.741948
N	-0.459382	-0.729202	1.146287
H	-0.270242	-0.19733	1.990302
H	-1.478735	-0.76112	1.039423
N	-1.474803	-0.214978	-1.995497
H	-2.256325	-0.085188	-1.350416
H	-1.785642	-0.902005	-2.673911
Br	-4.243949	0.0	0.0
