15

C	0.0	0.0	0.0
C	-0.329702	-0.088108	-1.506148
Br	2.036322	0.0	0.0
H	-0.024573	0.86373	-1.95921
H	0.309863	-0.865038	-1.92797
N	-0.505869	1.192159	0.552721
H	-0.392757	1.259431	1.554411
H	-0.166496	2.025511	0.092829
N	-0.435724	-1.183044	0.685769
H	-1.456563	-1.144997	0.685314
H	-0.123465	-1.162657	1.650581
N	-1.698755	-0.376494	-1.846407
H	-2.374959	0.192377	-1.341335
H	-1.925855	-1.335015	-1.615296
Br	-4.513376	0.0	0.0
