15

C	0.0	0.0	0.0
C	-0.441693	-0.18614	-1.450441
Br	1.963374	0.0	0.0
H	-0.019082	0.633338	-2.042568
H	-1.53116	-0.068973	-1.417276
N	-0.422021	1.258844	0.57607
H	-1.444573	1.226614	0.581794
H	-0.13489	2.024503	-0.026287
N	-0.473589	-1.114889	0.772289
H	-0.265514	-0.928908	1.748169
H	-1.492616	-1.113054	0.668139
N	-0.016339	-1.475813	-2.005519
H	-0.03628	-2.136464	-1.234506
H	-0.728111	-1.778425	-2.661069
Br	-3.805392	0.0	0.0
