15

C	0.0	0.0	0.0
C	-0.299156	-0.319266	-1.487777
Br	2.037644	0.0	0.0
H	0.020301	-1.35237	-1.674438
H	0.344351	0.321067	-2.097788
N	-0.44753	1.26831	0.486684
H	-1.466402	1.2211	0.529828
H	-0.168055	2.009778	-0.143534
N	-0.521769	-0.981484	0.844753
H	-0.416556	-0.746528	1.82135
H	-0.193752	-1.911876	0.637514
N	-1.663426	-0.146649	-1.915206
H	-2.334849	-0.594255	-1.295251
H	-1.918085	0.832862	-1.891268
Br	-4.422859	0.0	0.0
