19

C	-0.625196	-0.018586	-1.592897
C	0.118151	-0.068563	-0.277689
F	-0.338399	-1.117954	-2.378871
H	1.172959	-0.238617	-0.527523
N	-2.013747	0.116059	-1.476556
H	-2.415355	0.5475	-2.297953
H	-2.243453	0.666234	-0.662011
N	-0.013574	1.135163	-2.455987
O	-0.759828	2.048967	-2.810283
O	1.178263	1.052474	-2.722239
C	-0.350734	-1.231676	0.590918
H	-1.385412	-1.09065	0.919909
H	0.311726	-1.235985	1.46687
H	-0.28309	-2.182837	0.056387
C	0.04026	1.238853	0.504202
H	0.392733	2.099802	-0.073326
H	-0.977304	1.445498	0.860142
H	0.692965	1.0923	1.382101
H	1.932759	-0.099644	2.576067
