14
Coordinates from ORCA-job run
  C   0.76915655402190      0.11627415585040      0.28902987280118
  C   -0.76408400924924      0.17262339566446      0.16508412786587
  H   1.06752622948360      0.79082138542484      1.09507493888949
  H   -1.16545166494409     -0.08010872612543      1.14946062151943
  C   1.41482195060329      0.48878221687285     -0.96205441392469
  N   1.86755440826339      0.86901625058993     -1.97675107195034
  N   1.17747315225379     -1.27728968803236      0.72189618453938
  O   1.95488890145613     -1.90483249724153      0.01592469778067
  O   0.66957826904811     -1.64581555535703      1.77548716878701
  C   -1.21451467617216     -0.85152187822789     -0.79924341301597
  N   -1.56966786395545     -1.62974967349359     -1.60442079656533
  N   -1.13509868445820      1.53626032978698     -0.15872787069781
  H   -0.94886567508378      1.73790463417630     -1.13459172817085
  H   -2.12331689126727      1.67963565011204      0.00783168214196
