14
Coordinates from ORCA-job run
  C   0.75109488053315      0.17388869734199      0.29364009521253
  C   -0.77225183030169      0.12711542141231      0.01721985368166
  H   0.93520522485141      0.94925921359819      1.04056704787409
  H   -1.25182305836608     -0.17027915866746      0.95685972458380
  C   1.51220651263861      0.42693453731801     -0.91944971569314
  N   2.05843098223592      0.66937754703180     -1.93200039173348
  N   1.15796395038971     -1.12880410570532      0.94474241907505
  O   0.67511468966645     -1.29239929640361      2.06236646357557
  O   1.86751259772282     -1.90903332693901      0.32224456798896
  C   -1.05415030712036     -0.90954998874144     -0.97930782868774
  N   -1.24351037824202     -1.72439357250373     -1.80678222816245
  N   -1.18782223264007      1.44531044428953     -0.43643436164414
  H   -1.75421248892328      1.40695337886141     -1.26871365922381
  H   -1.69375854244457      1.93462020910733      0.28804801315310
