14
Coordinates from ORCA-job run
  C   0.67707882612369     -0.04090879060604      0.52846201880767
  C   -0.75887502034965      0.33489117220868      0.09686050149078
  H   0.69411808480429     -0.37799854426930      1.56792272363454
  H   -1.00861247500070      1.25521851659215      0.64851714253424
  C   1.56228479474909      1.10128206215470      0.33631142095760
  N   2.20981406347371      2.07154986906684      0.19983381163560
  N   1.14025979454312     -1.21492639416654     -0.30819326766732
  O   0.60093494174674     -2.27790525470631     -0.02960106791276
  O   1.97070541157655     -1.00633649430393     -1.18010042931114
  C   -1.72108051049879     -0.68668164403072      0.52445872584077
  N   -2.54747280304624     -1.44275284794375      0.87542778159808
  N   -0.78443355456828      0.46479456882469     -1.35006377884382
  H   -0.29679992162996      1.30608635616530     -1.63729053257839
  H   -1.73692163192357      0.51368742501423     -1.68854505018586
