14
Coordinates from ORCA-job run
  C   0.75289910806559      0.09524057690369      0.31126723186088
  C   -0.77037444688913      0.20475563817342      0.13159419900458
  H   1.04631951904993      0.78205685001962      1.11019591544557
  H   -1.21680826908262      0.00072957424255      1.10729113633846
  C   1.45566283410241      0.42170496655732     -0.92166233174340
  N   1.95376006448734      0.75070522547301     -1.93333486458599
  N   1.12036933301698     -1.29415852148572      0.79436964450066
  O   0.42394275696237     -1.71845538362322      1.70937433287981
  O   2.07409713220675     -1.85382033036603      0.27123178230837
  C   -1.23872594084245     -0.83116313150453     -0.81010421756419
  N   -1.63025884081386     -1.62099874385889     -1.58723176035800
  N   -1.07216749943288      1.57153194414905     -0.24916175858068
  H   -0.83932780491022      1.73314258242990     -1.22242363987944
  H   -2.05938794592020      1.75872875288984     -0.12740566962661
