14
Coordinates from ORCA-job run
  C   0.71355429496353     -0.03086297609856      0.48654350497772
  C   -0.74994269478108      0.32617565006178      0.14072677190082
  H   0.79685984120407     -0.36343379695337      1.52430446501839
  H   -0.97740288838001      1.24450520293668      0.70519158927819
  C   1.57200575546327      1.12106681119286      0.23855716234536
  N   2.19781755521864      2.09914722978401      0.06222179339320
  N   1.14096766804721     -1.20216261094407     -0.37211981785328
  O   1.91643328677003     -0.98687810662519     -1.29179855098208
  O   0.63173715826957     -2.27062384707851     -0.05976361609062
  C   -1.67213642048242     -0.70607510753215      0.62684339103081
  N   -2.46753059330066     -1.47092391069721      1.02706558161634
  N   -0.86358573931462      0.45261176736303     -1.30203542692466
  H   -1.83503776238322      0.48821964054389     -1.58341764657196
  H   -0.40473946129432      1.29923405404681     -1.61931920113821
