14
Coordinates from ORCA-job run
  C   0.68533365714966     -0.01716940095242      0.51999921715269
  C   -0.76096267142947      0.32916546032598      0.09908413127797
  H   0.72013599574705     -0.32943033270562      1.56674942223205
  H   -1.01629014371984      1.25804614540950      0.63365910359957
  C   1.55279832557409      1.13143047050533      0.28940906599837
  N   2.18602480339963      2.10629081171412      0.12195695956354
  N   1.15355411299567     -1.20476818782100     -0.29446254816871
  O   1.96691058549797     -1.00541272210497     -1.18444321913008
  O   0.63435887846462     -2.26834540509266      0.01801484943395
  C   -1.70319749396109     -0.69569289043726      0.56189881883626
  N   -2.51567478269716     -1.45427890142098      0.93901628718667
  N   -0.80756088832121      0.42627219287360     -1.34973818628412
  H   -1.76511795890757      0.46053678575124     -1.67557798591478
  H   -0.33031241979233      1.26435597395514     -1.66256591578336
