17
Coordinates from ORCA-job run
  C   0.75795659092195      0.01306952599168      0.37623206931060
  C   -0.64756706695110      0.25004964612236     -0.20706852097634
  F   0.67914288192217     -0.94331338279632      1.37681417625830
  H   -0.59925425827910      1.11855712023042     -0.86669306640117
  C   1.78112490478649     -0.44991362572883     -0.64369972674454
  H   2.75900253067364     -0.51836638917298     -0.16625153608095
  H   1.83521410378053      0.24185885796701     -1.48542820793832
  H   1.50117702656637     -1.43888026332942     -1.00899867791989
  C   1.18035052105722      1.28083342895311      1.00116633387248
  N   1.51253621459657      2.30287091732769      1.47450808767223
  C   -1.71917587034949      0.39409055637034      0.85329472097157
  H   -2.69181894582961      0.54787931850378      0.38270586505932
  H   -1.76145976080540     -0.49940151459055      1.47220957092073
  H   -1.50090992875625      1.25906083320564      1.48278274004977
  N   -0.96369308583997     -0.89819641269440     -1.11946789400067
  O   -1.31716168419998     -1.95211999766999     -0.59758381280349
  O   -0.80446417329405     -0.70707861868953     -2.32452212124964
