17
Coordinates from ORCA-job run
  C   0.72063927543355      0.13228293754647      0.42175551843082
  C   -0.62419585459333      0.16781876517696     -0.32712146376949
  F   0.54448378958571     -0.50631315853038      1.64007548152750
  H   -0.51036869439021      0.81401448227689     -1.19964471141504
  C   1.83000562540642     -0.57880986923668     -0.33001068430744
  H   2.75973476824752     -0.48917761235065      0.23237696281251
  H   1.96521134826504     -0.15220385024104     -1.32481399872208
  H   1.57867010553398     -1.63604014966573     -0.42441712702401
  C   1.09266852154523      1.53227654358327      0.70093300224703
  N   1.38727012721850      2.65140765707328      0.90008614763513
  C   -1.78615364762615      0.58825824279345      0.54868146949644
  H   -2.71098122001633      0.58412671414017     -0.03071050316627
  H   -1.61853755704967      1.60056175403110      0.92176679928750
  H   -1.89162172810923     -0.09255804401083      1.39040669540568
  N   -0.86597888743407     -1.19799528511843     -0.89879099684026
  O   -0.59434452662769     -1.35540552283044     -2.08859562735689
  O   -1.27750144538925     -2.06524360463741     -0.13297696424115
