17
Coordinates from ORCA-job run
  C   0.74386001568390      0.60385843139525      0.05213308442310
  C   -0.75791934282653      0.36833582850125     -0.21134388298978
  F   0.78100875979608      1.68018426751905      0.93837025396630
  H   -1.16274331356594      1.31220781203511     -0.57976393842776
  C   1.49654549980270     -0.55005378194825      0.67971616239482
  H   1.04997147100317     -0.79790492985451      1.64265015347941
  H   2.53154104261440     -0.24642024718487      0.84248951859224
  H   1.47366174027829     -1.42762172703337      0.03490084076267
  C   1.40260147759946      1.03804500784546     -1.19311118825665
  N   1.94273352695851      1.36922871660696     -2.18197481030295
  C   -1.51679862101405     -0.12997373938252      1.00076972758524
  H   -2.58743934418854     -0.13565340325429      0.78809249691987
  H   -1.33614136709976      0.54134569102225      1.84100036251526
  H   -1.21335770733995     -1.14085441509564      1.26751722261182
  N   -0.91330914160295     -0.59034636930404     -1.35508746139258
  O   -1.23174109853788     -0.11428787382446     -2.44235003316626
  O   -0.70147359756089     -1.78008926804337     -1.12400850871475
