17
Coordinates from ORCA-job run
  C   0.76530447352713      0.57525465280678      0.06731384471443
  C   -0.74338067490155      0.40092621096870     -0.20389585808879
  F   0.83972843096563      1.62912693250265      0.97803497659409
  H   -1.11247454012472      1.36666558840764     -0.55254237978535
  C   1.47399057650016     -0.61927792821724      0.66969733328512
  H   1.01518349578759     -0.87449039104624      1.62494004121855
  H   2.51814112236543     -0.35571184448096      0.84343985056177
  H   1.42305126781749     -1.47984987279895      0.00396367664849
  C   1.44257821823237      1.01266189155523     -1.16669838046832
  N   1.99730223729380      1.34474870789652     -2.14710201559848
  C   -1.52365285855798     -0.09656365750399      0.99463614744488
  H   -1.32344002480604      0.54956113928876      1.85017651441985
  H   -2.59296275382270     -0.06048311319168      0.77781110589117
  H   -1.25656946441976     -1.12295232391477      1.24036873046438
  N   -0.93052646688940     -0.52608348281412     -1.36919319714803
  O   -0.76318657439833     -1.72763531614993     -1.16415849758205
  O   -1.23008646456913     -0.01489719330840     -2.44579189257172
