17
Coordinates from ORCA-job run
  C   0.77668895532601      0.45945994800485     -0.14587462287489
  C   -0.73526589692811      0.27450725901907     -0.00733699990879
  F   0.97988284525155      1.70000154206175     -0.74064386192110
  H   -1.09752489700513      1.03682511781838      0.68472748204153
  C   1.46537220887245      0.47589899606637      1.20837352793138
  H   2.51728090267619      0.72488784290946      1.06303776261268
  H   1.40278106335411     -0.49499158846258      1.70035502125425
  H   1.00605404518487      1.23945590418193      1.83914444205145
  C   1.39397511268921     -0.56864157137721     -1.00136937783412
  N   1.94861576690166     -1.41461373354904     -1.59751603102749
  C   -1.16268614125331     -1.12315572761509      0.39834908728936
  H   -0.81233016735671     -1.85676559521871     -0.32873338589727
  H   -2.25194990108953     -1.17297656100199      0.45072318961289
  H   -0.76749363527785     -1.37630014054928      1.38314580845709
  N   -1.38769727267910      0.61995317974613     -1.31492364834334
  O   -1.06742992034607     -0.05642684262658     -2.28779763495802
  O   -2.20727306832024      1.53388197059256     -1.30266075848562
