17
Coordinates from ORCA-job run
  C   0.75088710386478      0.23246284102960      0.31174673810332
  C   -0.66418577642968      0.08452525804101     -0.27712850116076
  F   0.74100848501648     -0.19743318230553      1.63006762737615
  H   -0.68132218060566      0.58085029417828     -1.24932326611707
  C   1.81721516031686     -0.54784642568393     -0.43337330359652
  H   1.61950983592620     -1.61555798195242     -0.32977979631188
  H   1.82627572094017     -0.28575697835157     -1.49224079775031
  H   2.79214715950828     -0.32915146549553      0.00312217177697
  C   1.06456837587917      1.67392153486898      0.31359099524356
  N   1.31265236989861      2.82140998632263      0.28751033382896
  C   -1.75234060318867      0.59442308116593      0.64479844149100
  H   -1.72831601142786      0.05896147034057      1.59127360228910
  H   -2.73037591974396      0.45450816258170      0.18124994996338
  H   -1.60854864944870      1.66082358396120      0.82944700203206
  N   -0.88001643086003     -1.36635700367552     -0.59128481973996
  O   -1.15528729384708     -2.11126191437699      0.34539032797321
  O   -0.72287134579889     -1.70752126064842     -1.76306670540122
