17
Coordinates from ORCA-job run
  C   0.75599284208226      0.17305048771579      0.33730589985455
  C   -0.67012194487511      0.13151935869200     -0.24225419160261
  F   0.77544407393666     -0.50939802925324      1.54411003141114
  H   -0.70949879405135      0.81030446120249     -1.09635111807015
  C   1.81090819895155     -0.43406847883345     -0.56817182990323
  H   2.79357164587618     -0.29660241281936     -0.11617098455238
  H   1.62157041786450     -1.50301117017602     -0.67439049375403
  H   1.79613180293093      0.03253264177860     -1.55407728711577
  C   1.06177624519693      1.58852084367252      0.61862362562836
  N   1.30013312166979      2.72120715308481      0.81652841722484
  C   -1.74183626515618      0.43857424707060      0.78300522854194
  H   -1.69642608279110     -0.27446570087407      1.60319078834038
  H   -2.72836138691812      0.38565937370542      0.31936994713818
  H   -1.59911330310895      1.44800031040759      1.17382925352195
  N   -0.88447265933307     -1.23048063698639     -0.83338330757001
  O   -0.74774390260643     -1.33193420388278     -2.05208167424271
  O   -1.13795400966849     -2.14840824450452     -0.05808230485045
