15

C	0.0	0.0	0.0
C	-0.256844	0.139703	-1.524206
Cl	1.805227	0.0	0.0
H	-0.001752	-0.830944	-1.951136
C	-0.561878	1.049628	0.813605
N	-0.646225	1.996635	1.520261
N	-0.396902	-1.355396	0.515503
O	-0.479788	-1.468485	1.736546
O	-0.395084	-2.284688	-0.295543
C	0.543799	1.192931	-2.153283
N	1.112433	2.021319	-2.76198
N	-1.686373	0.409279	-1.958542
O	-2.060833	1.578542	-1.928263
O	-2.267687	-0.525412	-2.506008
H	-1.903838	0.0	0.0
