15

C	0.0	0.0	0.0
C	-0.2809	0.563161	-1.403518
Br	2.17116	0.0	0.0
H	0.475677	0.191096	-2.096
H	-0.170776	1.657279	-1.335889
N	-0.392319	0.875493	1.01939
H	0.132562	1.739392	1.000577
H	-0.341997	0.46271	1.942072
N	-0.458364	-1.299188	0.136611
H	-1.08588	-1.507408	-0.636879
H	-0.913477	-1.478182	1.019832
N	-1.575746	0.07012	-1.837878
H	-2.338124	0.30611	-1.196785
H	-1.817849	0.425202	-2.753413
Br	-4.466648	0.0	0.0
