15

C	0.0	0.0	0.0
C	-0.306059	-0.306775	-1.486708
Br	2.038413	0.0	0.0
H	0.084519	-1.309536	-1.701345
H	0.277804	0.388677	-2.09547
N	-0.437715	1.265199	0.50798
H	-0.14941	2.012405	-0.111208
H	-1.456872	1.227023	0.548151
N	-0.529143	-0.991022	0.829069
H	-0.405203	-0.788873	1.810314
H	-0.237767	-1.925585	0.588629
N	-1.689157	-0.230752	-1.880138
H	-2.30829	-0.718729	-1.238235
H	-2.021187	0.724616	-1.861238
Br	-4.490433	0.0	0.0
