14

C	0.0	0.0	0.0
C	-0.523038	0.129711	-1.43127
F	1.380069	0.0	0.0
H	-1.495975	0.619514	-1.34262
H	-0.369257	-0.908241	0.470903
C	-0.385242	1.179201	0.807019
N	-0.488731	2.159507	1.444539
N	-0.674977	-1.235886	-1.957353
H	-0.923814	-1.143857	-2.939311
H	-1.521194	-1.573708	-1.491025
N	0.387523	0.957243	-2.194431
H	1.23016	0.431064	-2.390993
H	-0.051153	1.209433	-3.07097
H	-2.927172	0.0	0.0
