14

C	0.0	0.0	0.0
C	-0.508755	0.06993	-1.455108
F	1.376425	0.0	0.0
H	0.405829	0.115355	-2.057741
H	-0.348429	-0.921146	0.465966
C	-0.388187	1.143824	0.849406
N	-0.539186	2.022472	1.613522
N	-1.261649	1.300764	-1.677387
H	-2.127389	1.154578	-1.133789
H	-1.525779	1.317309	-2.658504
N	-1.192271	-1.193535	-1.740146
H	-2.062605	-1.111871	-1.192241
H	-1.463378	-1.179262	-2.719046
H	-3.059301	0.0	0.0
