14

C	0.0	0.0	0.0
C	-0.581761	-0.10093	-1.39278
F	1.370328	0.0	0.0
H	-1.669613	-0.108381	-1.182308
H	-0.369493	-0.855654	0.567696
C	-0.406102	1.245357	0.68932
N	-0.559429	2.256394	1.266663
N	-0.185108	-1.375732	-1.970919
H	0.626966	-1.207538	-2.553381
H	-0.9358	-1.712227	-2.560542
N	-0.134676	1.026075	-2.229657
H	-0.864477	1.200147	-2.91392
H	-0.08219	1.868676	-1.666002
H	-3.163989	0.0	0.0
