14

C	0.0	0.0	0.0
C	-0.466505	-0.0587	-1.489989
F	1.37676	0.0	0.0
H	0.481067	-0.037599	-2.043298
H	-0.359645	-0.862582	0.558101
C	-0.398462	1.245118	0.679823
N	-0.511527	2.275828	1.232531
N	-1.300233	1.033406	-1.974388
H	-0.845979	1.9238	-1.791015
H	-2.139064	0.980124	-1.377934
N	-1.116666	-1.343432	-1.68962
H	-1.973788	-1.251962	-1.12533
H	-1.420068	-1.351415	-2.659948
H	-2.909309	0.0	0.0
