14

C	0.0	0.0	0.0
C	-0.501937	-0.013651	-1.457623
F	1.38983	0.0	0.0
H	0.414442	-0.018274	-2.058824
H	-0.341592	-0.895663	0.516903
C	-0.384174	1.18724	0.785641
N	-0.48881	2.091859	1.52684
N	-1.232653	1.214713	-1.756826
H	-1.489051	1.185125	-2.740254
H	-2.10312	1.119738	-1.213977
N	-1.203569	-1.280368	-1.670152
H	-1.482613	-1.312979	-2.646713
H	-2.06956	-1.159264	-1.122007
H	-3.047005	0.0	0.0
