14

C	0.0	0.0	0.0
C	-0.445966	0.072369	-1.45702
F	1.393016	0.0	0.0
H	-1.53479	0.194847	-1.395295
H	-0.376051	-0.908024	0.471222
C	-0.388443	1.18683	0.775861
N	-0.604136	2.168501	1.389013
N	-0.147647	-1.175686	-2.162879
H	0.771625	-1.504676	-1.887588
H	-0.828701	-1.866905	-1.867859
N	0.184502	1.228085	-2.069246
H	-0.094666	1.238747	-3.040621
H	1.189518	1.105335	-2.045472
H	-2.926716	0.0	0.0
