14

C	0.0	0.0	0.0
C	-0.249207	-0.02337	-1.561744
F	1.385994	0.0	0.0
H	0.276495	0.887154	-1.888071
H	-0.386351	-0.899085	0.485718
C	-0.442466	1.211233	0.695724
N	-0.559795	2.228756	1.266848
N	-1.596685	-0.089259	-2.016425
H	-2.281918	-0.04511	-1.199301
H	-1.79883	0.658445	-2.668421
N	0.486903	-1.15858	-2.140242
H	1.311643	-1.387339	-1.593547
H	-0.16324	-1.943897	-2.127483
H	-3.045132	0.0	0.0
