14

C	0.0	0.0	0.0
C	-0.628532	0.221422	-1.356011
F	1.360615	0.0	0.0
H	-1.701259	0.319244	-1.087653
H	-0.363166	-0.94483	0.416667
C	-0.395188	1.082838	0.930728
N	-0.520903	1.94433	1.717538
N	-0.393029	-0.94737	-2.22778
H	-0.332209	-1.782641	-1.65466
H	-1.246067	-1.069243	-2.765869
N	-0.134667	1.450097	-1.949847
H	0.641387	1.212405	-2.557064
H	-0.865981	1.852351	-2.521075
H	-3.205916	0.0	0.0
