14

C	0.0	0.0	0.0
C	-0.363522	-0.057305	-1.502109
F	1.387998	0.0	0.0
H	0.308872	0.696896	-1.948329
H	-0.384157	-0.864897	0.539019
C	-0.404027	1.261607	0.640643
N	-0.599777	2.288344	1.17523
N	-1.709684	0.226653	-1.899851
H	-2.418395	-0.02112	-1.146085
H	-1.815704	1.231273	-1.992788
N	-0.009253	-1.417333	-1.930729
H	-0.494846	-1.555553	-2.808044
H	0.98933	-1.484627	-2.087502
H	-3.43363	0.0	0.0
