14

C	0.0	0.0	0.0
C	-0.612863	0.153159	-1.387313
Br	1.961604	0.0	0.0
H	-0.378801	-0.733537	-1.983863
H	-1.726547	0.154316	-1.09123
C	-0.377079	1.142806	0.840018
N	-0.580318	2.088264	1.506849
C	-0.490115	-1.300876	0.628755
H	-0.136115	-2.147138	0.032513
H	-0.116714	-1.40049	1.649718
H	-1.585	-1.20425	0.596619
C	-0.208969	1.35011	-2.099771
N	0.091704	2.312567	-2.705126
F	-2.845222	0.0	0.0
