14

C	0.0	0.0	0.0
C	-0.613225	0.193141	-1.381719
Br	1.962041	0.0	0.0
H	-0.381701	-0.677689	-2.002872
H	-1.727437	0.187504	-1.084995
C	-0.37599	1.118265	0.872779
N	-0.582965	2.043924	1.566154
C	-0.487953	-1.319995	0.589607
H	-1.583251	-1.224294	0.561887
H	-0.133293	-2.146674	-0.032802
H	-0.112096	-1.450764	1.606221
C	-0.205011	1.407856	-2.060868
N	0.095672	2.386567	-2.6389
F	-2.846132	0.0	0.0
