14

C	0.0	0.0	0.0
C	-0.590261	-0.007054	-1.40897
Br	1.962609	0.0	0.0
H	-0.329052	0.908499	-1.946394
H	-1.705299	-0.02177	-1.131507
C	-0.396001	1.241461	0.670198
N	-0.599074	2.256133	1.226981
C	-0.465043	-1.216591	0.795695
H	-0.091226	-2.124925	0.316933
H	-0.087291	-1.170301	1.819016
H	-1.560463	-1.149909	0.758447
C	-0.173631	-1.166345	-2.176085
N	0.157863	-2.109502	-2.795066
F	-2.813138	0.0	0.0
