14

C	0.0	0.0	0.0
C	-0.613301	0.169391	-1.385076
Br	1.962202	0.0	0.0
H	-1.727221	0.16947	-1.087776
H	-0.382706	-0.712693	-1.990059
C	-0.374509	1.134477	0.852135
N	-0.588362	2.069889	1.530324
C	-0.486894	-1.308801	0.613912
H	-0.112308	-1.418967	1.633389
H	-1.582493	-1.21587	0.583297
H	-0.128438	-2.146249	0.008814
C	-0.202865	1.370529	-2.086426
N	0.101748	2.338033	-2.68105
F	-2.846927	0.0	0.0
