14

C	0.0	0.0	0.0
C	-0.615425	-0.186981	-1.384511
Br	1.963033	0.0	0.0
H	-1.731358	-0.151123	-1.080515
H	-0.360869	0.647961	-2.042459
C	-0.38509	1.323964	0.499067
N	-0.575942	2.401103	0.927181
C	-0.471957	-1.08674	0.961351
H	-0.124314	-2.059949	0.609167
H	-1.566483	-1.007219	0.92754
H	-0.080292	-0.906829	1.964989
C	-0.243192	-1.444271	-2.003549
N	0.03604	-2.464375	-2.518424
F	-2.833239	0.0	0.0
