12
Coordinates from ORCA-job run
  C   -0.37675122965937      0.03163071791943     -0.34844169970978
  C   0.98662267292732     -0.20598879269458      0.30045883011383
  Cl  -0.19967984301552      0.38485569376147     -2.07163721977549
  H   1.49249149018515     -1.00910061339088     -0.23758782629257
  H   0.83346589009415     -0.53060246931728      1.33454874573795
  C   -1.12060462920638      1.09281976094841      0.31524782082912
  N   -1.67023303788379      1.96430528846429      0.88134534247869
  N   -1.20112857179118     -1.27156448696405     -0.24625622973384
  O   -0.55891190741151     -2.31176486007218     -0.26793993777392
  O   -2.41442815538105     -1.14345193757863     -0.19882533031827
  C   1.78856637054864      1.01207617796470      0.27749817576450
  N   2.43859095059356      1.98878552095931      0.26158932867977
