12
Coordinates from ORCA-job run
  C   -0.43610856450287      0.05455629612381     -0.52154195498066
  C   1.07315993422769      0.20817317740625     -0.34926446596985
  Cl  -0.81600693514854     -0.15373855385530     -2.23758297441968
  H   1.39269435422777      1.10228486496461     -0.89073951773603
  H   1.56299912524203     -0.66320353267458     -0.78707159110087
  C   -1.17232531100851      1.18472893447225      0.02551044320624
  N   -1.70842015486915      2.14100000363854      0.44993904539363
  N   -0.89687801644750     -1.23343355005960      0.19621616874119
  O   -1.99856727439823     -1.20295844354906      0.72205449926705
  O   -0.12202162349915     -2.17528244976681      0.12878369680493
  C   1.42469343684021      0.32385560703350      1.06332654652362
  N   1.69678102933625      0.41501764626639      2.20137010427042
