12
Coordinates from ORCA-job run
  C   -0.38153626027412      0.11206047214799     -0.50058271778229
  C   0.76268959701138      0.67197769574220      0.35433994822912
  Cl  0.11558377175451     -0.13399160029667     -2.16114375198432
  H   1.07941192636883      1.62698975563842     -0.07216089010386
  H   0.38538104618406      0.84672672445481      1.36516762140329
  C   -1.54016085142395      0.99405985812861     -0.43440302875192
  N   -2.44783922616761      1.73902863108539     -0.38105879849944
  N   -0.79779821309449     -1.23771525530402      0.15611328610626
  O   -0.60388351854697     -2.27012771845630     -0.45537754743711
  O   -1.25861613533289     -1.09540393243984      1.28047172752899
  C   1.89039475416626     -0.25346562361547      0.40008538707692
  N   2.79537310935501     -0.99913900708513      0.44754876421437
