12
Coordinates from ORCA-job run
  C   -0.40557296882302      0.08447952205512     -0.53866650586945
  C   1.10165552946363      0.13071112883320     -0.30193728301584
  Cl  -0.72621841642902     -0.09528441120288     -2.27027819738407
  H   1.54740736962355     -0.77428807736154     -0.71802210878414
  H   1.50642661776202      0.99797960773239     -0.83005393602080
  C   -1.08415697932631      1.26227475937958     -0.01840940905064
  N   -1.57454057945716      2.24915821948127      0.39092180406434
  N   -0.99172857979896     -1.16767360095356      0.15202516348335
  O   -0.26589752785890     -2.15009177445518      0.16430047408911
  O   -2.13390387425319     -1.07253335060916      0.57330817049476
  C   1.39999971759285      0.22748245464050      1.12416054733371
  N   1.62752969150450      0.30778552246026      2.27265128065968
