12

C	0.0	0.0	0.0
C	-0.583636	-0.060224	-1.381953
F	1.353049	0.0	0.0
H	-1.70636	0.105287	-1.097114
H	-0.392152	-0.796553	0.622964
H	-0.500239	-1.093347	-1.732952
N	-0.384708	1.2698	0.722506
O	-0.598585	2.278689	0.063149
O	-0.344669	1.211072	1.949565
C	0.035013	0.829542	-2.341865
N	0.544744	1.529883	-3.136996
F	-2.657755	0.0	0.0
