13
Coordinates from ORCA-job run
  C   0.64803487848920     -0.00345795414646     -0.44723307281012
  C   -0.76918043311155     -0.53983737624792     -0.47509834302466
  Br  1.37362934315074     -0.17401310870709     -2.24311480416378
  H   -1.38223560837749      0.04409363439413     -1.16038082124342
  H   -0.77959074365075     -1.59061336346095     -0.76350200490977
  C   1.51040278942603     -0.70377422745166      0.48761128464566
  N   2.18738057304107     -1.33693622487233      1.21104109154667
  N   0.64633886604752      1.50301778061736     -0.12676029435988
  O   -0.30858281220304      2.12951811621032     -0.55769075055497
  O   1.61452270058485      1.93031793753167      0.47784543412975
  N   -1.41551060105075     -0.44584632320502      0.87475826901876
  O   -0.83785402271307      0.21316583008747      1.73552762158638
  O   -2.48635492963277     -1.02563472074952      0.98799639013939
