13
Coordinates from ORCA-job run
  C   0.69313404235200     -0.08378609313566     -0.36006543771660
  C   -0.71451791335498     -0.64023391052351     -0.43559565429015
  Br  1.61703174542007     -0.60784713936935     -1.98899540194716
  H   -0.69746807751345     -1.72795187667273     -0.49942542242848
  H   -1.24252295487415     -0.22148577880225     -1.29131926736082
  C   1.44075233960426     -0.56046430677440      0.78967434015216
  N   2.04081877316874     -1.01775866008170      1.69150855419548
  N   0.66371197500156      1.45594953996824     -0.36131239614510
  O   -0.23521958605815      1.96264103929251     -1.01352474420862
  O   1.56321064499285      2.01616156501213      0.24104573813596
  N   -1.50955129758122     -0.28154081742248      0.78401668347522
  O   -2.59105868590897     -0.84222537813495      0.89280061592548
  O   -1.02832100524858      0.54954181664414      1.55019239221262
