13
Coordinates from ORCA-job run
  C   0.51452413115589      0.12227333698988     -0.30642334675651
  C   -0.88028395896377      0.14176395574866      0.30616310839301
  Br  0.41922001015560     -0.22724462825379     -2.21074632223743
  H   -1.49154118278064      0.89697136204639     -0.17806745118837
  H   -0.80824495354097      0.31994850173941      1.38101128750886
  C   1.43352955062866     -0.81068266657248      0.32179228783417
  N   2.18013089030762     -1.54890451248723      0.85187911327878
  N   1.12630034967420      1.54082562479672     -0.15375854625912
  O   2.33809184809168      1.61494994406191     -0.26344229403301
  O   0.33429284761201      2.45450534482517      0.02927453534233
  N   -1.55420364313066     -1.17785928016881      0.11702241407970
  O   -1.04882005682156     -2.13919862168861      0.68944734168813
  O   -2.56199583238805     -1.18734836103723     -0.58315212765053
