13
Coordinates from ORCA-job run
  C   0.58023049494668     -0.01463330287900     -0.42685602593150
  C   -0.50760392820399     -0.75974453096209      0.33507933088799
  Br  0.19692097484382      0.06905868627299     -2.30768299328239
  H   -0.30440337588582     -0.69803651599192      1.40576631224445
  H   -0.56165847624617     -1.79690787112519      0.00969725041157
  C   1.84960099357731     -0.69571258556650     -0.21439330760511
  N   2.85892413284243     -1.26907430692289     -0.02483546421867
  N   0.75834026171871      1.41424072692735      0.18414752337839
  O   0.78113269679337      2.37106916019075     -0.55995101118106
  O   0.90079326779347      1.39046592791605      1.39739689248465
  N   -1.85331480105885     -0.15271702230276      0.10924373046541
  O   -2.79392576679106     -0.93019240797726      0.00183892884590
  O   -1.90603647432988      1.07318404242050      0.09154883350036
