13
Coordinates from ORCA-job run
  C   0.47256402704213      0.15207895484786     -0.40055654444174
  C   -0.79020753530931      0.09839632488777      0.44600440785768
  Br  0.05237678070219      0.20024600587055     -2.28861915046002
  H   -0.52710577319299      0.10492989297888      1.50730785179129
  H   -1.43509529800195      0.94493850911095      0.22758151061619
  C   1.42372326675251     -0.90570177319703     -0.10824258145544
  N   2.21086431539450     -1.73138340033267      0.17829558516993
  N   1.17508175936357      1.50533290660590     -0.08800542630529
  O   0.43969759315974      2.42927343326136      0.22920754638883
  O   2.38657882885050      1.53079879616468     -0.22194086649118
  N   -1.59832459252222     -1.14158947945630      0.21412970903582
  O   -1.04032168460051     -2.12251516885686     -0.26398562719244
  O   -2.76883168763817     -1.06480500188508      0.56882358548638
