15

C	0.0	0.0	0.0
C	-0.44606	-0.447187	-1.433778
Br	1.957757	0.0	0.0
H	0.383444	-0.253881	-2.118081
C	-0.357368	1.421098	0.184303
N	-0.510289	2.56307	0.422208
N	-0.491136	-0.896239	0.989986
H	-1.53291	-0.734311	0.85564
H	-0.197401	-0.564404	1.902084
C	-1.634448	0.182555	-2.00954
N	-2.301375	0.687534	-2.837788
N	-0.569299	-1.955656	-1.445395
O	-1.681152	-2.462496	-1.418057
O	0.501236	-2.559218	-1.490048
F	-2.572322	0.0	0.0
