15

C	0.0	0.0	0.0
C	-0.584614	-0.036175	-1.415739
Br	1.947334	0.0	0.0
H	-1.711683	0.029846	-1.114722
C	-0.36231	1.235716	0.726312
N	-0.522205	2.124362	1.481086
N	-0.494371	-1.182733	0.650524
H	-0.177075	-1.180568	1.614354
H	-1.523298	-1.011609	0.621371
C	-0.247368	-1.268112	-2.102344
N	-0.026539	-2.26153	-2.69054
N	-0.18857	1.142706	-2.235019
O	0.349676	0.952867	-3.324621
O	-0.458472	2.245619	-1.766
F	-2.727476	0.0	0.0
