15

C	0.0	0.0	0.0
C	-0.235106	0.213055	-1.549618
Br	2.023867	0.0	0.0
H	0.451217	-0.470705	-2.052168
C	-0.401345	1.185317	0.762978
N	-0.560829	2.166817	1.390023
N	-0.506465	-1.17057	0.572334
H	-0.30893	-1.954691	-0.040708
H	-1.563031	-0.914464	0.513359
C	0.053609	1.575219	-1.973843
N	0.297934	2.671012	-2.320595
N	-1.577955	-0.225581	-2.10832
O	-1.716741	-1.442798	-2.157866
O	-2.306985	0.614242	-2.607932
F	-2.573631	0.0	0.0
