15

C	0.0	0.0	0.0
C	-0.268357	0.19674	-1.54185
Br	2.023857	0.0	0.0
H	0.469333	-0.418523	-2.06095
C	-0.408718	1.172794	0.774708
N	-0.562189	2.137102	1.428985
N	-0.461215	-1.187011	0.597475
H	-1.508743	-0.979732	0.550892
H	-0.242124	-1.971641	-0.007322
C	-0.095575	1.579966	-1.965719
N	0.071474	2.689539	-2.31556
N	-1.570165	-0.362981	-2.087259
O	-2.339966	0.388619	-2.65969
O	-1.628056	-1.587537	-2.062571
F	-2.528333	0.0	0.0
