10
Coordinates from ORCA-job run
  C   1.01959456350518     -0.11283181614030      0.39289982351723
  C   -0.20916678017638      0.02848073322699     -0.48750004896255
  Br  2.57824484483016     -0.60818739214385     -0.66174474212598
  H   -0.03335111202202      0.82744388194854     -1.21109208388276
  H   1.24393524767268      0.82912203426751      0.88882988536139
  H   0.88809812158852     -0.89492762799535      1.14077994889737
  H   -0.36179876585590     -0.89860672079443     -1.05570847569859
  N   -1.33382495951927      0.40869470547305      0.36597860268872
  H   -1.72469828395359     -0.41038161835438      0.81391825348297
  H   -2.06803287606938      0.83019382051223     -0.18736116327779
