14

C	0.0	0.0	0.0
C	-0.605066	0.010306	-1.394081
Br	2.012498	0.0	0.0
H	-1.713588	0.063573	-1.172892
H	-0.240002	-0.975703	0.420656
N	-0.508886	1.003119	0.819123
H	-0.352105	0.849992	1.801124
H	-0.29043	1.937181	0.516207
C	-0.284346	-1.194922	-2.142056
N	-0.0271	-2.205322	-2.682772
N	-0.250177	1.212924	-2.216502
O	-0.24247	1.081912	-3.436682
O	-0.046477	2.266132	-1.617866
Cl	-3.545376	0.0	0.0
