14

C	0.0	0.0	0.0
C	-0.25232	-0.276361	-1.517797
Br	1.951201	0.0	0.0
H	0.44396	0.348283	-2.081854
H	-0.355955	-0.839865	0.591676
N	-0.504255	1.222819	0.51049
H	-1.522188	1.091947	0.582497
H	-0.312145	1.986968	-0.128039
C	-1.548071	-0.074558	-2.180226
N	-2.273258	0.085405	-3.094838
N	0.176555	-1.689585	-1.867559
O	-0.0954	-2.577215	-1.067739
O	0.750345	-1.835961	-2.94347
Cl	-3.362985	0.0	0.0
