14

C	0.0	0.0	0.0
C	-0.271785	-0.271136	-1.50092
Br	1.941068	0.0	0.0
H	0.435672	0.342605	-2.060867
H	-0.336489	-0.833829	0.617018
N	-0.490147	1.308314	0.321352
H	-1.514863	1.208098	0.281626
H	-0.245922	1.52028	1.282411
C	-1.559682	-0.029147	-2.165711
N	-2.267297	0.144635	-3.091412
N	0.119536	-1.694755	-1.849205
O	-0.129155	-2.574594	-1.033536
O	0.646068	-1.857299	-2.946678
Cl	-3.349041	0.0	0.0
