14

C	0.0	0.0	0.0
C	-0.230155	-0.151392	-1.530789
Br	2.003487	0.0	0.0
H	0.480566	0.505059	-2.0381
H	-0.352266	-0.880292	0.529676
N	-0.484208	1.184391	0.597657
H	-1.49978	1.045674	0.691573
H	-0.313023	1.988896	0.003895
C	-1.517087	0.137653	-2.180268
N	-2.219588	0.430333	-3.080064
N	0.178442	-1.538797	-1.99081
O	-0.08426	-2.480712	-1.252803
O	0.728694	-1.608946	-3.086011
Cl	-3.317353	0.0	0.0
