15

C	-0.645988	-0.009138	-1.507316
C	0.066987	-0.078139	-0.144156
Cl	-0.035291	-1.458204	-2.535461
H	1.134939	-0.25951	-0.289508
N	-2.055083	-0.015682	-1.375705
H	-2.359888	-0.847987	-0.883824
H	-2.512326	0.039778	-2.276579
C	-0.227976	1.184661	-2.246718
N	0.047325	2.095054	-2.935686
C	-0.490053	-1.236654	0.581538
N	-1.015894	-2.117472	1.157233
N	-0.028937	1.179553	0.530541
H	-0.799531	1.188059	1.188991
H	0.938141	1.233027	1.043401
H	2.264212	0.869975	1.377784
