15

C	0.0	0.0	0.0
C	-0.247194	-0.172275	-1.507672
Cl	1.747706	0.0	0.0
H	0.190324	0.699234	-1.989125
H	0.276634	-1.075562	-1.806601
N	-0.426208	1.35476	0.529597
O	-0.452392	1.520913	1.736554
O	-0.548647	2.225292	-0.320957
N	-0.432469	-1.204669	0.819476
O	-0.598166	-1.084663	2.019342
O	-0.429817	-2.255562	0.188521
N	-1.604315	-0.305634	-2.124266
O	-2.017794	-1.447282	-2.299116
O	-2.099412	0.707783	-2.604131
F	-2.194208	0.0	0.0
