13

C	-0.475712	2.3e-05	-1.442761
C	0.0	0.0	0.0
F	-0.145139	-1.17776	-2.020721
H	1.093086	0.0	0.0
H	-0.324027	-0.954653	0.426545
C	-1.923247	0.218421	-1.600876
N	-3.087295	0.338674	-1.708447
N	0.215651	1.120713	-2.236091
O	0.882264	0.79568	-3.201537
O	-0.008981	2.245785	-1.81205
C	-0.544198	1.089814	0.794919
N	-0.973204	1.948823	1.470348
Cl	3.221347	0.0	0.0
