13

C	-0.47883	0.082214	-1.435961
C	0.0	0.0	0.0
F	-0.053378	-0.969128	-2.164696
H	1.091789	0.0	0.0
H	-0.335763	0.890416	0.535529
C	-1.942034	0.20023	-1.563817
N	-3.108597	0.308458	-1.651397
N	0.096635	1.365671	-2.065754
O	-0.201062	2.394419	-1.472575
O	0.744598	1.246562	-3.089845
C	-0.53411	-1.197235	0.633097
N	-0.986183	-2.153561	1.142302
Cl	3.224528	0.0	0.0
