13

C	-0.519994	0.021322	-1.423743
C	0.0	0.0	0.0
F	-1.885737	-0.0024	-1.440807
H	1.092043	0.0	0.0
H	-0.349243	-0.925682	0.468343
C	-0.058466	1.163833	-2.217822
N	0.305149	2.092712	-2.837843
N	-0.043824	-1.263172	-2.12727
O	1.126329	-1.248482	-2.515021
O	-0.87522	-2.169417	-2.218559
C	-0.527116	1.144687	0.730942
N	-0.971999	2.049591	1.33272
Cl	3.235331	0.0	0.0
