13

C	-0.525943	0.10474	-1.412823
C	0.0	0.0	0.0
F	-0.088375	-0.915299	-2.185342
H	1.091665	0.0	0.0
H	-0.319818	0.875295	0.566512
C	-1.999985	0.165786	-1.492435
N	-3.173224	0.217823	-1.563756
N	-0.041361	1.410744	-2.079246
O	-0.016017	1.389302	-3.318297
O	0.231125	2.349428	-1.322341
C	-0.528911	-1.209582	0.616957
N	-0.969327	-2.187968	1.096785
Cl	3.231273	0.0	0.0
