13

C	-0.503003	0.035689	-1.422327
C	0.0	0.0	0.0
F	-1.865515	-0.12745	-1.468603
H	1.092102	0.0	0.0
H	-0.338078	-0.944426	0.434914
C	-0.159407	1.255716	-2.155847
N	0.073775	2.270846	-2.697232
N	0.069163	-1.179259	-2.16453
O	0.797258	-0.975788	-3.126838
O	-0.300353	-2.259164	-1.723759
C	-0.541823	1.117768	0.757819
N	-0.99399	2.009622	1.372617
Cl	3.212356	0.0	0.0
