13

C	-0.543001	0.009766	-1.411318
C	0.0	0.0	0.0
F	0.15792	0.904939	-2.197564
H	1.091304	0.0	0.0
H	-1.600093	0.280505	-1.453637
H	-0.401384	-0.986507	-1.832386
N	-0.465861	-1.228563	0.695332
O	0.190981	-1.642578	1.644337
O	-1.501123	-1.764552	0.271781
N	-0.495588	1.149177	0.787117
O	-0.617625	1.031141	2.005242
O	-0.709227	2.186667	0.158337
F	2.467118	0.0	0.0
