13

C	-0.503048	0.008649	-1.424246
C	0.0	0.0	0.0
F	-0.001025	1.117343	-2.082328
H	1.092274	0.0	0.0
H	-1.593997	0.056707	-1.478583
H	-0.121428	-0.885417	-1.913378
N	-0.481968	-1.235225	0.652542
O	-1.114723	-1.170409	1.706383
O	-0.205506	-2.284607	0.068097
N	-0.508726	1.154613	0.77577
O	-1.428741	1.828175	0.29894
O	0.038298	1.378592	1.852027
F	2.470461	0.0	0.0
