13

C	-0.497254	0.062487	-1.425438
C	0.0	0.0	0.0
F	-0.221035	-1.157914	-2.031612
H	1.089555	0.0	0.0
H	-1.574367	0.232638	-1.482147
H	0.054391	0.841722	-1.946907
N	-0.583253	-1.179053	0.690368
O	0.141605	-1.833222	1.430563
O	-1.776328	-1.414988	0.482205
N	-0.4572	1.184104	0.737509
O	-0.69584	1.08252	1.940345
O	-0.512187	2.237569	0.098021
F	2.478452	0.0	0.0
