13

C	-0.527927	0.076616	-1.416442
C	0.0	0.0	0.0
F	-0.350974	-1.165899	-2.008165
H	1.089353	0.0	0.0
H	0.055985	0.809777	-1.967897
H	-1.592736	0.314699	-1.449466
N	-0.605958	-1.18462	0.66942
O	-1.837806	-1.215952	0.722678
O	0.139061	-2.053758	1.103051
N	-0.439943	1.180227	0.759643
O	-0.626074	2.216743	0.115395
O	-0.527516	1.089723	1.981022
F	2.487786	0.0	0.0
