13

C	-0.519381	-0.041784	-1.420066
C	0.0	0.0	0.0
F	-0.314863	1.210264	-1.986132
H	1.087847	0.0	0.0
H	0.058197	-0.773612	-1.980754
H	-1.588107	-0.260327	-1.46622
N	-0.445132	-1.196459	0.728853
O	-0.582807	-2.227468	0.063915
O	-0.580738	-1.125063	1.94829
N	-0.598972	1.168819	0.701832
O	0.151483	1.964728	1.255411
O	-1.830263	1.261239	0.667313
F	2.486633	0.0	0.0
