13

C	-0.467673	-0.236388	-1.418957
C	0.0	0.0	0.0
F	-0.092273	0.846702	-2.195786
H	1.092149	0.0	0.0
H	-1.553303	-0.342389	-1.494311
H	0.04386	-1.121664	-1.791924
N	-0.468683	-1.11055	0.847439
O	-0.293346	-2.241934	0.388256
O	-0.971729	-0.87293	1.945081
N	-0.564897	1.252363	0.556912
O	-1.615231	1.683037	0.070274
O	0.044596	1.777575	1.483179
F	2.475153	0.0	0.0
