11

C	-0.558929	-0.071737	-1.40156
C	0.0	0.0	0.0
F	-0.399205	1.145371	-2.071719
H	1.098599	0.0	0.0
H	-0.040231	-0.835873	-1.988348
H	-1.629733	-0.294675	-1.372217
H	-0.379812	0.909489	0.475178
N	-0.495304	-1.192646	0.736253
H	-0.517111	-0.953117	1.720989
H	0.245644	-1.885363	0.661196
H	3.121105	0.0	0.0
