16

C	-0.431055	-0.012507	-1.485406
C	0.0	0.0	0.0
Cl	0.1602	-1.531897	-2.224489
H	1.095023	0.0	0.0
C	-1.893286	-0.015383	-1.582972
N	-3.067432	0.007637	-1.634776
C	0.189935	1.16359	-2.230129
H	1.271637	1.122151	-2.078083
H	-0.196851	2.105803	-1.835343
H	-0.038717	1.100194	-3.295019
N	-0.477808	-1.164019	0.72315
H	-1.282465	-0.949975	1.295902
H	0.270502	-1.51368	1.306417
C	-0.445948	1.263442	0.603405
N	-0.807633	2.270471	1.090938
Br	3.43174	0.0	0.0
