16

C	-0.547554	0.017531	-1.442077
C	0.0	0.0	0.0
Cl	0.078162	1.472866	-2.284267
H	1.099415	0.0	0.0
C	-0.071565	-1.170975	-2.15485
N	0.209523	-2.130703	-2.772128
C	-2.070441	0.043572	-1.47668
H	-2.431947	0.950579	-0.987604
H	-2.448954	-0.837537	-0.954783
H	-2.424515	0.030186	-2.50852
N	-0.428112	-1.244387	0.64431
H	0.392209	-1.680621	1.049787
H	-1.106614	-1.077433	1.375741
C	-0.470443	1.183699	0.724695
N	-0.883304	2.084306	1.357699
Br	3.403681	0.0	0.0
