16

C	-0.419548	0.02334	-1.483808
C	0.0	0.0	0.0
Cl	0.10463	-1.531123	-2.226204
H	1.101931	0.0	0.0
C	-1.875613	0.101054	-1.622354
N	-3.036042	0.219298	-1.764852
C	0.282351	1.161695	-2.213292
H	-0.061364	2.120748	-1.818377
H	0.064588	1.116159	-3.281572
H	1.357551	1.063798	-2.042781
N	-0.584987	-1.148865	0.696818
H	0.009559	-1.945407	0.4895
H	-0.499006	-0.98628	1.694179
C	-0.466618	1.237831	0.626662
N	-0.847454	2.223826	1.139766
Br	3.466135	0.0	0.0
