16

C	-0.349661	-0.045913	-1.511817
C	0.0	0.0	0.0
Cl	-2.136362	-0.303349	-1.720206
H	1.097428	0.0	0.0
C	-0.037179	1.229948	-2.152727
N	0.205106	2.258049	-2.668692
C	0.400357	-1.181216	-2.192311
H	1.470866	-1.035442	-2.016075
H	0.089163	-2.132856	-1.759366
H	0.187277	-1.192502	-3.262199
N	-0.395544	-1.165402	0.761467
H	-1.30027	-1.519754	0.47799
H	0.315287	-1.879736	0.676946
C	-0.54268	1.214546	0.613939
N	-1.010058	2.171285	1.10964
Br	3.419299	0.0	0.0
