16

C	-0.402569	-0.060795	-1.484557
C	0.0	0.0	0.0
Cl	-2.197288	-0.302608	-1.611704
H	1.096423	0.0	0.0
C	-0.10639	1.208686	-2.150319
N	0.132006	2.228623	-2.684656
C	0.313599	-1.21285	-2.170341
H	1.391004	-1.056928	-2.057879
H	0.032862	-2.138169	-1.669323
H	0.042207	-1.256375	-3.22645
N	-0.39697	-1.223295	0.680351
H	0.287319	-1.419299	1.40274
H	-1.313044	-1.127748	1.102665
C	-0.504474	1.217557	0.64595
N	-0.920382	2.150359	1.227977
Br	3.420522	0.0	0.0
