14

C	0.0	0.0	0.0
C	-0.423916	-0.16551	-1.498051
Cl	1.780211	0.0	0.0
H	0.278797	0.45607	-2.056467
H	-0.334579	0.996217	0.289809
C	-0.468221	-0.95724	0.995222
N	-0.741881	-1.651302	1.901942
N	-1.752108	0.067835	-1.845382
H	-2.490251	0.000972	-0.970765
H	-1.838984	0.96979	-2.29685
N	-0.011189	-1.582095	-1.971137
O	0.161786	-1.702959	-3.181976
O	0.063403	-2.496319	-1.151803
H	-3.263165	0.0	0.0
