14

C	0.0	0.0	0.0
C	-0.440351	0.119116	-1.454049
Cl	1.788948	0.0	0.0
H	0.111481	0.953634	-1.899332
H	-0.300799	0.899067	0.544112
C	-0.488294	-1.139317	0.776723
N	-0.754071	-1.906726	1.630096
N	-1.90389	0.287076	-1.58759
H	-2.062752	-0.162086	-2.509346
H	-2.14567	1.269177	-1.655913
N	-0.067171	-1.076358	-2.251121
O	-0.535688	-0.828449	-3.485704
O	-0.334118	-2.195987	-1.611035
H	-2.443131	0.0	0.0
