14

C	0.0	0.0	0.0
C	-0.222926	-0.134766	-1.56301
Cl	1.790426	0.0	0.0
H	0.222487	-1.093352	-1.837889
H	-0.273091	1.00741	0.312461
C	-0.876409	-0.955932	0.709611
N	-0.924643	-1.927578	1.408533
N	0.326948	0.90667	-2.402376
H	1.307707	1.007924	-2.182587
H	-0.154531	1.769974	-2.184339
N	-1.656912	-0.259342	-2.025758
O	-2.071794	-1.405575	-2.1911
O	-2.239983	0.764491	-2.385649
H	-1.97864	0.0	0.0
