15

C	0.0	0.0	0.0
C	-0.600975	0.075516	-1.420066
Cl	1.785409	0.0	0.0
H	-1.707954	0.0373	-1.227694
C	-0.472107	1.178168	0.845996
H	-0.083709	1.071634	1.859972
H	-1.564252	1.172193	0.85764
H	-0.093396	2.107258	0.415343
C	-0.396572	-1.278229	0.604265
N	-0.615571	-2.327169	1.086725
C	-0.199727	-1.051578	-2.25825
N	0.113921	-1.957249	-2.937434
C	-0.263572	1.339571	-2.071732
N	-0.006165	2.357752	-2.597887
Cl	-3.537203	0.0	0.0
