15

C	0.0	0.0	0.0
C	-0.491958	0.356312	-1.453719
Cl	1.789452	0.0	0.0
H	0.418051	0.455255	-2.060675
C	-0.414096	1.014616	1.064967
H	-1.502198	1.052984	1.099746
H	-0.009194	0.694163	2.026578
H	0.002951	1.991544	0.811406
C	-0.396314	-1.359278	0.374114
N	-0.545566	-2.473573	0.717292
C	-1.137439	1.67064	-1.52754
N	-1.469832	2.788304	-1.670232
C	-1.268095	-0.690881	-2.119498
N	-1.654733	-1.565821	-2.803298
Cl	-3.276323	0.0	0.0
