15

C	0.0	0.0	0.0
C	-0.599033	-0.22264	-1.406716
Cl	1.785639	0.0	0.0
H	-1.708215	-0.204908	-1.220959
C	-0.47576	1.32985	0.574987
H	-0.097607	2.146707	-0.042688
H	-0.090043	1.444004	1.588593
H	-1.568335	1.326858	0.586728
C	-0.404978	-1.11982	0.857615
N	-0.643525	-2.047619	1.537695
C	-0.216555	-1.511396	-1.980569
N	0.079984	-2.54492	-2.453086
C	-0.238569	0.86447	-2.314362
N	0.042816	1.734062	-3.052122
Cl	-3.540166	0.0	0.0
