15

C	0.0	0.0	0.0
C	-0.446531	0.337527	-1.469331
Cl	1.789661	0.0	0.0
H	0.441238	0.159047	-2.090282
C	-0.443047	0.988525	1.065926
H	-0.080092	0.635998	2.031236
H	-0.006456	1.965469	0.862682
H	-1.531858	1.029228	1.063863
C	-0.391638	-1.372398	0.330674
N	-0.551617	-2.502602	0.609605
C	-0.748551	1.761883	-1.61965
N	-0.841722	2.918681	-1.800045
C	-1.46642	-0.522775	-2.087067
N	-1.975325	-1.252948	-2.85752
Cl	-3.323826	0.0	0.0
