14

C	-0.485452	0.024538	-1.442815
C	0.0	0.0	0.0
Br	0.132915	1.644063	-2.344231
H	1.091482	0.0	0.0
H	-0.041445	-0.80628	-1.988833
C	-1.939293	-0.029226	-1.530938
N	-3.113453	-0.079888	-1.563069
N	-0.352589	-1.310785	0.567291
O	-0.30714	-2.29671	-0.185843
O	-0.551248	-1.381686	1.787864
N	-0.433291	1.103305	0.786532
H	0.340072	1.367027	1.389322
H	-1.21734	0.846219	1.37211
H	2.5102	0.0	0.0
