14

C	-0.481736	0.025939	-1.444346
C	0.0	0.0	0.0
Br	0.150022	1.638913	-2.347138
H	1.091499	0.0	0.0
H	-0.043871	-0.809429	-1.988026
C	-1.936094	-0.015194	-1.53481
N	-3.110794	-0.056025	-1.56609
N	-0.355838	-1.311128	0.565373
O	-0.580272	-1.381402	1.782487
O	-0.289915	-2.297497	-0.185319
N	-0.435989	1.103844	0.783402
H	0.333697	1.367923	1.389781
H	-1.223822	0.848702	1.363833
H	2.511641	0.0	0.0
