14

C	-0.558014	-0.129764	-1.390709
C	0.0	0.0	0.0
Br	0.754556	-0.901953	-2.711268
H	1.096033	0.0	0.0
H	-1.363711	-0.86248	-1.437415
C	-0.993956	1.140815	-1.950634
N	-1.383328	2.126578	-2.45869
N	-0.359285	-1.155736	0.782293
O	-0.521154	-2.24352	0.19262
O	-0.342236	-1.039219	2.02393
N	-0.234514	1.256426	0.645162
H	0.613812	1.47567	1.166403
H	-0.995938	1.179999	1.307972
H	2.313094	0.0	0.0
