14

C	-0.47616	-0.159508	-1.436802
C	0.0	0.0	0.0
Br	0.133434	1.341376	-2.528628
H	1.10141	0.0	0.0
H	-0.019735	-1.046798	-1.872279
C	-1.928487	-0.2395	-1.530344
N	-3.101573	-0.305005	-1.57235
N	-0.347812	-1.220695	0.729931
O	-0.326301	-2.294651	0.103724
O	-0.509989	-1.139087	1.957258
N	-0.425189	1.198657	0.638275
H	-1.199006	1.020573	1.263038
H	0.354719	1.538348	1.190684
H	2.484858	0.0	0.0
