14

C	-0.376929	0.050213	-1.456896
C	0.0	0.0	0.0
Br	-2.303313	0.427795	-1.774392
H	1.093307	0.0	0.0
H	0.131262	0.932409	-1.854619
C	0.005258	-1.088534	-2.28195
N	0.342116	-1.953429	-3.002678
N	-0.484296	-1.219516	0.675364
O	-0.937907	-2.138083	-0.023599
O	-0.317472	-1.290159	1.891723
N	-0.317329	1.17009	0.747838
H	-1.06971	1.714254	0.348825
H	0.528886	1.718736	0.863143
H	2.512002	0.0	0.0
