14

C	-0.528664	0.069837	-1.42188
C	0.0	0.0	0.0
Br	0.387991	-1.1849	-2.642629
H	1.089893	0.0	0.0
H	-1.576839	-0.229838	-1.477609
C	-0.368874	1.408641	-1.975034
N	-0.300889	2.492939	-2.424019
N	-0.489642	-1.235536	0.646975
O	-1.218723	-2.013668	0.006555
O	-0.08199	-1.450175	1.788338
N	-0.302785	1.132489	0.826751
H	-1.034848	1.727091	0.463781
H	0.556192	1.664299	0.946192
H	2.517225	0.0	0.0
