14

C	-0.367238	-0.028167	-1.461287
C	0.0	0.0	0.0
Br	-2.31397	0.228655	-1.780239
H	1.092546	0.0	0.0
H	0.090977	0.865101	-1.893375
C	0.071471	-1.168689	-2.25517
N	0.413024	-1.969221	-3.044735
N	-0.466562	-1.201964	0.719924
O	-0.697758	-2.215817	0.044639
O	-0.489405	-1.168205	1.949478
N	-0.341442	1.198955	0.681984
H	0.491266	1.769639	0.777089
H	-1.104431	1.708059	0.259005
H	2.514232	0.0	0.0
