14

C	-0.457983	0.039362	-1.431279
C	0.0	0.0	0.0
Br	-2.438196	0.088677	-1.587269
H	1.093309	0.0	0.0
H	-0.142142	1.01202	-1.81018
C	0.043843	-0.994267	-2.327709
N	0.440001	-1.746783	-3.138465
N	-0.407019	-1.230876	0.681767
O	-0.451044	-2.273069	0.015975
O	-0.573266	-1.180418	1.90904
N	-0.345514	1.198757	0.695814
H	0.424936	1.405171	1.32547
H	-1.182088	1.065722	1.249751
H	2.488262	0.0	0.0
