17

C	0.0	0.0	0.0
C	-0.455742	-0.145563	-1.45285
F	1.405546	0.0	0.0
H	-1.552698	-0.10215	-1.426433
C	-0.413344	1.335658	0.587133
H	-0.018268	1.398126	1.606408
H	-1.502596	1.386536	0.612899
H	-0.014424	2.157203	-0.007445
N	-0.452887	-1.154336	0.721256
H	-0.241	-1.02182	1.705168
H	-1.472612	-1.164891	0.639579
C	-0.038328	-1.458299	-1.988572
N	0.328118	-2.428508	-2.541189
N	0.055397	0.956911	-2.263963
H	1.053192	0.830437	-2.388765
H	-0.380246	0.924211	-3.17739
Cl	-3.66555	0.0	0.0
