17

C	0.0	0.0	0.0
C	-0.199368	0.194462	-1.542308
F	1.394074	0.0	0.0
H	0.505009	1.005258	-1.765146
C	-0.445772	1.187216	0.821741
H	-0.025018	2.115118	0.424696
H	-0.093696	1.059154	1.851504
H	-1.535588	1.231846	0.812576
N	-0.497526	-1.27429	0.415115
H	-1.514499	-1.214789	0.277234
H	-0.361256	-1.361066	1.416832
C	-1.459822	0.669185	-2.132915
N	-2.247837	1.096294	-2.891977
N	0.254557	-0.971284	-2.3083
H	-0.309767	-1.759765	-2.006578
H	1.192847	-1.168648	-1.975176
Cl	-3.606649	0.0	0.0
