17

C	0.0	0.0	0.0
C	-0.31803	-0.012506	-1.525707
F	1.396171	0.0	0.0
H	0.327388	-0.815605	-1.895603
C	-0.474872	1.235577	0.732797
H	-1.56756	1.262089	0.712926
H	-0.145956	1.177338	1.775494
H	-0.067205	2.144845	0.289373
N	-0.465063	-1.245163	0.546921
H	-1.476143	-1.26758	0.413518
H	-0.31201	-1.236654	1.550363
C	0.19268	1.235826	-2.127083
N	0.61256	2.210346	-2.629473
N	-1.662026	-0.262209	-1.982377
H	-2.376524	0.208984	-1.428173
H	-1.868239	-1.249128	-1.905446
Cl	-4.109159	0.0	0.0
