17

C	0.0	0.0	0.0
C	-0.365235	-0.022873	-1.503534
F	1.421861	0.0	0.0
H	0.43748	-0.610259	-1.969535
C	-0.475653	1.215231	0.757139
H	-0.013837	2.122528	0.366586
H	-1.56415	1.273185	0.679401
H	-0.206238	1.109227	1.811885
N	-0.488915	-1.17914	0.600064
H	-0.113432	-1.314947	1.526673
H	-0.404311	-1.998529	0.019855
C	-0.229121	1.33577	-2.075726
N	-0.116635	2.383881	-2.594751
N	-1.629625	-0.683903	-1.75421
H	-2.36166	-0.420526	-1.083257
H	-1.97627	-0.446228	-2.674919
Cl	-4.293021	0.0	0.0
