17

C	0.0	0.0	0.0
C	-0.298885	-0.169851	-1.522989
F	1.391668	0.0	0.0
H	0.390548	-0.97363	-1.804656
C	-0.4745	1.301469	0.608431
H	-0.051109	2.161445	0.086481
H	-0.160063	1.338181	1.65624
H	-1.566089	1.337854	0.568512
N	-0.472516	-1.188713	0.660593
H	-0.247357	-1.113803	1.648195
H	-1.491972	-1.170068	0.598998
C	0.164242	1.03523	-2.236718
N	0.542993	1.993755	-2.798856
N	-1.616329	-0.540115	-1.980414
H	-2.356584	-0.000698	-1.532002
H	-1.793239	-1.501561	-1.718425
Cl	-4.037971	0.0	0.0
