17

C	0.0	0.0	0.0
C	-0.319629	-0.200355	-1.526407
F	1.426938	0.0	0.0
H	0.592573	-0.680515	-1.895325
C	-0.432132	1.319683	0.596794
H	0.00843	2.164057	0.064638
H	-1.521761	1.387184	0.563869
H	-0.099563	1.356054	1.640076
N	-0.458084	-1.158149	0.706423
H	-0.305104	-0.996422	1.697716
H	-1.469946	-1.184694	0.577053
C	-0.399688	1.092988	-2.223449
N	-0.48017	2.099447	-2.822859
N	-1.435637	-1.029104	-1.934393
H	-2.306556	-0.699406	-1.508705
H	-1.266924	-1.964841	-1.584003
Cl	-3.815037	0.0	0.0
