17

C	0.0	0.0	0.0
C	-0.466135	-0.206035	-1.449768
F	1.422638	0.0	0.0
H	-1.563422	-0.253261	-1.385311
C	-0.493802	1.304878	0.568442
H	-1.587353	1.284617	0.558671
H	-0.114812	2.147337	-0.011623
H	-0.132235	1.412189	1.594899
N	-0.455537	-1.091656	0.776689
H	0.029299	-1.946189	0.538114
H	-0.393044	-0.910978	1.767678
C	0.02951	-1.508483	-1.926071
N	0.423029	-2.558103	-2.275407
N	-0.062618	0.829046	-2.395269
H	-0.689793	1.616826	-2.296568
H	0.878106	1.133376	-2.171526
Cl	-3.835757	0.0	0.0
