17

C	0.0	0.0	0.0
C	-0.325137	0.263113	-1.498003
F	1.411968	0.0	0.0
H	0.197533	-0.542828	-2.032613
C	-0.551196	1.042502	0.93342
H	-0.193586	0.84818	1.948156
H	-0.222758	2.038591	0.633259
H	-1.644029	0.987556	0.916173
N	-0.482714	-1.30041	0.317189
H	0.190213	-2.008111	0.058722
H	-0.758675	-1.398578	1.282623
C	0.309374	1.519951	-1.927137
N	0.794592	2.532691	-2.268417
N	-1.711812	0.24594	-1.896681
H	-2.16085	-0.570443	-1.490183
H	-2.225106	1.016627	-1.483349
Cl	-4.315246	0.0	0.0
