17

C	0.0	0.0	0.0
C	-0.485148	-0.34532	-1.426652
F	1.389397	0.0	0.0
H	-1.554178	-0.570432	-1.305283
C	-0.448641	1.387687	0.402078
H	-1.538612	1.452822	0.386657
H	-0.085819	1.572273	1.41505
H	-0.010319	2.116487	-0.280469
N	-0.446139	-0.958139	0.972468
H	-0.250679	-1.900322	0.646129
H	-1.460001	-0.860943	1.049869
C	0.196188	-1.558149	-1.884941
N	0.735544	-2.530275	-2.26315
N	-0.256017	0.75175	-2.382447
H	-1.090118	1.33004	-2.359305
H	-0.187979	0.373587	-3.319806
Cl	-3.676328	0.0	0.0
