17

C	0.0	0.0	0.0
C	-0.310016	-0.277875	-1.514801
F	1.39781	0.0	0.0
H	0.546555	-0.86938	-1.859381
C	-0.484049	1.338116	0.504239
H	0.011275	2.148569	-0.030486
H	-0.242937	1.4084	1.566819
H	-1.566205	1.413833	0.37416
N	-0.46524	-1.047476	0.849326
H	-0.513738	-1.911562	0.320435
H	-1.425392	-0.837222	1.112374
C	-0.271502	0.97431	-2.301229
N	-0.255955	1.941282	-2.969806
N	-1.50612	-1.077953	-1.695331
H	-2.315093	-0.657267	-1.224569
H	-1.724947	-1.150752	-2.681743
Cl	-3.993082	0.0	0.0
