14
Coordinates from ORCA-job run
  C   -0.61940291070946      0.03339133253757     -0.30900544300002
  C   0.51895493621488      0.30091177051086      0.38729696466999
  N   -0.79343961422810     -1.02899394960351     -1.15020655377159
  H   -1.75392058437735     -1.17889640802509     -1.42291069706169
  H   -0.28618731386174     -1.86702507435074     -0.91477844600823
  N   -1.79183650927046      0.93455642171969     -0.27704430736051
  O   -2.84048055394135      0.47903210918029     -0.73928226810683
  O   -1.64657971373089      2.05674857561142      0.19233171943892
  C   1.67854024602985     -0.65425465181124      0.24820237815142
  H   1.86628626429077     -0.87347078793150     -0.80743029254922
  H   2.58287032740651     -0.22428998747224      0.67683314637180
  H   1.48321277162166     -1.60145840394991      0.76508135757969
  C   0.67056124168612      1.39134757695332      1.28416624413756
  N   0.93242141286954      2.23340147663109      2.06674619750870
