14
Coordinates from ORCA-job run
  C   -0.50079053439612      0.08603301676603     -0.47141898553920
  C   0.44134929743275      0.26407265974378      0.49393996928389
  N   -0.61353990342094     -1.01912352370001     -1.26696147012952
  H   -1.48407567657700     -1.06547860070379     -1.77626227134230
  H   -0.32171015880444     -1.89094824956303     -0.85467569837535
  N   -1.48405374684207      1.13708376161763     -0.81289882711162
  O   -1.27470517397738      2.27639588652804     -0.41419735030744
  O   -2.45069062930134      0.77795572280414     -1.48897112223743
  C   1.43175941761584     -0.84779551726303      0.73822932603788
  H   1.85082735636730     -1.19975198018385     -0.20935835516159
  H   0.96156488692800     -1.69933618734838      1.24406368093671
  H   2.24945490760565     -0.49989626831662      1.36812992333636
  C   0.51407390269269      1.40523067858748      1.33637624415838
  N   0.68053605467707      2.27555860103163      2.11400493645122
