14
Coordinates from ORCA-job run
  C   -0.67936705831229      0.01778006619068     -0.14142186012275
  C   0.58227625305979      0.29282452899765      0.28861675630125
  N   -1.10619664909966     -1.19502546836922     -0.60471152455868
  H   -0.39879956149543     -1.76775341812425     -1.03866350354179
  H   -1.97055904177153     -1.14639389604303     -1.12395657655632
  N   -1.76295903883184      1.01997771894439     -0.09826288955883
  O   -2.77254743224817      0.75585419939612     -0.75592149286180
  O   -1.58835099991583      2.03508420745148      0.56472504280636
  C   1.61286835651753     -0.80659619005344      0.22186226975203
  H   1.25548713872410     -1.69302147221109      0.75632699063576
  H   2.55566384196592     -0.48620020981139      0.66641477032125
  H   1.81884219380807     -1.10064449023311     -0.81639012280133
  C   0.98903523645463      1.54545660169773      0.81717097445945
  N   1.46460676114473      2.52765782216747      1.26421116572540
