14
Coordinates from ORCA-job run
  C   -0.62836557282029     -0.03913784188309     -0.36232253020072
  C   0.65859957613334      0.22138742886603      0.01284863170263
  N   -1.21596662716510      0.22346928375403     -1.56554932391012
  H   -0.58733790727002      0.44473277847049     -2.32337849445917
  H   -1.98256146579430     -0.38881637617873     -1.80034028121265
  N   -1.57956727346245     -0.63353154438760      0.59311089428752
  O   -2.50800726683679     -1.28114096634100      0.10736432375362
  O   -1.38951445499181     -0.44865810258462      1.79236269643982
  C   1.29090758964456      0.02490846917657      1.36824869365541
  H   1.01136345257583     -0.93107966312994      1.81098351768028
  H   0.98524780021455      0.80883259137556      2.06367302497812
  H   2.37583439023272      0.05614088788476      1.26199465158116
  C   1.46625623401934      0.75588377482227     -1.03172922778880
  N   2.10011152552040      1.18700928015526     -1.92826657650710
