14
Coordinates from ORCA-job run
  C   -0.62176830820161      0.00158060746819     -0.37603758175879
  C   0.67210383428361      0.17441962474233      0.02374660345992
  N   -1.16640985332694      0.29286210816911     -1.59320728335018
  H   -0.50907867616210      0.45607124144074     -2.34148690942438
  H   -1.96783861363936     -0.26943740873476     -1.83711001327403
  N   -1.63091019272830     -0.51223177369112      0.56620908530035
  O   -2.57886064476430     -1.12314445714957      0.07060379778776
  O   -1.46552378346983     -0.30049881555506      1.76476030117137
  C   1.26052015030286     -0.05535604460361      1.39347736820847
  H   0.88502965957869     -0.97203377715754      1.84771889843421
  H   1.01845870306323      0.76737900452892      2.06886754470028
  H   2.34505575224006     -0.12806202787454      1.30652560985945
  C   1.53726636891972      0.64324954042991     -1.00632743409067
  N   2.22095560390427      1.02420217798700     -1.88873998702377
