14
Coordinates from ORCA-job run
  C   -0.72148846110333      0.09700258042115     -0.00074828910246
  C   0.60580577585268      0.05983488848071      0.31176583093984
  N   -1.75599445178477      0.43593298018414      0.82682061909929
  H   -2.63762093342633      0.02075468031689      0.56732207498005
  H   -1.55031597510930      0.40649145282327      1.81493256136981
  N   -1.20364883712679     -0.17784252219102     -1.36946988028677
  O   -2.32828617970168     -0.67399714898853     -1.45803193190098
  O   -0.47681405263609      0.10670801122153     -2.31655676539532
  C   1.79644324406358     -0.24554060504157     -0.55973675074201
  H   1.49980707109469     -0.60346516295421     -1.53968905044083
  H   2.43552832120928     -0.98840902665632     -0.08159711529994
  H   2.39267845912440      0.66011877004135     -0.70545565821065
  C   0.88073195515147      0.33596724437413      1.68360216513529
  N   1.06417406439219      0.56544385796847      2.82584218985469
