14
Coordinates from ORCA-job run
  C   -0.62660016648171      0.00130707635540     -0.36646682486028
  C   0.67325497458264      0.17213319582738      0.01488117115304
  N   -1.18868776843491      0.29823231774932     -1.57420132895717
  H   -1.99457468945690     -0.26136890846493     -1.80932824339972
  H   -0.54121178199661      0.46347047164419     -2.33072145938803
  N   -1.62343799333623     -0.51440733637726      0.58819100141551
  O   -2.58818814017314     -1.10698798808379      0.10267968364450
  O   -1.43401709506076     -0.32023630842624      1.78612938590949
  C   1.28245854108274     -0.06012308932602      1.37517828185919
  H   0.91778157322792     -0.98003286706785      1.83157696657633
  H   2.36611173333961     -0.12638853601152      1.27211016795720
  H   1.04608519424853      0.75928751721894      2.05669826975090
  C   1.52206872785935      0.64561967627212     -1.02667605519158
  N   2.18895689059947      1.03049477869026     -1.92005101646939
