14
Coordinates from ORCA-job run
  C   -0.60203044601169     -0.07974373814012     -0.39848224105490
  C   0.66236797317293      0.20771732075242      0.02998068150144
  N   -1.15581102938635      0.20381053917891     -1.61305118964674
  H   -2.15957245083600      0.30424954419125     -1.60271488454976
  H   -0.65840539477784      0.87738193213009     -2.17655718238998
  N   -1.53410781592963     -0.82342355003567      0.46764762668739
  O   -1.06291315240934     -1.57236356756806      1.31939821953823
  O   -2.73462449307650     -0.63334351067176      0.26700383708056
  C   1.31709826487920     -0.18642584738506      1.33056200651094
  H   1.61335280465435     -1.23694175475107      1.32057405185334
  H   0.64887956797915     -0.04385728552820      2.17973331082537
  H   2.20681180211249      0.42620777149964      1.48016273898007
  C   1.43004346282394      0.96163899824158     -0.90368503287650
  N   2.02791090680529      1.59309314808605     -1.70057194245945
