14
Coordinates from ORCA-job run
  C   -0.62712159892052      0.03695986862356     -0.35701337924956
  C   0.67004044722633      0.18341490161985      0.04680574161599
  N   -1.20992179159839      0.54981781622291     -1.47844409370867
  H   -0.57976121724202      0.89376071603092     -2.18722265318848
  H   -2.00637539664828      0.03127457025211     -1.81618504942151
  N   -1.59361393261630     -0.70501990639234      0.47168812410253
  O   -2.55820203260465     -1.19367907069521     -0.11904436595379
  O   -1.37876381860335     -0.79094860975850      1.67795251504642
  C   1.30834075244189     -0.28599599985220      1.32980327282123
  H   2.39305895552005     -0.25770306299504      1.21741506962031
  H   1.03002538556506      0.35959651441568      2.16520620647558
  H   1.00823767405153     -1.30182904709851      1.58420388759705
  C   1.46913187300429      0.92505369746965     -0.87152847800328
  N   2.07492470042437      1.55429761215712     -1.66363679775383
