14
Coordinates from ORCA-job run
  C   -0.60968529037226      0.04065824554687     -0.38703096627104
  C   0.69262313071625      0.12629474583624     -0.02633925144325
  N   -1.23693492348447      0.48686695917483     -1.51913417158592
  H   -0.61327363939030      0.83249509653463     -2.23573086391459
  H   -1.96474582846099     -0.11759663853065     -1.87441469005717
  N   -1.56468976717488     -0.50723438920237      0.58819836127282
  O   -1.83848864511414     -1.70068081532890      0.46329643521915
  O   -2.01459740208402      0.26886646523721      1.42464212499875
  C   1.21631714130675     -0.23025840648548      1.33942569460847
  H   1.30217504668461      0.65681535627205      1.97221650641257
  H   2.20459819124071     -0.68460262758175      1.25138647565187
  H   0.56369910366841     -0.94957969173213      1.83630120384037
  C   1.58088653585011      0.66112058533047     -1.00251657378798
  N   2.28311634661423      1.11683511492897     -1.83230028494405
