14
Coordinates from ORCA-job run
  C   -0.61315181383301      0.05769729450604     -0.31838264595415
  C   0.39974744759629      0.02810893137155      0.58950127585701
  N   -0.56086317348471     -0.47556553133636     -1.57502405152677
  H   -1.32100818488108     -0.18377258334742     -2.17192864563725
  H   0.34424447531395     -0.47841132690757     -2.01749832489707
  N   -1.94023568369322      0.62736014231222      0.00395186243669
  O   -2.68162996119223      0.85412823779408     -0.95485392265223
  O   -2.21284750000808      0.82823251116274      1.18123556311475
  C   1.70234207210196     -0.61735655683606      0.18453714670401
  H   1.51683683333543     -1.58607348052674     -0.28927244130035
  H   2.25831371351243      0.01064407657602     -0.52153172110214
  H   2.33706213796994     -0.77631586452873      1.05538206929961
  C   0.33613874550098      0.62417630477664      1.87700872139649
  N   0.43305089176137      1.08714784498360      2.95687511426138
