14
Coordinates from ORCA-job run
  C   -0.62643154362741     -0.17172482163674     -0.24194998047018
  C   0.64684791259443     -0.18291450618139      0.23773498052389
  N   -1.26280799120012      0.92161770877133     -0.75890308866575
  H   -2.25811231787859      0.79534357579811     -0.87205486681583
  H   -0.99309016031428      1.81200997214164     -0.37225651863093
  N   -1.44719955368201     -1.39959168367077     -0.32250242147059
  O   -0.88266464608415     -2.48102531153516     -0.21039177858773
  O   -2.65513946428773     -1.23444887549788     -0.50660469216313
  C   1.42299870662626      1.11069438917286      0.23292978083645
  H   1.05573337224830      1.80232103866567      1.00024854393451
  H   1.33788605619570      1.60266866747052     -0.74091575496949
  H   2.47736477987694      0.92493348655395      0.43368579972163
  C   1.27461794197874     -1.32366386547478      0.80513410198223
  N   1.90799690755391     -2.17621977457734      1.31684589477492
