14
Coordinates from ORCA-job run
  C   -0.67528090119749     -0.00030253906303     -0.16904481731576
  C   0.61613846196226      0.33193927929343      0.10194881424713
  N   -1.12877885385966     -1.21625334567855     -0.61392653196689
  H   -2.11855818896691     -1.33962928864184     -0.42675658734759
  H   -0.58308972383099     -2.00857096250491     -0.31039525243445
  N   -1.75189742807209      1.01433710990955     -0.06638717798578
  O   -2.87062192133465      0.58462822404980      0.22535278315672
  O   -1.45626258425782      2.18858890098880     -0.25933552668788
  C   1.68594207330184     -0.72447582731569     -0.04913955418164
  H   2.66527335575770     -0.31558006986461      0.19616003426560
  H   1.51568461281354     -1.57183972234617      0.62472276786129
  H   1.71450416044252     -1.08644711316521     -1.07899214788856
  C   0.98563141407473      1.58600216241347      0.64996485724942
  N   1.40131552316701      2.55660319192495      1.17482833902840
