14
Coordinates from ORCA-job run
  C   -0.62458114494145     -0.01940069815576     -0.37036986887012
  C   0.67117699330250      0.17882730165116      0.01232826788117
  N   -1.17883716121573      0.21980807024609     -1.59450507136587
  H   -1.98075376950766     -0.35365823547444     -1.80922161131966
  H   -0.52662612016885      0.35329689307254     -2.35318157736566
  N   -1.62525654740319     -0.50018360546446      0.59870562639918
  O   -2.58963564390113     -1.10767372437109      0.13109820659708
  O   -1.43751829775079     -0.26819056750601      1.79010968646149
  C   1.27329235950575      0.01122390279671      1.38521782872383
  H   0.92875761164149     -0.90217656586593      1.86984430997957
  H   1.00871492177036      0.84623684806349      2.03647459676816
  H   2.35919244388175     -0.03001734167428      1.29398011978638
  C   1.52434941842898      0.61128392177015     -1.04346722084427
  N   2.19772493635799      0.95962380091181     -1.94701329283128
