14
Coordinates from ORCA-job run
  C   -0.60606328850586     -0.03588285003528     -0.39871142141721
  C   0.67347237537541      0.16663170881371      0.03144105234331
  N   -1.09818234511441      0.11889359097029     -1.66265849978225
  H   -0.40838383308535      0.19548132809463     -2.39542209916446
  H   -1.89117326573661     -0.46633972236910     -1.87690897798375
  N   -1.66060425145826     -0.42463774387491      0.55394849791606
  O   -1.54312996887169     -0.07277231314030      1.72464964261807
  O   -2.59468926432552     -1.08284365241580      0.09359476812976
  C   1.20205685688023      0.09658574602632      1.44209693525113
  H   2.28712595069811     -0.01013661724277      1.40952711196467
  H   0.95697474080518      1.00302705056367      1.99945557005200
  H   0.78423922629446     -0.74730607241568      1.99082993745023
  C   1.58751951797275      0.49879116258191     -1.00970389160652
  N   2.31283754907156      0.76050838444331     -1.90213862577104
