14
Coordinates from ORCA-job run
  C   -0.62952840575795      0.03723909063520     -0.36071784177355
  C   0.67991873086293      0.14070670284759      0.01243161814691
  N   -1.18352605547678      0.37255827647503     -1.56245583910446
  H   -0.53279308211606      0.50844610094015     -2.32206720907210
  H   -2.01849195082109     -0.14359603576058     -1.79585959528277
  N   -1.64416219863098     -0.43824378905473      0.59626390812091
  O   -2.64579520442759     -0.96676522136948      0.11141023409233
  O   -1.43016420534466     -0.28027745692643      1.79528158933043
  C   1.28819158542347     -0.13432097029099      1.36488986166507
  H   2.36760192395921     -0.24088877781641      1.25361366492885
  H   1.08769625936545      0.68279071557747      2.06025718073336
  H   0.89130579573200     -1.04630630715195      1.81028356637887
  C   1.54371929643763      0.57792867013807     -1.03284593423845
  N   2.22402751079445      0.93072900175707     -1.92948520392541
