14
Coordinates from ORCA-job run
  C   -0.59761546936666     -0.14898101900653     -0.38534448705181
  C   0.67254114559829      0.17379605255071     -0.00168860845679
  N   -1.10859361647596     -0.16385267463865     -1.65093138791685
  H   -2.10439275938239     -0.00985984338327     -1.70141270145210
  H   -0.56090971111489      0.31521102752908     -2.35055934087022
  N   -1.58955846796674     -0.59128685472547      0.61067695845302
  O   -1.18108900867334     -1.11713910004915      1.64267105577488
  O   -2.77232820867653     -0.39656952423869      0.32627040000024
  C   1.27607032197410      0.09729101480504      1.37869378311066
  H   0.60211816373476      0.49262573887938      2.13855369653448
  H   1.50600943930624     -0.93419114758937      1.65156361320977
  H   2.19905227809554      0.67766879455617      1.39514049555115
  C   1.50309329533691      0.61733105166858     -1.07075264555642
  N   2.15460259761065      0.98695648364218     -1.98188083132998
