14
Coordinates from ORCA-job run
  C   -0.57857000581045     -0.18974765958684     -0.39774809323094
  C   0.67298297918413      0.17190936658862      0.01727801347848
  N   -1.02407231622326     -0.30733420365875     -1.68152763882094
  H   -2.01620021676351     -0.16414343714283     -1.79291480477898
  H   -0.44001538557784      0.11055525907565     -2.39033528003168
  N   -1.62329918098904     -0.54640684268069      0.58080983843007
  O   -1.27097680364176     -0.95921353542916      1.68239533807422
  O   -2.79001141174268     -0.39054924764100      0.21724419232574
  C   1.21962022983194      0.20376107686787      1.42429503655020
  H   2.15286908437334      0.76678095757301      1.42986473091376
  H   0.52183585425061      0.67185738879336      2.11881655447299
  H   1.41587680472338     -0.80461261394226      1.79160851000551
  C   1.53860615341639      0.55442609635134     -1.04710992748004
  N   2.21935421496874      0.88371739483169     -1.95267646990838
