14
Coordinates from ORCA-job run
  C   -0.60896371730992     -0.10182210169248     -0.38322175396245
  C   0.63241990829082      0.27229822225040      0.04474411358270
  N   -1.08396948473567     -0.05339631621195     -1.65421733682604
  H   -2.08332522190931     -0.06094417176516     -1.78733040903900
  H   -0.54859124484714      0.47159638476047     -2.32660777831953
  N   -1.55822006466408     -0.75231287820965      0.53814326748238
  O   -1.62938667765743     -0.33583379328689      1.69453303617259
  O   -2.24193712347033     -1.66150820453325      0.06392951969372
  C   1.27234700631604      0.02097818251441      1.38814790283773
  H   2.12339509926531     -0.65398489348754      1.27877860439885
  H   0.55478520315333     -0.38823879715148      2.09265005178007
  H   1.63008076836839      0.96686508380585      1.80444197273322
  C   1.44565171070594      0.87953661683764     -0.95577392699758
  N   2.09471383849403      1.39376666616964     -1.79621726353666
