14
Coordinates from ORCA-job run
  C   -0.69054674276378     -0.03378042369471     -0.05308740970451
  C   0.59269389724057      0.34657429711924      0.19158414777658
  N   -1.09400575673147     -1.30986525401517     -0.32888040981644
  H   -0.42610854472129     -1.88822764720046     -0.81328927408396
  H   -2.03710802877530     -1.36949770769632     -0.68434634043278
  N   -1.82095562319661      0.91659291976913      0.02883869106902
  O   -1.63393902656598      1.99152257283005      0.58591609508292
  O   -2.88244639453147      0.54317121662540     -0.47541889603105
  C   1.67337195723627     -0.70470820474029      0.12946463551594
  H   1.87505739389404     -1.01094162909234     -0.90377700335669
  H   2.60326503466855     -0.32255490292620      0.54852721081074
  H   1.37582552909287     -1.59075788241399      0.69850485133398
  C   0.99373504876708      1.68651094980714      0.43856951302606
  N   1.47116125638652      2.74596169562852      0.63739418881018
