14
Coordinates from ORCA-job run
  C   -0.61003104866958     -0.06095240560524     -0.38975057882464
  C   0.66441409036187      0.20141323243914      0.02452076027455
  N   -1.12751311743319      0.09030100673943     -1.64374007259084
  H   -1.90259183468864     -0.52110489731809     -1.85215745455525
  H   -0.45261034046149      0.20032028855178     -2.38629305674637
  N   -1.62906733287535     -0.51881824603247      0.57128147423752
  O   -1.49205405426631     -0.21190145842767      1.75254697506968
  O   -2.55652514220861     -1.18394662793585      0.10760657376164
  C   1.22185304597788      0.13087496373086      1.42450460946751
  H   2.31099151049405      0.11855304400092      1.37281664009506
  H   0.88697322465696     -0.76361301997435      1.94943508678080
  H   0.90993087103411      0.99321673174562      2.01662761671706
  C   1.54091833122519      0.60247684836624     -1.02457250333811
  N   2.23531179685312      0.92218053971968     -1.92282607034862
