14
Coordinates from ORCA-job run
  C   -0.60302208914468     -0.12936763957735     -0.38382259069423
  C   0.67903837859130      0.14677681632945     -0.00279506108131
  N   -1.11402716465873     -0.13562669648355     -1.64922978054233
  H   -2.10280693708894      0.05748225346889     -1.70277895702759
  H   -0.54645388978880      0.31067522424913     -2.35451973039223
  N   -1.61195044388629     -0.52206094682614      0.61566015074495
  O   -2.78594574560695     -0.28314640579582      0.32859701410622
  O   -1.22508698663291     -1.05323750058835      1.65329823573691
  C   1.27938827016424      0.06073872796855      1.37840297983953
  H   2.22160160403288      0.60960296791675      1.39081538556367
  H   0.61835346000440      0.48428785765676      2.13441877648380
  H   1.47477653255265     -0.97584075539799      1.65936773505600
  C   1.52591290119970      0.54705116858166     -1.07619650022916
  N   2.19022211026212      0.88266492849802     -1.99121765756422
