15

C	-0.550445	-0.03199	-1.380004
C	0.0	0.0	0.0
Br	0.294288	-1.478574	-2.338706
H	1.0904	0.0	0.0
H	-0.294041	-0.905964	0.527827
N	-2.081114	-0.265711	-1.435602
O	-2.567658	-0.639611	-2.493085
O	-2.690629	-0.015165	-0.402233
N	-0.334462	1.267572	-2.176666
O	-1.338176	1.89757	-2.481479
O	0.822097	1.54693	-2.428436
N	-0.415191	1.129473	0.796937
O	-0.47761	2.23886	0.247526
O	-0.542743	0.93941	2.012265
H	2.47244	0.0	0.0
