15

C	-0.557879	0.001317	-1.376403
C	0.0	0.0	0.0
Br	0.295154	1.413669	-2.379636
H	1.0904	0.0	0.0
H	-0.291273	0.918318	0.507987
N	-0.360525	-1.32016	-2.140103
O	-1.372849	-1.945627	-2.425718
O	0.790776	-1.619533	-2.389995
N	-2.087501	0.248548	-1.427037
O	-2.577197	0.611955	-2.48616
O	-2.692609	0.018607	-0.386393
N	-0.415354	-1.109969	0.825141
O	-0.539209	-0.890223	2.035727
O	-0.481407	-2.23194	0.303046
H	2.472055	0.0	0.0
