15

C	-0.487971	-0.006742	-1.412322
C	0.0	0.0	0.0
Br	0.268411	-1.535085	-2.312069
H	1.088741	0.0	0.0
H	-0.3811	-0.903841	0.476277
N	-2.016812	-0.165769	-1.554286
O	-2.581552	0.528987	-2.391092
O	-2.529006	-1.014463	-0.842833
N	-0.150176	1.286039	-2.150842
O	-0.580628	2.28734	-1.589289
O	0.467086	1.242825	-3.201434
N	-0.530774	1.136326	0.799703
O	0.231917	2.055579	1.076756
O	-1.706563	1.052149	1.173104
H	2.664609	0.0	0.0
