15

C	-0.51787	-0.00389	-1.396012
C	0.0	0.0	0.0
Br	0.001534	1.665981	-2.227549
H	1.087908	0.0	0.0
H	-0.281349	0.925137	0.499659
N	0.055989	-1.139974	-2.234773
O	0.691675	-1.991594	-1.625906
O	-0.138264	-1.090288	-3.443524
N	-2.056174	-0.073922	-1.484942
O	-2.569718	-0.907124	-2.214948
O	-2.637759	0.739614	-0.779847
N	-0.521199	-1.093274	0.810599
O	-0.158555	-1.105844	1.987732
O	-1.266982	-1.935342	0.288912
H	2.522253	0.0	0.0
