15

C	-0.617737	-0.059793	-1.337112
C	0.0	0.0	0.0
Br	-2.593534	-0.29714	-1.329822
H	1.090828	0.0	0.0
H	-0.250953	-0.887165	0.571761
N	-0.245819	1.122047	-2.240589
O	-1.113667	1.780891	-2.780236
O	0.964324	1.248515	-2.352168
N	-0.095273	-1.284536	-2.083861
O	-0.081818	-1.218866	-3.306774
O	0.234656	-2.242888	-1.398675
N	-0.413556	1.15365	0.746107
O	-0.401287	1.053299	1.982091
O	-0.623025	2.213749	0.130702
H	2.387281	0.0	0.0
