15

C	-0.619128	0.057555	-1.336195
C	0.0	0.0	0.0
Br	-2.597564	0.279413	-1.328425
H	1.090828	0.0	0.0
H	-0.254272	0.886378	0.574093
N	-0.106331	1.28886	-2.080416
O	-0.109704	1.231782	-3.303866
O	0.234185	2.242898	-1.394314
N	-0.236778	-1.117817	-2.243695
O	0.975638	-1.224554	-2.365629
O	-1.101096	-1.790185	-2.774105
N	-0.409763	-1.156786	0.745291
O	-0.594006	-2.221073	0.128552
O	-0.415533	-1.052639	1.98127
H	2.386422	0.0	0.0
