15

C	-0.487274	0.018741	-1.403807
C	0.0	0.0	0.0
Br	0.51317	1.175336	-2.580542
H	1.085845	0.0	0.0
H	-0.295248	-0.907731	0.516499
N	-0.379127	-1.386976	-1.990476
O	0.36092	-2.178592	-1.417354
O	-1.016756	-1.592525	-3.019635
N	-2.004059	0.305742	-1.512744
O	-2.668916	-0.445087	-0.800556
O	-2.426074	1.169394	-2.257207
N	-0.459097	1.129637	0.766071
O	-0.796276	2.166009	0.169072
O	-0.390526	1.018753	1.996618
H	2.440302	0.0	0.0
