17

C	-0.13	-0.100622	-1.536632
C	0.0	0.0	0.0
Cl	-0.032725	1.639529	-2.255448
H	1.092252	0.0	0.0
N	0.950012	-0.909496	-1.924923
H	1.810476	-0.624272	-1.391921
H	1.075588	-0.947301	-2.926718
C	-1.411173	-0.605541	-2.045114
N	-2.414951	-1.062728	-2.451725
C	-0.559963	-1.218887	0.704218
H	-0.049133	-2.100846	0.317802
H	-1.638704	-1.319437	0.559543
H	-0.345499	-1.142849	1.773659
N	-0.64891	1.20931	0.544614
O	0.033336	2.004659	1.186393
O	-1.864811	1.318496	0.355933
F	2.658204	0.0	0.0
