17

C	-0.496813	0.006331	-1.45067
C	0.0	0.0	0.0
Cl	0.10064	-1.525388	-2.208179
H	1.092927	0.0	0.0
N	-1.930636	0.047037	-1.693657
H	-2.353682	-0.731556	-1.200094
H	-2.267119	0.912956	-1.286081
C	0.131282	1.090432	-2.223085
N	0.583336	1.93252	-2.905567
C	-0.433118	-1.187507	0.838543
H	0.013719	-1.075422	1.824325
H	-0.043078	-2.102829	0.39858
H	-1.521671	-1.268754	0.953658
N	-0.434246	1.236853	0.673742
O	-0.225269	1.335423	1.883104
O	-0.961242	2.142148	0.005501
F	2.495332	0.0	0.0
