17

C	-0.127838	-0.015265	-1.535811
C	0.0	0.0	0.0
Cl	0.09328	1.73451	-2.16818
H	1.094262	0.0	0.0
N	0.914181	-0.867846	-1.957718
H	1.043921	-0.844905	-2.960004
H	1.781627	-0.621407	-1.42294
C	-1.422643	-0.438375	-2.08103
N	-2.421232	-0.87585	-2.519712
C	-0.555685	-1.256826	0.64021
H	-1.638211	-1.342399	0.502046
H	-0.326385	-1.238682	1.708396
H	-0.058397	-2.11851	0.196495
N	-0.650657	1.160075	0.636075
O	-0.078217	1.683533	1.589666
O	-1.771394	1.477897	0.230077
F	2.643259	0.0	0.0
