17

C	0.0	0.0	0.0
C	-0.43346	0.18215	-1.454689
F	1.405664	0.0	0.0
H	-0.058547	-0.691547	-2.007841
H	-1.527124	0.133676	-1.399529
C	-0.454279	1.147215	0.880768
H	-0.150229	0.930566	1.908014
H	-1.545384	1.168422	0.797416
H	0.001278	2.088984	0.565603
N	-0.523322	-1.217327	0.561584
H	-1.546249	-1.008257	0.527144
H	-0.370228	-1.957184	-0.120881
C	0.058819	1.459181	-2.1277
H	-0.425741	2.340329	-1.700509
H	-0.171837	1.449231	-3.198722
H	1.14082	1.573434	-2.015071
F	-2.93829	0.0	0.0
