17

C	0.0	0.0	0.0
C	-0.20991	0.106035	-1.534204
F	1.399626	0.0	0.0
H	0.394619	-0.724991	-1.90864
H	0.324492	1.023381	-1.822122
C	-0.450005	1.205437	0.80774
H	-0.071897	2.131966	0.3642
H	-0.055672	1.118595	1.827584
H	-1.547857	1.179508	0.811948
N	-0.504069	-1.257901	0.498338
H	-0.279903	-1.296278	1.493811
H	-1.532855	-1.119349	0.422724
C	-1.559181	0.065141	-2.244339
H	-2.123156	-0.835356	-2.009727
H	-2.201914	0.888462	-1.967216
H	-1.340916	0.095984	-3.319206
F	-3.019487	0.0	0.0
