15

C	-0.435047	0.067174	-1.460401
C	0.0	0.0	0.0
Cl	-2.265373	0.610986	-1.45106
H	1.094786	0.0	0.0
H	-0.330768	0.900971	0.520404
C	0.321817	1.159276	-2.185212
H	1.387801	0.928237	-2.11765
H	0.009945	1.21357	-3.231283
H	0.133992	2.126133	-1.718342
N	-0.279157	-1.170633	-2.100115
H	-0.544611	-1.136218	-3.073979
H	-0.756969	-1.925493	-1.626914
C	-0.534391	-1.169976	0.680828
N	-0.9991	-2.125528	1.181036
Br	3.533333	0.0	0.0
