15

C	-0.426498	0.058007	-1.462661
C	0.0	0.0	0.0
Cl	-2.31721	0.206888	-1.496502
H	1.093064	0.0	0.0
H	-0.350801	-0.927744	0.461907
C	0.118583	1.286253	-2.156972
H	-0.171174	1.290548	-3.210926
H	-0.259504	2.195044	-1.688814
H	1.208225	1.251962	-2.068533
N	-0.007307	-1.11799	-2.114853
H	-0.272221	-1.125775	-3.090146
H	-0.340205	-1.955558	-1.656812
C	-0.486539	1.130718	0.779569
N	-0.875263	2.041639	1.409684
Br	3.535293	0.0	0.0
