13

C	-0.347202	7.1e-05	-1.464797
C	0.0	0.0	0.0
Br	-2.291584	0.166518	-1.813268
H	1.096082	0.0	0.0
H	0.101171	0.88359	-1.917074
C	0.119521	-1.20812	-2.12764
N	0.453544	-2.18946	-2.680324
C	-0.54303	-1.114488	0.737887
N	-0.939346	-2.062508	1.309523
N	-0.378033	1.29025	0.614321
O	-0.244099	2.295161	-0.084188
O	-0.726366	1.293721	1.793496
F	2.41403	0.0	0.0
