13

C	-0.422979	0.201023	-1.459058
C	0.0	0.0	0.0
Br	-0.335144	-1.496498	-2.431069
H	1.091576	0.0	0.0
H	-1.458907	0.535247	-1.544338
C	0.437504	1.151816	-2.158431
N	1.052042	1.915048	-2.805895
C	-0.548051	-1.182342	0.621532
N	-0.973758	-2.153827	1.129755
N	-0.39942	1.188864	0.787984
O	-0.365284	1.097578	2.011396
O	-0.684217	2.215834	0.163909
F	2.419936	0.0	0.0
