13

C	-0.44991	0.047751	-1.461659
C	0.0	0.0	0.0
Br	-0.224962	-1.717487	-2.278165
H	1.091518	0.0	0.0
H	-1.511287	0.285152	-1.559236
C	0.320667	1.004933	-2.250173
N	0.859385	1.766574	-2.96356
C	-0.528875	-1.126476	0.735095
N	-0.945147	-2.046086	1.338434
N	-0.419065	1.246203	0.682049
O	-0.306583	1.284767	1.903264
O	-0.804799	2.184158	-0.025091
F	2.42182	0.0	0.0
