13

C	-0.479978	-0.012543	-1.445034
C	0.0	0.0	0.0
Br	0.179285	1.560618	-2.39576
H	1.091531	0.0	0.0
H	0.00556	-0.865663	-1.924479
C	-1.92609	-0.103281	-1.642993
N	-3.077789	-0.217629	-1.849096
C	-0.531249	-1.154878	0.697787
N	-0.943426	-2.115756	1.236945
N	-0.507073	1.238131	0.69616
O	-1.729934	1.380273	0.780669
O	0.327571	2.026421	1.125977
F	2.471599	0.0	0.0
