13

C	-0.255194	0.00373	-1.484608
C	0.0	0.0	0.0
Br	-2.164701	0.166729	-1.979686
H	1.095984	0.0	0.0
H	0.229924	0.885643	-1.901091
C	0.268089	-1.204171	-2.106968
N	0.65003	-2.186431	-2.62585
C	-0.57037	-1.119142	0.705748
N	-0.996154	-2.066858	1.256558
N	-0.387915	1.286053	0.608617
O	-0.280353	2.290975	-0.09476
O	-0.712597	1.288278	1.794719
F	2.411973	0.0	0.0
