11
Coordinates from ORCA-job run
  C   -0.04606407162654      0.01034026437087     -0.44759874710832
  C   0.64714763282572     -0.96312046664587      0.47344998771636
  F   -0.43039360849385     -0.60238775749798     -1.59230686406338
  H   -0.03581972382609     -1.78839185071556      0.68371590206324
  H   0.93078506874012     -0.46772687914681      1.40087415667456
  H   1.53636505482092     -1.35008290911857     -0.02512658672933
  C   0.76294689619997      1.19170843957451     -0.76848170707290
  N   1.44625276600550      2.10711025414002     -1.04053296977173
  N   -1.31578471897915      0.51245606593359      0.25970990573026
  O   -1.10804078707638      1.23332298372012      1.22633096263501
  O   -2.38639450859023      0.11777185538568     -0.17003404007376
