11
Coordinates from ORCA-job run
  C   -0.02693524138483      0.14221474324100     -0.42593276628015
  C   0.53327877119942     -1.11954146919811      0.18275212859406
  F   -0.42154420002056     -0.07499724445711     -1.70281556426318
  H   -0.23211381995385     -1.89650987972455      0.13630262229231
  H   1.40225231760815     -1.43552049371381     -0.39519772004157
  H   0.82310470648263     -0.94257314744982      1.21749753515573
  C   0.90259913011739      1.27679294131808     -0.38371113280203
  N   1.68018171070837      2.15674186770111     -0.37298183451941
  N   -1.27038506488485      0.54898437849842      0.38213609157731
  O   -2.35552878617475      0.40790142763145     -0.15547375397125
  O   -1.03390952369714      0.93650687615334      1.51842439425818
