11
Coordinates from ORCA-job run
  C   -0.00559740535216      0.14715523571818     -0.42612199979238
  C   0.50623446770052     -1.12916158176663      0.19484731494686
  F   -0.34544882423026     -0.05132141348664     -1.72155902290352
  H   1.39161662832306     -1.45726638758779     -0.35053789317558
  H   0.75842865409516     -0.96424957037164      1.24145573411386
  H   -0.27061450659237     -1.89175683496218      0.11323795383137
  C   0.93954866034720      1.26525180713168     -0.32905416316317
  N   1.73046387797950      2.13137800275404     -0.27247008668753
  N   -1.27810387691603      0.56614609466061      0.32925044187995
  O   -1.08753293574775      0.94099757443127      1.47835305076199
  O   -2.33999473960687      0.44382707347908     -0.25740132981186
