14
Coordinates from ORCA-job run
  C   -0.55039137452121      0.08635490198202      0.64027245425942
  C   0.72448469843323     -0.47591944427463      0.00766098006455
  Br  -0.73069582533518     -0.68201087942205      2.41201342435435
  H   1.57952882855450     -0.21933518154096      0.63792394753088
  C   -1.74407215502482     -0.18197247486884     -0.13743486523552
  N   -2.70474627404961     -0.45820781504055     -0.75769895081143
  N   -0.37738871456713      1.60607607715923      0.84475488604170
  O   -1.39164995980285      2.27728325052985      0.79263056372266
  O   0.76168973652934      1.97227708556575      1.08920175794094
  N   1.00372127639605      0.19452897853460     -1.33741917231790
  O   2.01811150414342     -0.18345277513657     -1.90008878740991
  O   0.20956003975045      1.04887883920137     -1.70932665227785
  C   0.63660983220046     -1.91239439581067     -0.20422753455343
  N   0.56223838729333     -3.07210616687856     -0.37826205130847
