14
Coordinates from ORCA-job run
  C   -0.61364113573697      0.07512785660316      0.58053057818171
  C   0.76540104586498     -0.39306814912554      0.11057484414541
  Br  -0.88320960451956     -0.57211273436905      2.38893762689513
  H   1.52643873608994      0.00162977393747      0.78816367367814
  C   -1.69549124321701     -0.37810630524315     -0.27145237788402
  N   -2.56107027351285     -0.80405771531618     -0.94462793595174
  N   -0.61477244338820      1.61595880674262      0.66961837092005
  O   -1.68382350180976      2.16682802950872      0.48077775817673
  O   0.45490436899184      2.12128141951526      0.97231708184747
  N   1.10198288997978      0.19941184926828     -1.25800396658983
  O   0.26573415010003      0.93420198033048     -1.76772907848729
  O   2.19712086234516     -0.11024730800529     -1.69771991074953
  C   0.84157670220729     -1.84250324081695      0.01496480075417
  N   0.89884944660531     -3.01334426302984     -0.06635146493640
