14
Coordinates from ORCA-job run
  C   -0.36221375241496      0.33642894599041      0.56165153251287
  C   0.37936939130889     -0.43884836486855     -0.54683112725259
  Br  0.86004761906855      1.40579923490349      1.58184370608573
  H   -0.31672334745825     -1.13540597903812     -1.02033638453010
  C   -1.15287516247755     -0.51663290346276      1.43407664161486
  N   -1.86062112784087     -1.14606158358356      2.13298203746002
  N   -1.41062208334806      1.24572075473623     -0.17299237812707
  O   -1.98643602056570      0.67307192625673     -1.08904932707418
  O   -1.59277824063890      2.36910388094019      0.24685514298415
  N   1.47012719668195     -1.29853005024424      0.08408011576393
  O   1.07203934805236     -2.07876048343684      0.93886551531907
  O   2.61106560059503     -1.16398016630888     -0.33459421224136
  C   0.94332752498944      0.47944871308736     -1.52201319272012
  N   1.34429305404807      1.26864607502852     -2.29453806979523
