14
Coordinates from ORCA-job run
  C   -0.56919262182568      0.09132600376288      0.62901361537755
  C   0.75988837957140     -0.44988337487467      0.08105890018043
  Br  -0.72919560455286     -0.47039002603246      2.47516998748433
  H   1.57215421303510     -0.12874084583256      0.73432947220629
  C   -1.74224960355299     -0.33358531506682     -0.10939566775850
  N   -2.71068090542860     -0.71459731744013     -0.65832071373450
  N   -0.47094532887590      1.63495855737689      0.62285939220160
  O   -1.45630848775140      2.24817189714335      0.24546778199961
  O   0.59450360619813      2.08358548819346      1.01917985858387
  N   1.04514475723467      0.18362015457917     -1.27524355831820
  O   2.10777880284856      0.78307887344973     -1.37197529288519
  O   0.18408939544120      0.03200777619476     -2.13304524497022
  C   0.71484120153086     -1.89531901151016     -0.07000069180558
  N   0.70117219612749     -3.06423285994345     -0.19009783856151
