14
Coordinates from ORCA-job run
  C   -0.49567617876262      0.23438462698965      0.69221943259674
  C   0.53665274709328     -0.68835109386397      0.00847553495893
  Br  0.22435731106309      0.88055200088859      2.35141775488842
  H   0.78370916769833     -1.48949661467166      0.70938981868072
  C   -1.71516782590794     -0.51803480363547      0.93184256465272
  N   -2.68257262548719     -1.15602994485037      1.13629738776169
  N   -0.87057283308528      1.42401779495211     -0.25705999663924
  O   -1.48028431398147      1.05583990769569     -1.24879989798745
  O   -0.53879111572790      2.54627596666160      0.06167588510853
  N   1.82872457141509      0.06865651409996     -0.23179178258772
  O   1.74151464195440      1.04926904854778     -0.96025764583411
  O   2.82685281755751     -0.37577424629509      0.31795275615195
  C   0.07874675239908     -1.25186905239597     -1.25499892459364
  N   -0.23649311622839     -1.77844010412284     -2.25736288715755
