14
Coordinates from ORCA-job run
  C   -0.48123429145137      0.21668826815721      0.70754055316387
  C   0.51694329086295     -0.70237429187804     -0.03034188787027
  Br  0.28397173196650      0.77704319097007      2.37782688674994
  H   0.74712657975632     -1.54251828058184      0.62944638944113
  C   -1.71376062272076     -0.51669187447880      0.94054879851231
  N   -2.69077150882895     -1.14073823676604      1.14349920341093
  N   -0.84605778421463      1.45100740545121     -0.18452928561284
  O   -1.47816227553955      1.13646289987479     -1.18095503308247
  O   -0.49058567713277      2.55312525015575      0.17629055090753
  N   1.82808432000471      0.02817138620637     -0.24911367510052
  O   2.82129628109369     -0.48012795003741      0.25198358265800
  O   1.75909054555754      1.05338736141343     -0.91502571254052
  C   0.03462814704751     -1.19013383325915     -1.31617510310926
  N   -0.29156873640121     -1.64330129522756     -2.34999526752783
