19

C	0.0	0.0	0.0
C	-0.314772	-0.318461	-1.48507
F	1.398223	0.0	0.0
H	0.429355	-1.098512	-1.705584
C	-0.387147	1.376752	0.369575
N	-0.610166	2.493766	0.653395
C	-0.585295	-0.986123	0.975201
H	-0.244118	-0.768932	1.99036
H	-0.287544	-2.000606	0.702479
H	-1.67704	-0.896817	0.933976
C	-0.001883	0.887711	-2.372695
H	-0.828583	1.599912	-2.345375
H	0.125542	0.56265	-3.408478
H	0.912095	1.399243	-2.063162
C	-1.695315	-0.877022	-1.78727
H	-1.864727	-1.831072	-1.286492
H	-2.510115	-0.218433	-1.483449
H	-1.766387	-1.050948	-2.867423
Cl	-4.428272	0.0	0.0
