19

C	0.0	0.0	0.0
C	-0.513337	0.094925	-1.438406
F	1.398728	0.0	0.0
H	-1.600085	0.207685	-1.339121
C	-0.359618	1.232408	0.741018
N	-0.535293	2.236925	1.322943
C	-0.493467	-1.213501	0.75823
H	-1.586991	-1.210279	0.729956
H	-0.147181	-1.168196	1.793181
H	-0.099255	-2.119674	0.295593
C	-0.21504	-1.184127	-2.21808
H	0.84827	-1.440213	-2.164552
H	-0.803425	-2.026395	-1.850156
H	-0.476351	-1.040887	-3.270224
C	0.070665	1.314073	-2.149095
H	1.156633	1.229371	-2.248225
H	-0.156744	2.23783	-1.612143
H	-0.360404	1.398217	-3.150333
Cl	-3.794519	0.0	0.0
