19

C	0.0	0.0	0.0
C	-0.42001	-0.341565	-1.443125
F	1.398969	0.0	0.0
H	0.340217	0.163445	-2.053699
C	-0.345095	1.408012	0.309874
N	-0.527801	2.538504	0.569794
C	-0.549742	-0.908466	1.075843
H	-0.221287	-0.563771	2.058286
H	-1.643388	-0.888948	1.037576
H	-0.194332	-1.927851	0.921227
C	-1.792346	0.202491	-1.823926
H	-2.599018	-0.101078	-1.150792
H	-2.052659	-0.147107	-2.827842
H	-1.787724	1.295818	-1.842948
C	-0.319779	-1.842853	-1.702841
H	0.631686	-2.25602	-1.356586
H	-1.140647	-2.377151	-1.218344
H	-0.397125	-2.030009	-2.7771
Cl	-4.745453	0.0	0.0
