12

C	0.0	0.0	0.0
C	-0.48645	0.102723	-1.441337
Br	2.010646	0.0	0.0
H	-0.16954	1.05816	-1.870425
H	-0.276388	-0.962806	0.425702
H	-1.585863	0.08633	-1.370727
N	-0.51816	1.041812	0.77013
H	-0.574537	0.85173	1.755974
H	-0.128684	1.948787	0.568541
C	-0.011411	-0.983728	-2.291945
N	0.352626	-1.859583	-2.983149
Cl	-3.739522	0.0	0.0
