12

C	0.0	0.0	0.0
C	-0.239727	0.017206	-1.557674
Br	2.026011	0.0	0.0
H	-0.179333	1.063378	-1.884174
H	-0.234122	-0.973596	0.431245
H	0.596231	-0.484109	-2.053996
N	-0.541505	1.026151	0.784343
H	-1.51876	0.733672	0.929016
H	-0.552803	1.889939	0.249206
C	-1.417042	-0.632424	-2.15447
N	-2.101813	-1.240232	-2.8981
Cl	-3.366985	0.0	0.0
