12

C	0.0	0.0	0.0
C	-0.472457	-0.292244	-1.431853
Br	1.956885	0.0	0.0
H	-1.571679	-0.267407	-1.394106
H	-0.292542	-0.823369	0.651394
H	-0.116309	0.498447	-2.099732
N	-0.501774	1.220515	0.554595
H	-0.344758	1.979234	-0.101185
H	-1.515961	1.083346	0.634646
C	-0.031103	-1.583807	-1.947915
N	0.301975	-2.629297	-2.364926
Cl	-3.540674	0.0	0.0
