12

C	0.0	0.0	0.0
C	-0.499733	0.224236	-1.423493
Br	1.948969	0.0	0.0
H	-1.598382	0.207658	-1.369133
H	-0.267127	-1.010643	0.325952
H	-0.173166	1.21383	-1.754278
N	-0.50641	1.062932	0.822866
H	-1.527531	0.998879	0.733146
H	-0.279017	0.87181	1.793198
C	-0.044285	-0.785289	-2.371807
N	0.308743	-1.587876	-3.152011
Cl	-3.551128	0.0	0.0
