18
Coordinates from ORCA-job run
  C   -0.55643182258620     -0.45304040929262      0.22319303599049
  C   -0.16088406087191      0.99194036945637     -0.13416089824433
  F   -1.95347040710679     -0.44936576779115      0.19744947102715
  H   -0.85128451391980      1.68915769953971      0.33913371617246
  C   -0.14757727348370     -0.75764581313987      1.65345258219143
  H   0.93067516591976     -0.88634757595931      1.74541042124708
  H   -0.47712043189811      0.03390157153694      2.33096592266102
  H   -0.63764210340254     -1.68566325707622      1.95166839055869
  C   -0.07677820950333     -1.48819886570884     -0.76972201326227
  H   -0.38795651134620     -2.47562319431983     -0.42450603772641
  H   -0.52906280794643     -1.31375721874434     -1.74668560728039
  H   1.00880538544927     -1.46618937993249     -0.86099125793358
  N   -0.23380785984674      1.26665730138689     -1.61542304462744
  O   -1.34236554436231      1.09202265352452     -2.10432103915944
  O   0.77808322465240      1.64250435199689     -2.19304012237246
  N   1.20923428985270      1.33364138181932      0.34460956332594
  O   1.30152476437114      2.34168516156087      1.04286691277341
  O   2.12405871602878      0.58332099114316      0.02010000465863
