18
Coordinates from ORCA-job run
  C   -0.37358863792944     -0.51755207672102      0.07102074133624
  C   0.40215775637892      0.78361961534253     -0.15858947751522
  F   -1.45183741355990     -0.53933840927260     -0.80511340393294
  H   1.13250978296070      0.95422330495404      0.63002619496019
  C   -0.93669368410562     -0.55471848813004      1.48117630493387
  H   -1.46488062761240     -1.50073831497315      1.61098280749635
  H   -0.14375962976033     -0.49016145092169      2.22895225535783
  H   -1.64004875986493      0.26000236632640      1.64642599605657
  C   0.51025249180991     -1.71925152523510     -0.21204949350799
  H   -0.04358963203813     -2.62631625983049      0.03495228257187
  H   0.78311891799338     -1.76098803637988     -1.26489221112406
  H   1.41580174315984     -1.69237421602912      0.39948387053413
  N   -0.52259720913200      1.97196677519615     -0.14282850260554
  O   -0.76163559140292      2.42234477169039      0.97346913930076
  O   -0.96582135791093      2.36813520152473     -1.21154058097032
  N   1.16227291938663      0.84868824003394     -1.44907973373359
  O   0.67644734639970      0.32101566222513     -2.44189171368571
  O   2.22189158522753      1.47244284019979     -1.39050447547243
