18
Coordinates from ORCA-job run
  C   -0.29536943263008     -0.56897322287793      0.04078809010312
  C   0.38711006088973      0.78140953064505     -0.20046466466895
  F   -1.13254066265137     -0.82989455255743     -1.03707082321371
  H   1.20195064238883      0.94498493662151      0.50218269514346
  C   -1.13051287260249     -0.52252569348818      1.30797613490113
  H   -1.96057731924724      0.17325202704362      1.20047001126287
  H   -1.53859829821658     -1.51715803778289      1.49422651666524
  H   -0.52120227089122     -0.23449808194914      2.16849667789319
  C   0.73767449095759     -1.68136854246103      0.08986913541495
  H   0.21615187928074     -2.62080056067127      0.28030232692686
  H   1.27039848651005     -1.76669908307606     -0.85602005144582
  H   1.46445473885873     -1.51562104856426      0.88761547110287
  N   -0.51088055108829      1.97574375923928     -0.07963649102083
  O   -1.67174180491188      1.87596082388695     -0.45724050038425
  O   0.03185410915145      2.98286125820985      0.37471508506140
  N   0.99706200558772      0.83852109278147     -1.57607748923774
  O   0.33018275393563      1.32276531509182     -2.47958685612220
  O   2.12458404467867      0.36104007990863     -1.65854526838158
