18
Coordinates from ORCA-job run
  C   -0.35315637912558     -0.53549672283464     -0.00018397120284
  C   0.46053315371556      0.75487398963442     -0.14671831576726
  F   -1.29344762661840     -0.57222371367048     -1.02238367854464
  H   1.34424165344780      0.74072234926160      0.48830511962281
  C   -1.07973118815779     -0.55613754563670      1.33274631826196
  H   -1.83408011885794      0.22750689089619      1.37501045955812
  H   -0.37934319771901     -0.43401829483874      2.16298544455975
  H   -1.57950989804672     -1.51959621481940      1.44425237159966
  C   0.54522765700466     -1.74869288391458     -0.16834963885476
  H   0.99992059689973     -1.76939731747098     -1.15760291327145
  H   1.33800452701590     -1.76441681973807      0.58224696031590
  H   -0.06804446185872     -2.64345220535374     -0.04950287235638
  N   -0.28115124544211      2.00956729744991      0.20212959624622
  O   0.40265089578518      2.87931195299616      0.74202529038625
  O   -1.46801593254459      2.08726740786974     -0.09011120881595
  N   0.95674438684591      0.92132638001585     -1.55837311169139
  O   2.00841973882319      0.33874985885314     -1.80487325381871
  O   0.28073743883294      1.58610559130030     -2.33060259622727
