18
Coordinates from ORCA-job run
  C   -0.31028882058211     -0.56202304168705      0.01216127510992
  C   0.40648583847631      0.78098111488826     -0.16223273354712
  F   -1.17580042322115     -0.73308514302031     -1.06105350397931
  H   1.24289828761396      0.87792687477011      0.52727323464758
  C   -1.11823665111982     -0.56969180024666      1.29764985818860
  H   -1.93309905585642      0.15018398650804      1.24734537429586
  H   -0.48519905949343     -0.34535580736229      2.16001221813755
  H   -1.54613177948780     -1.56384393771864      1.43573044891920
  C   0.69101245387613     -1.70360070028711     -0.02801678938957
  H   1.43312538309716     -1.61010295149611      0.76736425177886
  H   1.20735688089064     -1.74220337626840     -0.98597118330153
  H   0.14547992362275     -2.63858845669598      0.10982074829972
  N   -0.45290960326120      1.98945714763922      0.05552534872310
  O   0.12821426338377      2.94962002474441      0.56131631831584
  O   -1.62403605373082      1.94674554811995     -0.30057225616911
  N   0.98468089044794      0.90645448362338     -1.54709268119464
  O   2.09656769423648      0.40614025103554     -1.68690985257717
  O   0.30987983110761      1.46198578345364     -2.40235007625777
