15

C	-0.329451	-0.033582	-1.481323
C	0.0	0.0	0.0
Br	-0.009777	1.711042	-2.285458
H	1.099594	0.0	0.0
H	-0.330613	-0.968945	0.392574
N	0.454173	-1.005294	-2.192799
H	0.219836	-1.91119	-1.797311
H	1.426866	-0.812806	-1.92831
N	-1.807513	-0.399562	-1.668438
O	-2.644616	0.450911	-1.932738
O	-2.052893	-1.587486	-1.447897
N	-0.660782	1.075397	0.735071
H	-0.073907	1.899269	0.650366
H	-0.645983	0.824715	1.716897
H	2.930341	0.0	0.0
