15

C	-0.234921	0.196259	-1.480536
C	0.0	0.0	0.0
Br	-2.130372	0.734291	-1.949372
H	1.098102	0.0	0.0
H	-0.410312	-0.950923	0.335706
N	0.679328	1.095831	-1.998898
H	0.742789	1.045426	-3.005839
H	1.596715	0.94043	-1.547442
N	-0.165534	-1.202203	-2.198213
O	0.408049	-1.234011	-3.282242
O	-0.681867	-2.168346	-1.647913
N	-0.431151	1.157254	0.769775
H	0.368622	1.498219	1.29014
H	-1.158942	0.903828	1.422241
H	2.825221	0.0	0.0
