15

C	-0.227194	-0.017999	-1.499292
C	0.0	0.0	0.0
Br	-0.439672	2.00622	-2.130434
H	1.100665	0.0	0.0
H	-0.419966	0.887656	0.470085
N	0.768854	-0.69111	-2.127026
H	1.693589	-0.523242	-1.69793
H	0.728952	-0.738023	-3.132301
N	-1.598228	-0.528308	-1.923678
O	-1.675684	-1.110784	-3.001734
O	-2.533206	-0.317771	-1.160718
N	-0.439689	-1.273912	0.557877
H	0.309008	-1.638288	1.134322
H	-1.270242	-1.153277	1.119503
H	2.877672	0.0	0.0
