15

C	-0.276845	-0.146981	-1.483834
C	0.0	0.0	0.0
Br	-0.261767	1.673024	-2.391439
H	1.091154	0.0	0.0
H	-0.308468	-0.955648	0.443099
N	0.62353	-1.061346	-2.013299
H	1.569239	-0.863225	-1.657992
H	0.579303	-1.133579	-3.020041
N	-1.695098	-0.618931	-1.807782
O	-1.89846	-1.079337	-2.927156
O	-2.538874	-0.521594	-0.920022
N	-0.553965	1.161728	0.652549
H	-1.365308	0.915262	1.199286
H	0.156346	1.550728	1.25872
H	2.897091	0.0	0.0
