15

C	-0.636526	-0.027598	-1.38547
C	0.0	0.0	0.0
Br	0.055603	-1.530798	-2.401631
H	1.093998	0.0	0.0
H	-0.360164	0.92133	0.471192
N	-2.077658	-0.111653	-1.396781
H	-2.27756	-0.876396	-0.755093
H	-2.410291	0.742625	-0.956969
N	-0.290827	1.282767	-2.092319
O	-0.854197	2.26407	-1.600969
O	0.481892	1.31139	-3.03496
N	-0.513536	-1.168615	0.73951
H	0.24037	-1.850158	0.743375
H	-0.643309	-0.89509	1.705895
H	2.929213	0.0	0.0
