19

C	-0.28914	-0.096238	-1.495757
C	0.0	0.0	0.0
Cl	0.276957	-1.685297	-2.079757
H	1.092312	0.0	0.0
N	-1.783113	-0.05762	-1.824678
O	-2.190309	0.876894	-2.513259
O	-2.483683	-0.948518	-1.354121
C	0.482726	0.984108	-2.219683
H	0.439096	0.845772	-3.300193
H	1.505279	0.895631	-1.835855
H	0.078699	1.966643	-1.974847
C	-0.576543	-1.042306	0.931056
H	-0.144736	-0.877488	1.923331
H	-0.263408	-2.031661	0.596586
H	-1.664724	-1.007724	0.990837
N	-0.479705	1.348219	0.437267
O	-1.704317	1.535279	0.447642
O	0.348287	2.194597	0.764269
F	2.59534	0.0	0.0
