19

C	-0.532469	0.032729	-1.434189
C	0.0	0.0	0.0
Cl	0.477153	1.025266	-2.515472
H	1.096944	0.0	0.0
N	-0.378423	-1.413031	-1.936627
O	-1.407276	-2.090358	-1.984403
O	0.744533	-1.816578	-2.198052
C	-1.982852	0.43915	-1.606304
H	-2.620395	-0.139368	-0.93708
H	-2.070366	1.497779	-1.378567
H	-2.302978	0.263389	-2.633838
C	-0.397299	-1.239251	0.781966
H	-0.00039	-1.132834	1.788553
H	0.08934	-2.106705	0.336348
H	-1.477746	-1.410942	0.83967
N	-0.394478	1.221394	0.724675
O	-0.494587	2.280547	0.096759
O	-0.520258	1.157398	1.952602
F	2.486902	0.0	0.0
