19

C	-0.58136	0.100897	-1.411828
C	0.0	0.0	0.0
Cl	0.414769	1.110504	-2.485407
H	1.093959	0.0	0.0
N	-0.504764	-1.327284	-1.971067
O	-1.535881	-1.997297	-1.88909
O	0.568913	-1.734405	-2.389286
C	-2.026026	0.558673	-1.50567
H	-2.645083	-0.00169	-0.804527
H	-2.069357	1.618622	-1.270277
H	-2.405868	0.398537	-2.515433
C	-0.342744	-1.284048	0.73645
H	0.112074	-1.220245	1.722077
H	-1.414438	-1.479434	0.845419
H	0.135516	-2.116853	0.220962
N	-0.400516	1.175939	0.794136
O	-0.447192	2.275155	0.232564
O	-0.59368	1.031656	2.006249
F	2.489386	0.0	0.0
