19

C	-0.509643	0.146328	-1.439297
C	0.0	0.0	0.0
Cl	0.553051	1.161026	-2.44688
H	1.103872	0.0	0.0
N	-0.418132	-1.262664	-2.035132
O	-1.48134	-1.863958	-2.200862
O	0.69496	-1.724581	-2.242865
C	-1.933842	0.641558	-1.575578
H	-1.966963	1.679794	-1.251049
H	-2.26083	0.58224	-2.61387
H	-2.60333	0.040505	-0.960766
C	-0.436108	-1.280587	0.684693
H	-0.083537	-1.240318	1.712989
H	-1.518718	-1.444728	0.696984
H	0.064033	-2.121957	0.206307
N	-0.445906	1.175009	0.772033
O	-0.240643	2.292918	0.291722
O	-0.968483	1.00171	1.881071
F	2.495816	0.0	0.0
