19

C	-0.327858	0.00104	-1.488706
C	0.0	0.0	0.0
Cl	-2.041777	-0.431036	-1.827768
H	1.096678	0.0	0.0
N	-0.077315	1.389868	-2.111774
O	1.099399	1.65038	-2.317216
O	-1.029642	2.111272	-2.369939
C	0.614838	-0.963157	-2.192878
H	0.593181	-0.80007	-3.272433
H	0.304161	-1.987031	-1.990033
H	1.610111	-0.780624	-1.772198
C	-0.410107	-1.279524	0.698915
H	-1.48907	-1.433801	0.73208
H	-0.026393	-1.247585	1.71852
H	0.072094	-2.119685	0.199452
N	-0.528556	1.181787	0.713463
O	-0.205115	2.294813	0.294586
O	-1.214322	1.007056	1.72701
F	2.558886	0.0	0.0
