17

C	-0.10641	-0.045344	-1.544481
C	0.0	0.0	0.0
Cl	-0.043965	1.798346	-2.14983
H	1.091646	0.0	0.0
N	0.968983	-0.78677	-1.996341
H	1.824133	-0.577418	-1.420494
H	1.098618	-0.776911	-2.997282
C	-1.400913	-0.465334	-2.088933
N	-2.447076	-0.803026	-2.508202
N	-0.483299	-1.328874	0.489542
O	-1.664211	-1.405628	0.850084
O	0.310211	-2.268543	0.511387
C	-0.705378	1.111647	0.730728
H	-1.741741	1.23077	0.407529
H	-0.703758	0.893636	1.800108
H	-0.164229	2.042502	0.569336
F	2.647487	0.0	0.0
