17

C	-0.496564	0.047841	-1.438832
C	0.0	0.0	0.0
Cl	0.322651	-1.293493	-2.410749
H	1.090056	0.0	0.0
N	-1.919239	0.034998	-1.581923
H	-2.172306	0.086784	-2.561768
H	-2.25563	-0.837848	-1.192238
C	0.008249	1.281774	-2.063377
N	0.291822	2.280229	-2.612993
N	-0.466979	-1.202514	0.713602
O	-1.185904	-2.033471	0.138056
O	-0.082742	-1.340441	1.875098
C	-0.39563	1.235298	0.795471
H	0.001606	1.124719	1.803613
H	0.090563	2.103359	0.348854
H	-1.47674	1.398647	0.825618
F	2.505534	0.0	0.0
