17

C	-0.426019	-0.019431	-1.448006
C	0.0	0.0	0.0
Cl	-2.294722	-0.460337	-1.556661
H	1.092763	0.0	0.0
N	-0.202225	1.235662	-2.056732
H	-0.734773	1.961442	-1.597649
H	-0.430559	1.208112	-3.041768
C	0.223101	-1.044984	-2.271542
N	0.69807	-1.769413	-3.064714
N	-0.399184	-1.243746	0.675304
O	-0.326677	-2.290047	0.028143
O	-0.71989	-1.196861	1.866628
C	-0.439445	1.228375	0.759634
H	-1.52096	1.403553	0.724419
H	0.107255	2.086307	0.363944
H	-0.141142	1.112836	1.799232
F	2.483133	0.0	0.0
