17

C	-0.493451	0.007819	-1.441763
C	0.0	0.0	0.0
Cl	0.39321	-1.300128	-2.402203
H	1.090057	0.0	0.0
N	-1.914372	-0.080936	-1.585233
H	-2.167349	-0.042874	-2.565427
H	-2.201604	-0.972789	-1.198147
C	-0.052975	1.257896	-2.080799
N	0.196588	2.257319	-2.64635
N	-0.46683	-1.183674	0.74245
O	-0.185329	-1.237512	1.938961
O	-1.086257	-2.085108	0.156071
C	-0.399032	1.258277	0.756734
H	-0.015794	1.173093	1.772164
H	0.095421	2.112792	0.293791
H	-1.481118	1.42275	0.772095
F	2.500873	0.0	0.0
