17

C	-0.133238	0.118193	-1.536113
C	0.0	0.0	0.0
Cl	-1.71435	0.88707	-2.026211
H	1.093856	0.0	0.0
N	0.959631	0.921002	-2.062814
H	0.767141	1.8908	-1.834767
H	1.789051	0.636608	-1.494381
C	-0.11229	-1.172773	-2.24253
N	-0.126126	-2.14907	-2.895571
N	-0.553294	-1.24907	0.556177
O	-0.03688	-2.306981	0.194117
O	-1.48041	-1.176021	1.371976
C	-0.487366	1.210154	0.757816
H	-0.040797	2.102565	0.315457
H	-1.572575	1.307019	0.759481
H	-0.134416	1.14253	1.788329
F	2.607611	0.0	0.0
