17

C	-0.153101	0.069598	-1.531299
C	0.0	0.0	0.0
Cl	-1.77344	0.826302	-2.025109
H	1.093567	0.0	0.0
N	0.920611	0.903527	-1.968824
H	1.768078	0.649432	-1.410276
H	1.074974	0.811709	-2.964432
C	-0.180912	-1.226213	-2.235235
N	-0.155055	-2.162053	-2.947208
N	-0.528431	-1.241608	0.593029
O	-1.342968	-1.153794	1.517582
O	-0.088999	-2.309403	0.164128
C	-0.494222	1.235631	0.710263
H	-0.104197	2.100752	0.173131
H	-1.581385	1.290768	0.759731
H	-0.090035	1.243693	1.723951
F	2.612684	0.0	0.0
