17

C	-0.130933	0.087411	-1.537576
C	0.0	0.0	0.0
Cl	-1.724322	0.816634	-2.045554
H	1.093783	0.0	0.0
N	0.946621	0.906285	-2.072278
H	0.737296	1.871332	-1.837779
H	1.780962	0.632914	-1.507115
C	-0.076175	-1.212362	-2.222897
N	-0.047662	-2.206297	-2.84712
N	-0.551738	-1.237306	0.583375
O	-1.465646	-1.146192	1.411395
O	-0.046407	-2.303683	0.232797
C	-0.4923	1.225492	0.730545
H	-1.577962	1.313989	0.734416
H	-0.054661	2.110109	0.265327
H	-0.134377	1.185753	1.760562
F	2.6056	0.0	0.0
