18

C	0.0	0.0	0.0
C	-0.58091	-0.015359	-1.414616
Cl	1.806002	0.0	0.0
H	-1.670521	-0.06606	-1.191297
C	-0.357645	1.254186	0.680565
N	-0.541532	2.272136	1.237419
C	-0.505706	-1.185246	0.801657
H	-0.203919	-2.10137	0.29598
H	-1.603878	-1.089132	0.804675
H	-0.109901	-1.159908	1.819792
N	-0.168722	-1.246312	-2.085049
H	0.700661	-1.087327	-2.585937
H	-0.881472	-1.491808	-2.762911
C	-0.289791	1.252688	-2.206163
H	-0.739869	1.162705	-3.199654
H	-0.722837	2.130746	-1.720352
H	0.787997	1.411735	-2.328298
H	-3.264842	0.0	0.0
