18

C	0.0	0.0	0.0
C	-0.444877	0.155139	-1.527053
Cl	1.805897	0.0	0.0
H	0.477479	0.040289	-2.103926
C	-0.358345	1.199332	0.776873
N	-0.550907	2.180412	1.394869
C	-0.52349	-1.233823	0.709871
H	-1.620455	-1.145425	0.712993
H	-0.207112	-2.139048	0.186579
H	-0.146605	-1.267139	1.735379
N	-0.998166	1.455021	-1.854021
H	-0.38173	2.195401	-1.549017
H	-1.893171	1.539952	-1.355807
C	-1.442368	-0.908164	-1.984529
H	-1.032632	-1.922988	-1.915786
H	-1.68268	-0.695145	-3.028699
H	-2.353013	-0.809529	-1.376718
H	-3.407847	0.0	0.0
