19

C	-0.358927	0.014845	-1.490826
C	0.0	0.0	0.0
F	-1.715013	0.352879	-1.65129
H	1.09174	0.0	0.0
N	0.416825	1.083699	-2.063751
H	0.406879	1.005611	-3.074227
H	1.38319	1.00808	-1.747908
C	-0.17954	-1.327192	-2.176162
H	-0.384157	-1.197788	-3.243105
H	0.844631	-1.676621	-2.037638
H	-0.872243	-2.073034	-1.78254
N	-0.479024	-1.267394	0.620633
O	-1.612567	-1.277432	1.109883
O	0.265078	-2.245671	0.575738
C	-0.539073	1.198058	0.750135
H	-1.627036	1.219045	0.728609
H	-0.147516	2.098296	0.277362
H	-0.195762	1.167902	1.786516
Br	3.511954	0.0	0.0
