19

C	-0.479951	0.04727	-1.466804
C	0.0	0.0	0.0
F	-0.235461	-1.233911	-1.970547
H	1.090667	0.0	0.0
N	-1.879497	0.299339	-1.68214
H	-2.424021	-0.201322	-0.988652
H	-2.070673	1.288782	-1.598467
C	0.374471	1.015453	-2.257343
H	0.212173	2.046903	-1.933966
H	1.428575	0.769468	-2.114499
H	0.10218	0.926998	-3.310767
N	-0.504778	-1.262833	0.609358
O	-1.729656	-1.335342	0.790758
O	0.287793	-2.153165	0.884239
C	-0.478106	1.173165	0.836114
H	-0.057553	2.095929	0.43207
H	-1.565845	1.241142	0.863621
H	-0.102254	1.068507	1.856237
Br	3.585067	0.0	0.0
