13

C	-0.600382	-0.033611	-1.397953
C	0.0	0.0	0.0
Br	0.045315	-1.66955	-2.362627
H	1.086985	0.0	0.0
H	-0.120172	0.764635	-1.964513
H	-0.366206	0.909395	0.48221
N	-2.011082	0.054101	-1.422814
H	-2.454421	-0.051192	-0.524701
H	-2.389317	0.787495	-1.99498
N	-0.533775	-1.114253	0.825581
O	0.139612	-2.126151	0.96773
O	-1.667074	-0.948761	1.304915
Br	3.545368	0.0	0.0
