13

C	-0.461786	-0.125324	-1.44917
C	0.0	0.0	0.0
Br	-0.265755	1.598757	-2.363094
H	1.088987	0.0	0.0
H	-1.525546	-0.347913	-1.510876
H	-0.356187	-0.889103	0.529985
N	0.299993	-1.116888	-2.162178
H	0.049039	-2.034181	-1.810252
H	1.288823	-0.969717	-1.972251
N	-0.622603	1.146853	0.698993
O	-1.857571	1.121002	0.7604
O	0.089616	2.032867	1.15985
Br	3.533446	0.0	0.0
