13

C	-0.56433	0.035116	-1.407404
C	0.0	0.0	0.0
Br	-0.150969	-1.722668	-2.321808
H	1.086952	0.0	0.0
H	0.038907	0.733567	-1.98639
H	-0.383671	0.878797	0.523851
N	-1.936388	0.381889	-1.452849
H	-2.468348	-0.225175	-0.841068
H	-2.300619	0.325416	-2.394314
N	-0.525212	-1.170865	0.759419
O	0.252845	-2.040108	1.126944
O	-1.747338	-1.187531	0.965453
Br	3.560017	0.0	0.0
