13

C	-0.558448	0.010747	-1.425383
C	0.0	0.0	0.0
Br	-0.016261	-1.624618	-2.340418
H	1.088165	0.0	0.0
H	-0.036138	0.810809	-1.95277
H	-0.379197	0.885932	0.51752
N	-1.984775	0.179622	-1.598124
H	-2.250768	1.066444	-1.183254
H	-2.456848	-0.541777	-1.06698
N	-0.527935	-1.162456	0.759567
O	-1.738462	-1.133422	1.034563
O	0.227976	-2.084815	1.037126
Br	3.558942	0.0	0.0
