14

C	0.0	0.0	0.0
C	-0.490162	0.011856	-1.44058
Br	2.017094	0.0	0.0
H	-1.579778	-0.161425	-1.385016
H	-0.270159	0.974646	-1.898671
N	-0.508965	1.136163	0.633993
H	-0.571251	1.087632	1.637281
H	-0.142655	2.009527	0.289819
C	-0.361397	-1.205372	0.750293
N	-0.554803	-2.138163	1.437811
N	0.145161	-1.019568	-2.292283
O	0.15461	-2.17292	-1.869936
O	0.598516	-0.654777	-3.37772
Br	-3.724915	0.0	0.0
