14

C	0.0	0.0	0.0
C	-0.482431	0.402916	-1.394771
Br	1.962955	0.0	0.0
H	-0.2432	1.450712	-1.571847
H	-1.572267	0.244569	-1.402148
N	-0.489039	0.888475	1.017759
H	-1.509778	0.75708	1.044678
H	-0.298442	1.847115	0.741326
C	-0.36872	-1.376473	0.366403
N	-0.577147	-2.479256	0.713229
N	0.116821	-0.355968	-2.519337
O	0.152899	-1.579944	-2.426941
O	0.511839	0.297112	-3.48604
Br	-3.624724	0.0	0.0
