12
Coordinates from ORCA-job run
  C   0.96550541692469     -0.50138320119010     -0.26921035104716
  C   -0.54068552713699     -0.23709825392601     -0.37366257611564
  Cl  1.22605449627261     -2.26071133171690     -0.22626607918497
  H   -0.92507629139898     -0.72647389187638     -1.27454749101735
  H   1.45157894688282     -0.11830637035400     -1.16587079168589
  C   1.52957032396312      0.14495776582434      0.90970799846100
  N   1.97132026580748      0.68170609842608      1.85642015490259
  N   -0.78969543412131      1.25369619051827     -0.59285882620932
  O   -1.86533327762067      1.69367574796214     -0.21835513142203
  O   0.09483325226804      1.85855930065537     -1.18655797368887
  C   -1.27299421906838     -0.69497879688982      0.79780676690113
  N   -1.84407795277243     -1.09364325743299      1.74339430010650
