12
Coordinates from ORCA-job run
  C   0.83439801681413     -0.59981525042379      0.19537533324417
  C   -0.47566164950956     -0.07379320403226     -0.41597739432637
  Cl  0.70245522478872     -0.69155646850550      1.96429565670058
  H   -0.31608821630948      0.12525896928621     -1.48031508144978
  H   0.97313718109481     -1.62247336949425     -0.16634083111975
  C   1.99258574959521      0.19175092905020     -0.20696972401806
  N   2.95452452502401      0.77072422065158     -0.55166573277393
  N   -0.83040066694663      1.26885148741280      0.19813801080920
  O   -1.81885483667744      1.32847740713458      0.91486793505762
  O   -0.05685189148169      2.17386276710640     -0.08811783324345
  C   -1.55893199020596     -1.02894459755262     -0.23372109386926
  N   -2.39931144618611     -1.84234289063335     -0.12856924501097
