12
Coordinates from ORCA-job run
  C   0.95068400890918     -0.51270114869956     -0.29148410522998
  C   -0.55136181409923     -0.21817013084296     -0.37454261468285
  Cl  1.18189744316740     -2.27629962258346     -0.29882473259553
  H   -0.95095137448395     -0.67322494162852     -1.28661894633399
  H   1.43427592421224     -0.11336205854714     -1.18249162587181
  C   1.53743390097323      0.09233146890304      0.89837803208509
  N   2.00125653100648      0.59606803149685      1.85278755749869
  N   -0.76775215339618      1.28374359788289     -0.54976014893766
  O   -1.79575509505815      1.75518191735796     -0.08938296189706
  O   0.09263821862749      1.86743359448565     -1.19779448882228
  C   -1.28194890489542     -0.69517664734735      0.79012727816787
  N   -1.85141668496310     -1.10782406047739      1.73060675661949
