18

C	0.0	0.0	0.0
C	-0.526644	-0.0425	-1.452998
Cl	1.799296	0.0	0.0
H	-1.626794	-0.136305	-1.267608
N	-0.507933	1.123553	0.737886
H	-1.538087	0.990548	0.696438
H	-0.288271	1.985681	0.250519
C	-0.436038	-1.261484	0.728152
H	-0.027578	-2.154304	0.250851
H	-1.532689	-1.274502	0.703161
H	-0.088118	-1.206313	1.761144
C	-0.058185	-1.216403	-2.179358
N	0.31185	-2.145207	-2.798832
C	-0.265002	1.22071	-2.27058
H	-0.802597	2.063848	-1.83112
H	-0.638439	1.090104	-3.289371
H	0.802885	1.452682	-2.31695
H	-3.089192	0.0	0.0
