18

C	0.0	0.0	0.0
C	-0.594579	-0.009126	-1.406002
Cl	1.846527	0.0	0.0
H	-1.697669	-0.083206	-1.145838
N	-0.429544	1.196404	0.650557
H	0.134158	1.990783	0.385137
H	-0.418217	1.090725	1.654393
C	-0.485436	-1.205355	0.769636
H	-0.175303	-2.131731	0.283515
H	-1.585705	-1.115934	0.775934
H	-0.087083	-1.192178	1.788707
C	-0.178279	-1.17945	-2.167031
N	0.131655	-2.117613	-2.805512
C	-0.367015	1.274595	-2.198165
H	0.697479	1.511075	-2.290555
H	-0.787367	1.17378	-3.201379
H	-0.89149	2.087869	-1.69422
H	-3.256528	0.0	0.0
