18

C	0.0	0.0	0.0
C	-0.265341	-0.093944	-1.542006
Cl	1.856138	0.0	0.0
H	0.537994	-0.716398	-1.945423
N	-0.558562	1.198272	0.536138
H	-1.578419	1.107273	0.369227
H	-0.43922	1.185396	1.545307
C	-0.439872	-1.26833	0.70819
H	-1.537867	-1.270638	0.689625
H	-0.040672	-2.168562	0.23247
H	-0.098855	-1.243047	1.747809
C	-0.076349	1.22329	-2.159733
N	0.070192	2.223559	-2.75737
C	-1.591505	-0.724694	-1.984722
H	-2.445123	-0.334976	-1.406758
H	-1.731645	-0.552436	-3.054796
H	-1.550852	-1.804386	-1.815222
H	-3.450677	0.0	0.0
