18

C	0.0	0.0	0.0
C	-0.52795	-0.006358	-1.453245
Cl	1.799414	0.0	0.0
H	-1.628016	-0.101151	-1.27034
N	-0.507459	1.105276	0.76571
H	-1.537405	0.97212	0.723668
H	-0.291026	1.979629	0.297254
C	-0.43531	-1.279568	0.696478
H	-0.026607	-2.16007	0.196707
H	-0.086968	-1.250444	1.730651
H	-1.531919	-1.292282	0.671098
C	-0.065204	-1.164064	-2.207637
N	0.299725	-2.079067	-2.84862
C	-0.26088	1.274218	-2.239553
H	-0.792971	2.108045	-1.779355
H	0.806999	1.501658	-2.279969
H	-0.635262	1.170487	-3.261269
H	-3.090039	0.0	0.0
