15
Coordinates from ORCA-job run
  C   0.51468664778269      0.47388288866794     -0.39708866292818
  C   -0.72053107006243     -0.35854558955527     -0.66992466083945
  Cl  1.20314127243028      1.01182452808897     -2.01403625658311
  H   -0.45055374545583     -1.14821512422934     -1.37037224993945
  H   -1.42849563208241      0.29736166573665     -1.18742899894401
  N   0.28813113833940      1.51912511265575      0.50708002396906
  H   -0.44206335641716      2.13531560826730      0.17672837375846
  H   1.13344945660597      2.03588846980762      0.71084079706117
  N   1.64613327591034     -0.38309035444002      0.17950080030805
  O   1.65286476676214     -1.57146597760447     -0.11307071428536
  O   2.48110497875642      0.20174239832134      0.85884276548530
  C   -1.34684793783373     -0.93745692732655      0.59437375868208
  H   -1.61711308578073     -0.15344064024766      1.30119940044742
  H   -0.66380315676790     -1.62851841053976      1.08977866803992
  H   -2.24910355218706     -1.49440764760248      0.33257695576811
