15
Coordinates from ORCA-job run
  C   0.54629897146925      0.30790796353154     -0.23527175916131
  C   -0.33131139515708     -0.89249503724067      0.04961097649039
  Cl  0.33137360009260      0.79476160195562     -1.99676418359928
  H   -0.14580729781601     -1.64270300521971     -0.71793849605704
  H   0.00672748653606     -1.30624031176786      1.00376706599638
  N   0.37163181382510      1.35752558241689      0.67648287785133
  H   -0.57404270819561      1.71240793497332      0.65505001545860
  H   1.03379768564906      2.10463441317516      0.50896702077056
  N   2.02827654893749     -0.07953891596978     -0.17296762594968
  O   2.82188079609340      0.83970988340805     -0.01331770817779
  O   2.30789952363999     -1.26252527253085     -0.31399553791309
  C   -1.81279582928846     -0.53931754514338      0.12233014087012
  H   -2.03536529368296      0.08609634208046      0.98950504121023
  H   -2.14786110638308     -0.02772550020045     -0.78163255059709
  H   -2.40270279571976     -1.45149813346833      0.22617472280764
