15
Coordinates from ORCA-job run
  C   0.50805957864309      0.39332754970941     -0.48476092318661
  C   -0.77615503437619     -0.40397483561309     -0.57454860447340
  Cl  1.11262824783330      0.68674086980667     -2.19546497725732
  H   -1.48747421163702      0.21537340558857     -1.13103929407088
  H   -0.58519375148977     -1.28903529570342     -1.18053220376354
  N   0.38473785141766      1.55437353062381      0.28809802772891
  H   -0.34280316583660      2.15727622327449     -0.07114748007764
  H   1.26086106386984      2.05276317098238      0.37141721388106
  N   1.63750358963742     -0.43927613759229      0.13066336259524
  O   1.57420120731911     -1.65414680944959     -0.00428861568214
  O   2.53884161783723      0.18407246651357      0.67786677682440
  C   -1.34434086175916     -0.78498564793309      0.78847516517420
  H   -2.28255117704708     -1.32762312284542      0.65386428621430
  H   -1.53873610673609      0.09525078898638      1.40065370130294
  H   -0.65957884767577     -1.43813615634839      1.33074356479047
