15
Coordinates from ORCA-job run
  C   0.57462845749026      0.52355680999949     -0.52341393018575
  C   -0.67959745581701     -0.33397474015578     -0.68527420117622
  Cl  1.17409554880020      0.95951641415139     -2.14083340475523
  H   -1.42714296873054      0.29616120724919     -1.17719607166875
  H   -0.44664795854069     -1.15554532349920     -1.36626546349518
  N   0.49376105295406      1.71030257992036      0.25801464477563
  H   -0.23097417049771      2.31727754393956     -0.10117002446686
  H   0.34268376239048      1.49865748338321      1.23457739175116
  N   1.61275964851973     -0.39212417593866      0.14351072435528
  O   2.02681349024601     -1.33225122001695     -0.51935648786902
  O   1.86176599720127     -0.17105446808373      1.32451193187563
  C   -1.21381491432741     -0.87176075808984      0.63743280051279
  H   -2.14680109797829     -1.41131507574739      0.46444105291313
  H   -1.42525601478416     -0.06961272268392      1.34752261955432
  H   -0.51427337692620     -1.56783355442773      1.10449841787909
