15
Coordinates from ORCA-job run
  C   0.46860862062430      0.50401562053339     -0.44933781584508
  C   -0.85786833826483      0.12456338064324      0.20455634835295
  Cl  0.40728230605821      0.20173856448021     -2.18759117747658
  H   -0.79729835746150      0.46109262738664      1.24440916318151
  H   -1.63003984206940      0.71989633241579     -0.29181929435032
  N   0.93537875124823      1.84416418836890     -0.24224473589021
  H   0.89537994285110      2.06907795055114      0.74448038112135
  H   0.36511512514399      2.49337209019740     -0.76813927720318
  N   1.52825605448896     -0.40059729672149      0.19721968664260
  O   1.99965417514978     -1.34280265322868     -0.41803426738661
  O   1.76163958214008     -0.10111309005631      1.36590539571914
  C   -1.19900725013042     -1.35979601051274      0.15443157776613
  H   -0.48706500499930     -1.95017785152102      0.73465858703354
  H   -1.20109337371810     -1.73533987962989     -0.86934609933220
  H   -2.18994239106113     -1.52709397290658      0.58085152766696
