14

C	-0.585118	0.009669	-1.399465
C	0.0	0.0	0.0
Br	-0.04804	-1.632078	-2.310121
H	1.087964	0.0	0.0
H	-1.67394	-0.003545	-1.353317
C	-0.136021	1.154754	-2.181714
N	0.15138	2.06429	-2.867943
N	-0.536663	-1.179833	0.760308
O	-1.742342	-1.401139	0.625447
O	0.23865	-1.800985	1.473462
N	-0.49478	1.182542	0.783057
O	-0.029383	1.307101	1.908133
O	-1.343168	1.9058	0.260232
Br	3.314221	0.0	0.0
