15

C	0.0	0.0	0.0
C	-0.56095	-0.007463	-1.401206
Cl	1.783011	0.0	0.0
H	-1.790124	-0.023807	-0.941361
H	-0.387989	-0.903015	0.495488
C	-0.426702	1.177419	0.768548
N	-0.694539	2.13443	1.405903
N	-0.233175	-1.269718	-2.039749
O	-0.07676	-1.340367	-3.279703
O	-0.220759	-2.296891	-1.314795
C	-0.196629	1.190644	-2.269099
H	-0.626511	1.074224	-3.264497
H	0.892622	1.283359	-2.387319
H	-0.589627	2.091218	-1.786755
H	-2.675159	0.0	0.0
