15

C	0.0	0.0	0.0
C	-0.229871	-0.015308	-1.547224
Cl	1.783508	0.0	0.0
H	0.339883	-0.882748	-1.905194
H	-0.372157	-0.925028	0.42598
C	-0.545482	1.134893	0.754098
N	-0.699899	2.105734	1.41215
N	0.514406	1.13859	-2.172258
O	1.260187	0.886524	-3.11991
O	0.273726	2.260253	-1.739203
C	-1.579622	0.007558	-2.236199
H	-1.382719	-0.01599	-3.31426
H	-2.166511	0.879629	-1.955075
H	-2.154415	-0.858242	-1.934173
H	-2.324008	0.0	0.0
