11

C	0.0	0.0	0.0
C	-0.507677	-0.622125	-1.328582
Br	1.946032	0.0	0.0
H	-1.152682	-1.456474	-1.056123
H	-0.331018	-0.551103	0.874178
H	-0.329661	1.029391	0.09687
H	0.343291	-0.998233	-1.908999
N	-1.327048	0.265857	-2.137916
H	-2.116618	0.413081	-1.471557
H	-0.826062	1.141733	-2.262103
F	-2.726178	0.0	0.0
