11

C	0.0	0.0	0.0
C	-0.536725	-0.295736	-1.391469
Br	1.949979	0.0	0.0
H	-0.014449	-1.158681	-1.820168
H	-0.322961	-0.758257	0.709267
H	-0.354762	0.96545	0.349549
H	-1.597177	-0.50674	-1.159745
N	-0.485816	0.832167	-2.32019
H	0.418191	1.293535	-2.253541
H	-1.191521	1.484964	-1.991217
F	-2.767029	0.0	0.0
