17

C	-0.36445	0.023233	-1.473045
C	0.0	0.0	0.0
F	-1.76988	0.099683	-1.62212
H	1.096328	0.0	0.0
N	0.194874	1.229502	-2.019307
H	1.154277	1.305316	-1.677983
H	0.228688	1.162098	-3.031747
C	0.072055	-1.250791	-2.163351
H	-0.409995	-2.114983	-1.710069
H	1.155151	-1.346075	-2.055568
H	-0.194971	-1.191826	-3.223407
N	-0.430623	-1.221528	0.671138
H	0.236886	-1.415333	1.409362
H	-1.346359	-1.097825	1.08471
C	-0.474278	1.209748	0.679434
N	-0.87032	2.113951	1.31869
H	2.768038	0.0	0.0
