17

C	-0.406806	-0.040069	-1.469915
C	0.0	0.0	0.0
F	-0.008014	1.202086	-2.027137
H	1.10346	0.0	0.0
N	0.319024	-1.114456	-2.053837
H	0.172428	-1.128968	-3.057427
H	1.312178	-0.978098	-1.84751
C	-1.894964	-0.13914	-1.715582
H	-2.296265	-1.023068	-1.223451
H	-2.093673	-0.185489	-2.791317
H	-2.380753	0.750705	-1.310975
N	-0.505241	-1.21254	0.683418
H	-0.015407	-1.248428	1.574186
H	-0.119931	-1.978636	0.137302
C	-0.52529	1.189928	0.660391
N	-0.942706	2.135318	1.219788
H	2.856728	0.0	0.0
