17

C	-0.477851	-0.031883	-1.450067
C	0.0	0.0	0.0
F	0.063652	-1.23785	-1.982524
H	1.093557	0.0	0.0
N	-1.899752	-0.087966	-1.505377
H	-2.188287	-0.813121	-0.857082
H	-2.191977	-0.340966	-2.441982
C	0.110146	1.093245	-2.26441
H	-0.287013	2.049605	-1.923268
H	1.195314	1.077076	-2.141875
H	-0.144523	0.956958	-3.319808
N	-0.507702	-1.210951	0.689165
H	-0.44744	-1.04618	1.687383
H	0.191038	-1.922946	0.488202
C	-0.490918	1.197096	0.666863
N	-0.853973	2.154307	1.244704
H	2.822978	0.0	0.0
