17

C	-0.364717	-0.013727	-1.485756
C	0.0	0.0	0.0
F	-1.772607	-0.056951	-1.593015
H	1.096312	0.0	0.0
N	0.071203	1.169574	-2.185494
H	1.089636	1.173178	-2.13309
H	-0.24755	1.982568	-1.667703
C	0.192186	-1.240942	-2.168446
H	1.273977	-1.27636	-2.005731
H	-0.036213	-1.182195	-3.233837
H	-0.258781	-2.143323	-1.753863
N	-0.450607	-1.145851	0.780014
H	-1.320071	-1.505411	0.404739
H	0.267071	-1.85914	0.724328
C	-0.485385	1.239036	0.610804
N	-0.879089	2.248654	1.067744
H	2.772622	0.0	0.0
