17

C	-0.25494	-0.006047	-1.511053
C	0.0	0.0	0.0
F	-1.645885	-0.006226	-1.746617
H	1.096316	0.0	0.0
N	0.289831	1.164998	-2.154728
H	1.292456	1.151343	-1.957477
H	-0.084372	1.987822	-1.690936
C	0.336099	-1.243902	-2.145106
H	-0.165285	-2.141708	-1.779119
H	0.209932	-1.174675	-3.226759
H	1.398569	-1.293586	-1.886617
N	-0.466819	-1.155776	0.753173
H	0.282767	-1.837663	0.76679
H	-1.280205	-1.560448	0.30645
C	-0.510475	1.236883	0.58872
N	-0.921744	2.244392	1.034075
H	2.764013	0.0	0.0
