17

C	-0.476782	0.005113	-1.449807
C	0.0	0.0	0.0
F	0.00201	-1.227373	-1.992425
H	1.099828	0.0	0.0
N	-1.898753	0.027451	-1.509434
H	-2.203407	-0.194481	-2.450625
H	-2.239714	-0.681744	-0.867528
C	0.176027	1.102207	-2.252898
H	-0.167452	2.076782	-1.902718
H	-0.083318	0.990049	-3.310054
H	1.257974	1.025317	-2.126145
N	-0.525876	-1.217991	0.660068
H	0.062362	-1.965221	0.298828
H	-0.286015	-1.142244	1.643927
C	-0.482091	1.187502	0.692963
N	-0.821122	2.145318	1.283533
H	2.836122	0.0	0.0
