17

C	0.0	0.0	0.0
C	-0.492245	-0.087878	-1.45117
F	1.398542	0.0	0.0
H	-1.55286	-0.357062	-1.347861
N	-0.542843	1.164644	0.597877
H	-1.582402	0.946367	0.48526
H	-0.320638	1.138569	1.588431
C	-0.331584	-1.242507	0.763678
N	-0.471151	-2.155383	1.4902
N	0.235947	-1.210373	-2.118082
O	1.18528	-0.944164	-2.858354
O	-0.157242	-2.353081	-1.878063
C	-0.28759	1.206856	-2.203785
H	-0.52504	1.066153	-3.260641
H	-0.960865	1.949243	-1.779576
H	0.740206	1.559655	-2.117483
F	-2.743375	0.0	0.0
