17

C	0.0	0.0	0.0
C	-0.366499	-0.096784	-1.529776
F	1.406779	0.0	0.0
H	0.570197	0.127318	-2.051835
N	-0.434303	1.095784	0.786911
H	-0.215596	1.945512	0.280359
H	-1.468401	0.944906	0.744442
C	-0.390334	-1.246964	0.699552
N	-0.493208	-2.26466	1.275547
N	-1.260942	1.015067	-2.003722
O	-0.888442	2.160684	-1.735699
O	-2.207964	0.754476	-2.732547
C	-0.930123	-1.433688	-1.952002
H	-1.083661	-1.463047	-3.03118
H	-1.878979	-1.546976	-1.428132
H	-0.240062	-2.232063	-1.672325
F	-2.54463	0.0	0.0
