17

C	0.0	0.0	0.0
C	-0.497776	-0.000505	-1.456411
F	1.37413	0.0	0.0
H	-1.591857	-0.06494	-1.356041
N	-0.555554	1.135699	0.64666
H	-0.331649	1.075793	1.635852
H	-1.594368	0.918161	0.527293
C	-0.359889	-1.288484	0.672304
N	-0.502376	-2.266799	1.307625
N	-0.027484	-1.247874	-2.134838
O	1.138218	-1.288525	-2.538787
O	-0.837869	-2.168278	-2.25854
C	0.007425	1.2091	-2.214874
H	-0.38066	2.104298	-1.731278
H	-0.346009	1.176853	-3.248889
H	1.097074	1.239892	-2.214242
F	-2.765569	0.0	0.0
