17

C	0.0	0.0	0.0
C	-0.171047	-0.136876	-1.571209
F	1.417421	0.0	0.0
H	0.353406	-1.054859	-1.84211
N	-0.572277	1.070109	0.692319
H	-1.610636	0.810886	0.598762
H	-0.403361	1.914208	0.155114
C	-0.415255	-1.286017	0.599357
N	-0.578497	-2.354118	1.057829
N	0.681672	0.93273	-2.191415
O	1.599169	0.583818	-2.933451
O	0.389161	2.106335	-1.955245
C	-1.525886	-0.07099	-2.236363
H	-2.00414	0.88433	-2.041459
H	-1.381248	-0.226343	-3.312675
H	-2.188264	-0.810641	-1.796697
F	-2.780679	0.0	0.0
