15
Coordinates from ORCA-job run
  C   0.83409347364214     -0.46965119766774      0.41428451069656
  C   -0.46987011987352     -0.11016097836315     -0.30997455814300
  H   0.89474005302116      0.00441008759373      1.39432451402747
  H   -0.47163037546638     -0.65503394437529     -1.25895730160802
  H   0.96659613452602     -1.55009683658302      0.49552616605245
  N   1.97899342171058      0.04659610465101     -0.37902826321295
  O   2.17453544350278     -0.48525869163007     -1.47076067734464
  O   2.60618683356598      1.00447170194590      0.07118201896637
  N   -0.60440914613279      1.30209274684421     -0.62912772345624
  H   -0.47955601648376      1.87127126474585      0.20053542125176
  H   0.08294776098398      1.59312781676671     -1.31340229243952
  C   -1.65176125215088     -0.55975246269061      0.53669905566422
  H   -2.57942221759679     -0.35451705812850      0.00202526889278
  H   -1.60168575385836     -1.62727393713490      0.76525112285934
  H   -1.67775823939016     -0.00922461597411      1.48242273779340
