15

C	-0.467532	0.008212	-1.448271
C	0.0	0.0	0.0
F	-0.024306	1.212674	-2.019723
H	1.10116	0.0	0.0
H	0.052412	-0.79582	-1.978519
C	-1.966914	-0.055743	-1.645066
H	-2.439203	0.72867	-1.052709
H	-2.216136	0.083237	-2.70065
H	-2.351841	-1.023534	-1.315994
C	-0.499824	-1.201916	0.650958
N	-0.882708	-2.184462	1.172395
N	-0.52993	1.206098	0.689753
H	-0.104727	1.193765	1.61298
H	-0.061666	1.971173	0.209911
F	2.602406	0.0	0.0
