19

C	0.0	0.0	0.0
C	-0.291017	-0.087881	-1.555528
Br	1.967586	0.0	0.0
H	0.419208	-0.845142	-1.896257
N	-0.585292	1.150135	0.677841
O	-0.615436	1.087962	1.930423
O	-0.576596	2.228013	0.039806
C	-0.268865	-1.315796	0.745234
H	0.075348	-2.152572	0.130582
H	-1.32766	-1.421912	0.966091
H	0.301117	-1.30624	1.673998
N	0.147027	1.136496	-2.362662
O	1.336044	1.224932	-2.664412
O	-0.719945	1.910862	-2.756711
C	-1.659011	-0.459435	-2.106221
H	-2.378149	0.334555	-1.935778
H	-2.024218	-1.373428	-1.640991
H	-1.550609	-0.624114	-3.190408
H	-2.0584	0.0	0.0
