19

C	0.0	0.0	0.0
C	-0.27929	-0.030771	-1.554374
Br	1.940978	0.0	0.0
H	0.093611	-1.011214	-1.857038
N	-0.654937	1.090627	0.733384
O	-0.697025	2.204526	0.161785
O	-0.665645	0.957355	1.984184
C	-0.265587	-1.35361	0.688475
H	0.263628	-1.364559	1.64081
H	0.120625	-2.158945	0.058247
H	-1.33024	-1.491444	0.861666
N	0.607706	0.884982	-2.395559
O	0.374328	2.088305	-2.413016
O	1.444855	0.326797	-3.110214
C	-1.661196	0.184677	-2.163777
H	-2.329459	-0.635344	-1.916012
H	-1.535435	0.219306	-3.25698
H	-2.083819	1.122529	-1.810118
H	-2.042161	0.0	0.0
