19

C	0.0	0.0	0.0
C	-0.427725	-0.067513	-1.493032
Br	1.932619	0.0	0.0
H	-1.5085	0.122094	-1.41381
N	-0.638486	1.213556	0.625102
O	-0.62077	1.245761	1.874864
O	-0.680869	2.243858	-0.086842
C	-0.341858	-1.234592	0.832187
H	0.137712	-2.117347	0.408846
H	0.033143	-1.07491	1.842095
H	-1.424507	-1.349612	0.841018
N	-0.340076	-1.488059	-1.970799
O	0.668263	-1.838684	-2.591419
O	-1.29012	-2.233694	-1.729209
C	0.269717	0.829055	-2.496795
H	0.227918	1.851242	-2.129728
H	-0.268897	0.767373	-3.447699
H	1.301912	0.533501	-2.669256
H	-2.453923	0.0	0.0
