17

C	0.0	0.0	0.0
C	-0.579417	-0.021559	-1.396696
F	1.394557	0.0	0.0
H	-1.674633	-0.152958	-1.153475
H	-0.316447	-0.924713	0.482407
C	-0.496809	1.181175	0.800203
H	-0.160408	1.082377	1.836762
H	-0.101145	2.119036	0.399942
H	-1.5918	1.123635	0.73526
N	-0.080578	-1.254693	-2.077952
O	-0.250393	-2.329245	-1.504025
O	0.467495	-1.158088	-3.179323
C	-0.290987	1.207778	-2.226558
H	-0.83349	2.046662	-1.789918
H	0.7768	1.438416	-2.252823
H	-0.636821	1.075489	-3.251096
F	-2.894963	0.0	0.0
