14

C	-0.537594	-0.060357	-1.420578
C	0.0	0.0	0.0
F	-0.114762	-1.206473	-2.008107
H	1.100244	0.0	0.0
H	-1.628423	-0.022881	-1.444835
N	-0.063942	1.103612	-2.25806
O	-0.592492	2.177063	-1.976814
O	0.752299	0.896571	-3.141203
N	-0.516413	-1.219866	0.66115
H	0.109621	-1.967476	0.37617
H	-0.368457	-1.106443	1.65836
C	-0.508022	1.169628	0.711851
N	-0.926603	2.057869	1.356485
Cl	3.274197	0.0	0.0
