14

C	-0.495655	-0.077764	-1.445191
C	0.0	0.0	0.0
F	-0.035097	-1.21635	-2.020018
H	1.09565	0.0	0.0
H	-1.587715	-0.062026	-1.51155
N	-0.040811	1.094546	-2.280548
O	0.907831	0.940467	-3.033321
O	-0.702623	2.118412	-2.120768
N	-0.391268	-1.186956	0.754132
H	-1.302862	-1.528799	0.473737
H	0.300477	-1.904489	0.57734
C	-0.522451	1.199344	0.659432
N	-0.968527	2.149823	1.185207
Cl	3.252022	0.0	0.0
