14

C	-0.474828	0.018654	-1.447847
C	0.0	0.0	0.0
F	-1.841887	0.080627	-1.510036
H	1.093911	0.0	0.0
H	-0.042084	0.836386	-2.022892
N	-0.06761	-1.250077	-2.148232
O	-0.803789	-2.225102	-2.012169
O	0.973634	-1.206021	-2.790832
N	-0.456374	-1.140122	0.774632
H	0.260651	-1.852573	0.743803
H	-1.323018	-1.514858	0.412291
C	-0.474241	1.256026	0.601082
N	-0.86212	2.265164	1.05892
Cl	3.248934	0.0	0.0
