14

C	-0.464107	0.051501	-1.450742
C	0.0	0.0	0.0
F	-1.829355	0.138171	-1.520787
H	1.093895	0.0	0.0
H	-0.012946	0.871194	-2.00884
N	-0.073133	-1.213707	-2.16599
O	-0.833801	-2.173815	-2.057798
O	0.982303	-1.18371	-2.787638
N	-0.461492	-1.15443	0.748487
H	0.241989	-1.87842	0.692108
H	-1.336207	-1.506347	0.383386
C	-0.472932	1.243988	0.626319
N	-0.858727	2.244488	1.104397
Cl	3.24956	0.0	0.0
