14

C	-0.53832	-0.065065	-1.420083
C	0.0	0.0	0.0
F	-0.102919	-1.206193	-2.008837
H	1.100198	0.0	0.0
H	-1.629298	-0.040667	-1.441755
N	-0.080108	1.105236	-2.257009
O	-0.642703	2.165515	-1.993156
O	0.765133	0.916044	-3.117968
N	-0.514988	-1.218625	0.665153
H	-0.36326	-1.102912	1.6616
H	0.11135	-1.965815	0.379772
C	-0.507021	1.173284	0.706961
N	-0.923041	2.064719	1.348218
Cl	3.275291	0.0	0.0
