14

C	-0.511719	0.17039	-1.421513
C	0.0	0.0	0.0
F	-1.829568	0.530878	-1.441908
H	1.09455	0.0	0.0
H	0.074097	0.894192	-1.989003
N	-0.390427	-1.147992	-2.142333
O	-1.412947	-1.791638	-2.334616
O	0.747431	-1.45632	-2.46542
N	-0.447691	-1.261945	0.566267
H	0.23685	-1.571899	1.243321
H	-1.352017	-1.178438	1.010942
C	-0.430072	1.17842	0.772949
N	-0.808168	2.079116	1.425859
Cl	3.262082	0.0	0.0
