14

C	-0.517421	0.093218	-1.425727
C	0.0	0.0	0.0
F	-1.841469	0.430181	-1.45664
H	1.095425	0.0	0.0
H	0.05372	0.798939	-2.030551
N	-0.375474	-1.255719	-2.084436
O	-1.388419	-1.923076	-2.246916
O	0.767532	-1.560302	-2.39533
N	-0.443421	-1.231918	0.632918
H	0.249025	-1.507614	1.317107
H	-1.341744	-1.124642	1.083548
C	-0.431351	1.216172	0.711089
N	-0.807455	2.147954	1.319905
Cl	3.260642	0.0	0.0
