13

C	0.0	0.0	0.0
C	-0.400601	0.052544	-1.465523
Br	2.0554	0.0	0.0
H	-1.493914	-0.027394	-1.370456
H	-0.244326	-0.977903	0.413097
H	0.012287	-0.814143	-2.005422
N	-0.553599	1.015807	0.807558
H	-1.575306	0.722692	0.725189
H	-0.476533	1.870557	0.260683
N	-0.045367	1.342056	-2.058153
H	-0.614136	1.498874	-2.879908
H	0.927833	1.333969	-2.339034
F	-2.817553	0.0	0.0
