13

C	0.0	0.0	0.0
C	-0.459616	0.093359	-1.452996
Br	1.968589	0.0	0.0
H	-0.021918	0.992094	-1.898007
H	-0.236633	-1.001992	0.377633
H	-1.545713	0.199429	-1.352794
N	-0.565314	1.07136	0.751803
H	-1.594272	0.863662	0.579102
H	-0.385612	0.907562	1.738046
N	-0.166952	-1.068139	-2.288485
H	0.801749	-1.338768	-2.156405
H	-0.742493	-1.833505	-1.956706
F	-2.839238	0.0	0.0
