17

C	-0.463592	-0.0248	-1.455275
C	0.0	0.0	0.0
F	0.254781	-0.937138	-2.15486
H	1.094375	0.0	0.0
C	-1.937433	-0.245058	-1.704249
H	-2.142461	-0.160699	-2.774029
H	-2.528216	0.494074	-1.166311
H	-2.193169	-1.249881	-1.372725
N	-0.087001	1.338767	-2.058966
O	0.926028	1.397293	-2.740221
O	-0.8624	2.265222	-1.825368
N	-0.36982	-1.243471	0.722464
O	-0.384647	-1.190883	1.95078
O	-0.55366	-2.269398	0.065474
C	-0.499227	1.132137	0.747354
N	-0.877295	2.058204	1.366878
F	2.414525	0.0	0.0
