17

C	-0.426896	0.176032	-1.444926
C	0.0	0.0	0.0
F	-1.781398	0.360466	-1.554465
H	1.093345	0.0	0.0
C	0.337078	1.334657	-2.042413
H	-0.029963	2.26275	-1.601986
H	0.185035	1.367615	-3.123043
H	1.38889	1.192388	-1.789152
N	-0.09719	-1.052688	-2.291523
O	1.087111	-1.339236	-2.365961
O	-1.020068	-1.595265	-2.883309
N	-0.476692	-1.241378	0.650742
O	-0.608013	-2.239757	-0.055395
O	-0.637406	-1.215538	1.870471
C	-0.442741	1.149964	0.765396
N	-0.761446	2.126088	1.3375
F	2.454997	0.0	0.0
