17

C	-0.385882	0.129408	-1.46259
C	0.0	0.0	0.0
F	-1.717331	0.413971	-1.619396
H	1.091309	0.0	0.0
C	0.486895	1.18613	-2.101619
H	0.371673	1.169049	-3.187769
H	1.515503	0.976564	-1.797325
H	0.182117	2.162888	-1.724387
N	-0.132339	-1.167203	-2.231673
O	1.013269	-1.591224	-2.194171
O	-1.060497	-1.625849	-2.884985
N	-0.517264	-1.195286	0.702782
O	-0.572779	-1.13789	1.929572
O	-0.800044	-2.186126	0.030044
C	-0.426593	1.193467	0.705989
N	-0.732583	2.199202	1.232008
F	2.467842	0.0	0.0
