17

C	-0.483896	-0.271204	-1.425517
C	0.0	0.0	0.0
F	-0.145128	-1.537555	-1.784371
H	1.106682	0.0	0.0
C	-1.960734	-0.073657	-1.677152
H	-2.189463	-0.370643	-2.70285
H	-2.239687	0.967506	-1.516524
H	-2.523341	-0.696949	-0.9801
N	0.262113	0.660205	-2.378912
O	0.537332	0.208699	-3.484171
O	0.445894	1.807242	-1.992958
N	-0.462335	-1.158693	0.833435
O	0.219665	-2.17589	0.789183
O	-1.499244	-1.034312	1.497218
C	-0.56207	1.21588	0.545534
N	-1.000852	2.208563	0.998515
F	2.447452	0.0	0.0
