17

C	-0.426754	0.000627	-1.460499
C	0.0	0.0	0.0
Cl	0.19142	1.53467	-2.165678
H	1.089247	0.0	0.0
N	0.035613	-1.157602	-2.113737
H	0.057498	-1.012127	-3.115201
H	0.957622	-1.421701	-1.777972
N	-1.966344	-0.009435	-1.633951
O	-2.456437	0.58443	-2.581784
O	-2.55652	-0.722858	-0.835493
N	-0.417439	-1.217298	0.780923
O	-1.193506	-1.070142	1.717717
O	0.110216	-2.264167	0.428447
N	-0.49669	1.185581	0.75294
O	0.130656	1.464004	1.768167
O	-1.496692	1.765916	0.332321
Cl	3.140289	0.0	0.0
