17

C	-0.537468	-0.000608	-1.419926
C	0.0	0.0	0.0
Cl	0.415185	-1.295428	-2.287831
H	1.08823	0.0	0.0
N	-1.927064	-0.089727	-1.586039
H	-2.169199	-0.145524	-2.568141
H	-2.286576	-0.884522	-1.07573
N	-0.145904	1.307891	-2.134722
O	-0.322122	1.325953	-3.348718
O	0.118852	2.270008	-1.430006
N	-0.335505	-1.246725	0.740869
O	-1.160069	-2.052507	0.262408
O	-0.072648	-1.19928	1.953394
N	-0.495366	1.139837	0.849385
O	-1.705281	1.158849	1.093351
O	0.344272	1.866422	1.361781
Cl	2.854107	0.0	0.0
