17

C	-0.567686	0.016377	-1.405208
C	0.0	0.0	0.0
Cl	0.438489	-1.195286	-2.367944
H	1.086388	0.0	0.0
N	-1.941077	-0.133454	-1.562096
H	-2.229325	0.080946	-2.507276
H	-2.241986	-1.044197	-1.249293
N	-0.186901	1.365278	-2.04471
O	0.822866	1.91104	-1.629641
O	-0.874081	1.729211	-2.998232
N	-0.367634	-1.204578	0.769283
O	-1.158312	-2.030033	0.279855
O	-0.150049	-1.119836	1.994692
N	-0.443497	1.203428	0.790985
O	-1.657742	1.389354	0.908686
O	0.432947	1.889699	1.303832
Cl	2.854369	0.0	0.0
