14
Coordinates from ORCA-job run
  C   -0.54907483687327     -0.42414798159583     -0.32472257303589
  C   0.96826501850676     -0.12435566168703     -0.50429968179856
  H   -0.67617458292052     -1.50250814877840     -0.47423091107701
  H   1.26516655795870     -0.38992725683525     -1.52610091529707
  C   -1.28589495706818      0.26809222854934     -1.38439983089632
  N   -1.87094133593345      0.83484605649088     -2.23036200041373
  C   -1.06066926058280     -0.03048190255305      1.06180642135732
  H   -2.11710689523707     -0.28597789235277      1.15432451362013
  H   -0.95002153353616      1.04301687674234      1.22453030878019
  H   -0.50627297464234     -0.56786420491055      1.83379600102051
  C   1.75096770451518     -0.94187575578900      0.42935287659019
  N   2.34136051978500     -1.62902133891047      1.17621881844927
  C   1.24752275320834      1.30153402888524     -0.30027040095596
  N   1.44187382281980      2.44767095274454     -0.13564262634307
