14
Coordinates from ORCA-job run
  C   -0.45820739213800     -0.29237213178548     -0.30865784508326
  C   0.89367370825820      0.42687491943159     -0.03188612725950
  H   -0.23133803550546     -1.28138151894051     -0.72188976376946
  H   0.67932678461076      1.43879407364209      0.33486520941361
  C   -1.18696443264621      0.47181425267343     -1.32339746204085
  N   -1.78443094577515      1.10705873182910     -2.10989453331509
  C   -1.29072350765167     -0.43691076210459      0.96758939599184
  H   -2.24128198853251     -0.92048440506694      0.73870211334874
  H   -0.76063119801708     -1.04624917343511      1.70123463629691
  H   -1.50122219946180      0.54236450070499      1.40330756923907
  C   1.69576774343134      0.53885791882856     -1.25505500054701
  N   2.32229235341835      0.62071458174306     -2.24475763239533
  C   1.64621826638626     -0.28924827479853      1.00407021829232
  N   2.21652084362297     -0.87783271272165      1.84476922182802
