14
Coordinates from ORCA-job run
  C   -0.46459327845308     -0.40819936157234      0.07829971656848
  C   0.91626152710304      0.17709852237186     -0.33695378929099
  H   -0.27966485855076     -1.25176208562839      0.75257109893258
  H   0.74634605588132      0.99504751641498     -1.04860494748087
  C   -1.12995467133685     -0.91933200503470     -1.12206810159307
  N   -1.67860195163792     -1.29648008208270     -2.08952947435204
  C   -1.33246276600525      0.64070393612641      0.77781383767446
  H   -0.85108796545340      0.98276084541287      1.69532496236620
  H   -2.30124637058887      0.21063494738831      1.03523119129650
  H   -1.50240956062985      1.49848131665629      0.12318381385896
  C   1.74874419763176     -0.83939095106628     -0.98954392493014
  N   2.39621660264710     -1.67023829898827     -1.50827868440586
  C   1.60742294990449      0.72212028613475      0.83669793273325
  N   2.12503008948827      1.15855541386722      1.79585636862255
