14
Coordinates from ORCA-job run
  C   -0.51742039174923     -0.44341462877127     -0.34911458927100
  C   0.97701253869076     -0.03543938312347     -0.50374111772566
  H   -0.57136761677979     -1.51962734779419     -0.54978855089802
  H   1.29541788649117     -0.23193676826256     -1.53462788999697
  C   -1.29667180430173      0.24621361894053     -1.37958943679422
  N   -1.92067233441084      0.80788833246128     -2.20073518276602
  C   -1.05971419900398     -0.15100865621115      1.05085833007479
  H   -2.09814775681899     -0.47763945485853      1.12226217524289
  H   -0.47564729244219     -0.68882123052425      1.80052562430050
  H   -1.01902067702889      0.91833752023116      1.26597609469999
  C   1.80787037145565     -0.84231109189766      0.39705642902143
  N   2.43895677976836     -1.51957610063316      1.11920478923537
  C   1.16121672790129      1.39427073632223     -0.23006512311040
  N   1.28018776822841      2.54106445412103     -0.00822155201268
