15

C	0.0	0.0	0.0
C	-0.536417	0.369529	-1.368299
F	1.414583	0.0	0.0
H	-1.612054	0.159211	-1.333819
H	-0.059902	-0.298062	-2.091804
N	-0.49454	0.833355	1.016348
H	-0.397006	1.813849	0.808603
H	-0.130371	0.599715	1.927337
C	-0.324138	-1.412525	0.322358
N	-0.457571	-2.553115	0.562942
C	-0.288031	1.829147	-1.733907
H	-0.504216	1.988248	-2.792322
H	-0.955781	2.488289	-1.175041
H	0.750603	2.120363	-1.552744
Br	-4.08779	0.0	0.0
