15

C	0.0	0.0	0.0
C	-0.405721	-0.561503	-1.361258
F	1.386523	0.0	0.0
H	-0.16951	0.235857	-2.075167
H	0.291202	-1.383749	-1.554119
N	-0.498948	1.319694	0.20046
H	-1.477968	1.349631	-0.072182
H	-0.441057	1.586104	1.176399
C	-0.348938	-0.93769	1.105271
N	-0.566242	-1.626432	2.031443
C	-1.842804	-1.039772	-1.503398
H	-2.004286	-1.392604	-2.526204
H	-2.060603	-1.866123	-0.824148
H	-2.597648	-0.281739	-1.293878
Br	-4.878724	0.0	0.0
