14

C	0.0	0.0	0.0
C	-0.462015	0.035662	-1.501887
Br	1.91863	0.0	0.0
H	0.451925	-0.009241	-2.099162
H	-0.374506	0.848832	0.562145
N	-0.387467	-1.209549	0.818866
O	-0.302913	-2.31375	0.303276
O	-0.647413	-0.975166	1.994939
C	-0.975728	1.405746	-1.751247
N	-1.230336	2.51136	-2.05955
N	-1.281385	-1.06281	-1.957247
H	-2.171699	-1.00274	-1.454109
H	-1.465345	-0.911709	-2.943076
Cl	-3.326346	0.0	0.0
