14

C	0.0	0.0	0.0
C	-0.431799	-0.411642	-1.471383
Br	1.930226	0.0	0.0
H	0.460871	-0.874758	-1.90687
H	-0.39246	0.951686	0.351314
N	-0.391565	-1.027151	1.023919
O	-0.255896	-2.208339	0.714708
O	-0.768167	-0.600026	2.107702
C	-0.598025	0.862573	-2.190187
N	-0.645493	1.891146	-2.750485
N	-1.536534	-1.292305	-1.715461
H	-1.352396	-2.173748	-1.250218
H	-2.393173	-0.897421	-1.303808
Cl	-3.738715	0.0	0.0
