14

C	0.0	0.0	0.0
C	-0.5828	0.202705	-1.408287
Br	1.918993	0.0	0.0
H	0.100101	-0.292314	-2.106775
H	-0.371407	0.710517	0.733413
N	-0.437605	-1.367464	0.489645
O	0.045801	-2.344472	-0.063074
O	-1.252111	-1.362553	1.403527
C	-0.520693	1.660009	-1.691828
N	-0.481555	2.811729	-1.923446
N	-1.856217	-0.444518	-1.501924
H	-2.191531	-0.47426	-2.453648
H	-2.625483	-0.107635	-0.900016
Cl	-4.591349	0.0	0.0
