14

C	0.0	0.0	0.0
C	-0.442785	-0.217029	-1.490287
Br	1.946511	0.0	0.0
H	0.477635	-0.360557	-2.05913
H	-0.357608	0.933596	0.420893
N	-0.372937	-1.06798	1.000809
O	-0.203674	-2.237327	0.687561
O	-0.72593	-0.648966	2.097357
C	-0.964945	1.083616	-1.980616
N	-1.249421	2.093713	-2.50866
N	-1.259804	-1.381349	-1.762969
H	-2.157647	-1.220026	-1.29344
H	-1.434971	-1.383661	-2.762925
Cl	-3.298171	0.0	0.0
