14

C	0.0	0.0	0.0
C	-0.485485	0.04176	-1.478631
Br	1.924095	0.0	0.0
H	0.179761	-0.640199	-2.01834
H	-0.381188	0.803268	0.627812
N	-0.426846	-1.293416	0.636982
O	-0.322924	-2.306533	-0.048174
O	-0.810095	-1.233814	1.798704
C	-0.202017	1.403235	-1.969985
N	0.035353	2.487795	-2.351864
N	-1.832567	-0.333651	-1.769762
H	-2.561895	0.104765	-1.194791
H	-1.94664	-1.332118	-1.656202
Cl	-4.370973	0.0	0.0
