14

C	0.0	0.0	0.0
C	-0.573021	-0.298347	-1.391198
Br	1.918879	0.0	0.0
H	-1.515645	-0.827299	-1.211282
H	-0.385169	0.939146	0.384523
N	-0.381072	-1.071855	0.986947
O	-0.4898	-2.212455	0.550217
O	-0.483079	-0.72657	2.157049
C	0.285503	-1.150489	-2.213068
N	0.915851	-1.827351	-2.937607
N	-0.800636	0.998276	-2.037314
H	-0.875385	0.862047	-3.038515
H	-1.721664	1.279306	-1.701236
Cl	-3.315515	0.0	0.0
