17

C	0.0	0.0	0.0
C	-0.339577	-0.053046	-1.51802
Cl	1.844157	0.0	0.0
H	0.446533	-0.65278	-1.988875
N	-0.528843	1.188854	0.596469
H	-0.369079	1.141292	1.599474
H	-1.551433	1.11176	0.46594
C	-0.416324	-1.291524	0.688139
H	-1.509287	-1.30959	0.715394
H	-0.020891	-1.293851	1.709105
H	-0.045554	-2.170861	0.158146
C	-0.198634	1.302216	-2.107342
N	-0.109106	2.326305	-2.67828
N	-1.614161	-0.700656	-1.77053
H	-2.362789	-0.361144	-1.107892
H	-1.917343	-0.480959	-2.713457
H	-3.354947	0.0	0.0
