17

C	0.0	0.0	0.0
C	-0.423841	0.017771	-1.51268
Cl	1.79547	0.0	0.0
H	0.426256	0.428133	-2.071501
N	-0.470284	1.140141	0.747557
H	-0.271091	1.98693	0.220185
H	-1.500898	1.004849	0.724205
C	-0.423871	-1.259497	0.730724
H	0.002605	-2.142096	0.256062
H	-0.073606	-1.178272	1.761063
H	-1.518059	-1.279637	0.708038
C	-1.525403	0.964707	-1.827928
N	-2.123085	1.76805	-2.454214
N	-0.668901	-1.326876	-2.028362
H	-0.777666	-1.258241	-3.036119
H	-1.572164	-1.615698	-1.649497
H	-2.903288	0.0	0.0
