14

C	-0.35041	0.17085	-1.466776
C	0.0	0.0	0.0
F	0.021373	-0.953049	-2.171219
H	1.089414	0.0	0.0
H	-0.301805	0.881925	0.567087
C	-1.79872	0.399191	-1.697528
N	-2.931502	0.674301	-1.838336
N	0.406844	1.2717	-2.013863
H	0.048659	2.148215	-1.652913
H	1.364391	1.150486	-1.664804
N	-0.568938	-1.159505	0.685858
O	-0.392348	-1.20666	1.906105
O	-1.152438	-2.027327	0.027785
H	2.677322	0.0	0.0
