14

C	-0.31745	-0.03583	-1.490495
C	0.0	0.0	0.0
F	-0.343184	-1.434043	-1.805794
H	1.095067	0.0	0.0
H	-0.397145	-0.869906	0.514355
C	-1.676636	0.420961	-1.870159
N	-2.759115	0.739414	-2.19305
N	0.671202	0.653784	-2.197184
H	0.654345	0.44686	-3.185845
H	1.589014	0.490049	-1.767856
N	-0.46233	1.194658	0.69722
O	-0.623381	2.236911	0.054999
O	-0.593072	1.098915	1.922211
H	2.68548	0.0	0.0
