14

C	-0.327696	0.128295	-1.473797
C	0.0	0.0	0.0
F	0.046195	-1.044496	-2.146465
H	1.089031	0.0	0.0
H	-0.319822	0.885713	0.546844
C	-1.766934	0.320679	-1.775969
N	-2.898992	0.548836	-1.987594
N	0.422321	1.249866	-1.914667
H	0.401454	1.30815	-2.92549
H	1.387367	1.116464	-1.590788
N	-0.561806	-1.165548	0.680793
O	-1.220893	-1.990771	0.041039
O	-0.312667	-1.251676	1.885069
H	2.691776	0.0	0.0
