13

C	-0.383424	0.013379	-1.483546
C	0.0	0.0	0.0
Br	-2.300555	-0.264824	-1.789266
H	1.103412	0.0	0.0
H	0.130236	-0.802398	-1.99651
C	-0.013205	1.284672	-2.093491
N	0.277111	2.309694	-2.588904
C	-0.46232	-1.234317	0.626854
N	-0.813009	-2.23023	1.14116
N	-0.547758	1.174771	0.686776
H	-0.564505	0.986297	1.683167
H	0.128332	1.92438	0.554613
Br	3.407884	0.0	0.0
