13

C	-0.414302	-0.017575	-1.471341
C	0.0	0.0	0.0
Br	-2.366182	-0.190273	-1.674027
H	1.096765	0.0	0.0
H	0.012227	-0.88953	-1.971398
C	-0.002372	1.20022	-2.155294
N	0.320768	2.175747	-2.72337
C	-0.436924	-1.238791	0.65757
N	-0.79506	-2.205445	1.222169
N	-0.449511	1.210255	0.661374
H	-1.317282	1.068028	1.160936
H	0.268896	1.510811	1.307977
Br	3.376705	0.0	0.0
