13

C	-0.555633	0.08397	-1.43351
C	0.0	0.0	0.0
Br	0.184194	1.622719	-2.367645
H	1.09415	0.0	0.0
H	-1.631758	0.268137	-1.378734
C	-0.316329	-1.118731	-2.222656
N	-0.149481	-2.073538	-2.88668
C	-0.480934	-1.246643	0.606186
N	-0.922006	-2.20241	1.129977
N	-0.43804	1.173087	0.7556
H	-1.121537	0.926626	1.458746
H	0.374631	1.565841	1.214869
Br	3.407843	0.0	0.0
