13

C	0.0	0.0	0.0
C	-0.443358	-0.42453	-1.433824
Cl	1.800483	0.0	0.0
H	0.441084	-0.489588	-2.073693
H	-0.245108	1.061504	0.123884
H	-0.860661	-1.42968	-1.333704
N	-0.589814	-0.849729	0.985702
H	-0.448204	-0.429151	1.899849
H	-1.60735	-0.717872	0.752839
N	-1.439352	0.415368	-2.078294
H	-1.077802	1.363711	-2.118249
H	-2.231772	0.399646	-1.407035
F	-2.932981	0.0	0.0
