13

C	0.0	0.0	0.0
C	-0.542199	0.036818	-1.415182
Cl	1.872748	0.0	0.0
H	-0.153634	0.950677	-1.911026
H	-0.190326	1.019116	0.326263
H	-1.627157	0.150324	-1.179282
N	-0.621238	-0.827002	1.020846
H	-1.643991	-0.787304	0.755364
H	-0.279467	-1.788753	1.01737
N	-0.339118	-1.16649	-2.21118
H	-1.165854	-1.268651	-2.783188
H	0.488338	-1.075132	-2.786854
F	-2.985823	0.0	0.0
