13

C	0.0	0.0	0.0
C	-0.454259	0.150181	-1.478594
Cl	1.842649	0.0	0.0
H	0.425255	0.255383	-2.118921
H	-0.221764	0.93622	0.526074
H	-0.952104	-0.785393	-1.742357
N	-0.56848	-1.162653	0.59544
H	-0.415376	-1.123987	1.59867
H	-1.589298	-0.954913	0.434406
N	-1.38215	1.2379	-1.742429
H	-0.961302	2.105505	-1.421416
H	-2.179559	1.008067	-1.121821
F	-2.886162	0.0	0.0
