14

C	0.0	0.0	0.0
C	-0.492465	0.039765	-1.486261
Br	1.948207	0.0	0.0
H	0.394955	0.101928	-2.127986
H	-0.310904	0.917886	0.495535
C	-0.444096	-1.220044	0.78946
H	-0.066692	-1.14602	1.811217
H	-0.051761	-2.133536	0.338461
H	-1.534644	-1.236977	0.79653
C	-1.250838	1.256964	-1.797712
N	-1.632691	2.304375	-2.167522
C	-1.170906	-1.189384	-1.910214
N	-1.528871	-2.22054	-2.342067
Cl	-3.391692	0.0	0.0
