14

C	0.0	0.0	0.0
C	-0.488171	0.496925	-1.401715
Br	1.948455	0.0	0.0
H	0.401601	0.649915	-2.025335
H	-0.316693	0.708613	0.762145
C	-0.43476	-1.412444	0.353269
H	-1.52467	-1.436476	0.371273
H	-0.040709	-1.678855	1.335965
H	-0.05328	-2.126785	-0.379803
C	-1.121263	1.816892	-1.325251
N	-1.415077	2.954316	-1.335811
C	-1.278622	-0.489585	-2.148162
N	-1.666467	-1.313767	-2.890238
Cl	-3.366799	0.0	0.0
