14

C	0.0	0.0	0.0
C	-0.60026	-0.395814	-1.354227
Br	1.94469	0.0	0.0
H	-1.702718	-0.321344	-1.172231
H	-0.302243	1.029575	0.1955
C	-0.473792	-0.92218	1.110019
H	-0.1168	-0.550543	2.071632
H	-1.565754	-0.931305	1.107581
H	-0.084797	-1.932067	0.964425
C	-0.264423	-1.768882	-1.730506
N	-0.011183	-2.873172	-2.039243
C	-0.223642	0.529768	-2.422105
N	0.049474	1.285147	-3.279466
Cl	-3.594217	0.0	0.0
