14

C	0.0	0.0	0.0
C	-0.493884	0.177003	-1.474857
Br	1.948444	0.0	0.0
H	0.393845	0.242065	-2.114362
H	-0.312466	0.863416	0.583573
C	-0.441125	-1.29259	0.664983
H	-0.063103	-2.156294	0.114343
H	-0.048128	-1.329044	1.682927
H	-1.531331	-1.306467	0.68693
C	-1.188837	1.451579	-1.676319
N	-1.534591	2.545487	-1.927924
C	-1.230408	-0.978272	-1.999332
N	-1.6183	-1.946991	-2.538517
Cl	-3.380212	0.0	0.0
