14

C	0.0	0.0	0.0
C	-0.493048	-0.224123	-1.468536
Br	1.948687	0.0	0.0
H	0.39439	-0.312872	-2.108
H	-0.313779	0.988891	0.328455
C	-0.442669	-1.063968	0.989957
H	-1.532707	-1.083008	1.002638
H	-0.049879	-2.042419	0.704652
H	-0.065992	-0.810421	1.983303
C	-1.20354	0.945833	-1.9966
N	-1.543066	1.936794	-2.527455
C	-1.213187	-1.48686	-1.664584
N	-1.577579	-2.577857	-1.901845
Cl	-3.37817	0.0	0.0
