14

C	0.0	0.0	0.0
C	-0.470816	0.388539	-1.441931
Br	1.943976	0.0	0.0
H	0.416111	0.381808	-2.086906
H	-0.331194	0.754528	0.71031
C	-0.432094	-1.393862	0.427768
H	-1.522383	-1.42076	0.440927
H	-0.042586	-1.60566	1.425973
H	-0.041993	-2.143765	-0.264613
C	-0.968996	1.765122	-1.488619
N	-1.206812	2.912085	-1.566113
C	-1.368753	-0.582332	-2.083943
N	-1.809149	-1.41446	-2.787191
Cl	-3.376562	0.0	0.0
