14

C	0.0	0.0	0.0
C	-0.603724	-0.396543	-1.353104
Br	1.948641	0.0	0.0
H	-1.706275	-0.323145	-1.16841
H	-0.300922	1.030159	0.196036
C	-0.473693	-0.923307	1.108991
H	-0.102229	-1.937941	0.947822
H	-1.565638	-0.920093	1.116844
H	-0.102458	-0.568317	2.072338
C	-0.268371	-1.769589	-1.730547
N	0.00042	-2.873857	-2.026889
C	-0.235072	0.528284	-2.423966
N	0.056641	1.289835	-3.269241
Cl	-3.585139	0.0	0.0
