14

C	0.0	0.0	0.0
C	-0.494039	0.63646	-1.343089
Br	1.943912	0.0	0.0
H	0.394467	0.895654	-1.930837
H	-0.314738	0.634248	0.826066
C	-0.441248	-1.437261	0.219855
H	-0.06148	-1.786646	1.182691
H	-1.531615	-1.458497	0.222088
H	-0.049259	-2.08379	-0.567669
C	-1.18563	1.911211	-1.132256
N	-1.532673	3.027525	-1.024953
C	-1.230428	-0.29796	-2.201726
N	-1.591677	-1.07212	-3.007019
Cl	-3.376825	0.0	0.0
