14

C	0.0	0.0	0.0
C	-0.59961	0.018584	-1.411894
Br	1.945526	0.0	0.0
H	-1.702952	0.030775	-1.218639
H	-0.303845	0.927072	0.488159
C	-0.48024	-1.205367	0.788632
H	-1.572156	-1.18412	0.810623
H	-0.131025	-2.130983	0.324804
H	-0.091827	-1.16209	1.807794
C	-0.2547	-1.178846	-2.177794
N	0.019093	-2.148583	-2.782336
C	-0.230641	1.219956	-2.160259
N	0.060393	2.194555	-2.747911
Cl	-3.591371	0.0	0.0
