16

C	-0.433147	-0.079447	-1.488784
C	-0.124332	-0.222843	0.0014
Cl	-0.165012	-1.676586	-2.279698
H	0.892727	-0.623575	0.036426
H	-0.807422	-0.966848	0.423998
N	-1.922316	0.206547	-1.724976
O	-2.674317	0.213636	-0.7514
O	-2.271785	0.438299	-2.87873
C	0.365498	0.999096	-2.177554
H	0.314447	0.888909	-3.260479
H	1.390956	0.988092	-1.785292
H	-0.041652	1.97301	-1.897098
N	-0.096555	1.000365	0.759735
H	0.823834	1.446944	0.568972
H	-0.869414	1.610054	0.528268
H	2.500377	1.530388	-0.002651
