16

C	-0.328659	-0.026092	-1.447701
C	-0.040555	0.008946	0.051033
Cl	0.014214	-1.654173	-2.112197
H	1.051582	0.031583	0.108154
H	-0.40435	0.976599	0.41239
N	-1.820432	0.193572	-1.753016
O	-2.141202	0.373938	-2.923504
O	-2.612238	0.19394	-0.808324
C	0.490374	1.005237	-2.175461
H	0.358152	0.926855	-3.254312
H	1.542494	0.842214	-1.862718
H	0.184716	2.002642	-1.841553
N	-0.563819	-1.049027	0.895321
H	-0.057632	-1.902314	0.699392
H	-1.54279	-1.200761	0.694823
H	2.993618	0.332644	-0.582168
