16

C	-0.743416	0.05631	-1.487027
C	0.147431	0.1267	-0.254706
Cl	-0.327032	1.383973	-2.633964
H	1.19639	0.06264	-0.561788
H	-0.004622	1.127162	0.179658
N	-0.428097	-1.236309	-2.23277
O	-1.366351	-1.980706	-2.508241
O	0.744206	-1.438409	-2.516388
C	-2.215807	0.12256	-1.171682
H	-2.821717	0.077861	-2.075785
H	-2.46251	-0.717874	-0.524983
H	-2.41165	1.062219	-0.650288
N	-0.158227	-0.991858	0.605421
H	-0.753049	-0.679423	1.366021
H	0.772494	-1.260802	1.068391
H	2.161095	-1.320096	1.698229
