14
Coordinates from ORCA-job run
  C   0.91667591870205     -0.27661266768142     -0.04260862797903
  C   -0.55391123672363     -0.16781398440813      0.31008970028870
  H   0.97661348344609     -0.55069478773708     -1.09812493843324
  H   -0.67985028303598      0.18226590218097      1.33779378514700
  H   1.34352398825938     -1.09986851944604      0.54390279258766
  N   1.57289126618827      1.00070396989185      0.20196433913526
  H   2.11000510895059      1.29708372669850     -0.59868156479730
  H   2.18589410565689      0.95623019908898      1.00249763653742
  N   -1.29252827060092     -1.35009459557617     -0.01163668318401
  H   -2.00027632311122     -1.56892012162857      0.67190564704345
  H   -0.69971780039593     -2.14967776190380     -0.17480449190121
  N   -1.13465391606152      0.97237602384534     -0.51185597417767
  O   -1.94665157584352      1.69831857099077      0.05600259551885
  O   -0.79801446543054      1.05470404568479     -1.68744421578590
