14
Coordinates from ORCA-job run
  C   0.79274965672190      0.41393440445237     -0.16192287444023
  C   -0.57744981959697     -0.04222585731234      0.34872773793899
  H   0.75301502520123      0.41673780821613     -1.25491130551700
  H   -0.58980137960266     -0.04117471407772      1.44021499077435
  H   0.98958435918044      1.44119909691144      0.17534952069197
  N   1.77945221892895     -0.56711755023980      0.28175748763634
  H   2.11769276297632     -0.32816326072427      1.20538988425528
  H   2.57666212881705     -0.57586669085852     -0.33969635243582
  N   -1.04020094295946     -1.31204770187346     -0.14063117316356
  H   -0.32772221463822     -1.99373722153971      0.09593456346689
  H   -1.10679218020607     -1.26844453212559     -1.15172323890452
  N   -1.56179542679830      1.01208495931261     -0.05508049245669
  O   -1.97417910222152      0.96405185455502     -1.21200611372238
  O   -1.83021508580268      1.88276940530384      0.76859736587636
