14
Coordinates from ORCA-job run
  C   0.92873970960964      0.04116461520124      0.60036394100550
  C   -0.54526275944694     -0.33046703072916      0.52346883660424
  H   1.44454212350437     -0.82050842155508      1.02809582316003
  H   -0.98026212731990     -0.42890911075295      1.52194695893434
  H   1.05397981368948      0.89395898456458      1.27249811828606
  N   1.41944210087072      0.27125686772569     -0.75788219978366
  H   1.31965218394518      1.24740489567911     -1.00628482864399
  H   2.39939875207867      0.03649381420223     -0.82966398598509
  N   -0.73365139367017     -1.49687368186336     -0.24754169457413
  H   -0.24962469901060     -1.37981486243387     -1.12999574081379
  H   -1.71161144964951     -1.68060060816827     -0.42281540351860
  N   -1.27235089954993      0.91138013517597     -0.05180477811343
  O   -1.99495116011032      0.75667881705350     -1.03067593300644
  O   -1.07804019494068      1.97683558590038      0.53029088644895
