12

C	0.0	0.0	0.0
C	-0.40243	-0.341673	-1.441436
Cl	1.842085	0.0	0.0
H	0.389395	-0.948141	-1.895235
H	-0.248095	-0.835429	0.662858
H	-0.447861	0.610412	-1.985444
N	-0.515516	1.267302	0.38957
H	-0.364418	1.382641	1.392237
H	-1.548154	1.0791	0.267906
C	-1.661013	-1.091373	-1.654756
N	-2.331229	-1.914385	-2.175204
H	-2.753795	0.0	0.0
