12

C	0.0	0.0	0.0
C	-0.641987	-0.04642	-1.364683
Cl	1.831353	0.0	0.0
H	-0.461549	0.885275	-1.90876
H	-0.290374	-0.884672	0.564688
H	-1.752524	-0.08644	-1.068329
N	-0.450411	1.168821	0.67322
H	0.046387	1.988645	0.355455
H	-0.372993	1.086564	1.674747
C	-0.243504	-1.181353	-2.176433
N	0.055989	-2.104939	-2.839629
H	-3.199187	0.0	0.0
