12

C	0.0	0.0	0.0
C	-0.512541	-0.048679	-1.440166
Cl	1.78925	0.0	0.0
H	-0.24619	0.875933	-1.959196
H	-0.30052	-0.923423	0.49579
H	-1.616847	-0.08293	-1.292073
N	-0.549435	1.084379	0.749455
H	-0.417787	1.9405	0.221283
H	-1.573347	0.869151	0.728305
C	-0.054001	-1.195325	-2.211715
N	0.309308	-2.129418	-2.825971
H	-3.024407	0.0	0.0
