12

C	0.0	0.0	0.0
C	-0.528315	-0.007663	-1.424944
Cl	1.787149	0.0	0.0
H	-1.633324	-0.05497	-1.280733
H	-0.27668	-0.964186	0.443941
H	-0.18703	-0.900243	-1.955621
N	-0.53636	1.14249	0.673981
H	-1.565102	0.994378	0.577671
H	-0.322203	1.072017	1.664423
C	-0.16042	1.175867	-2.18748
N	0.107873	2.100903	-2.85861
H	-3.019887	0.0	0.0
