12

C	0.0	0.0	0.0
C	-0.655433	-0.046262	-1.358005
Cl	1.830895	0.0	0.0
H	-0.502955	0.891557	-1.9025
H	-0.28809	-0.886319	0.563166
H	-1.769046	-0.10077	-1.034748
N	-0.452631	1.157937	0.684205
H	-0.341482	1.08163	1.683533
H	0.004525	1.991117	0.34191
C	-0.251058	-1.172647	-2.178063
N	0.043282	-2.095538	-2.845775
H	-3.15984	0.0	0.0
