14

C	-0.036321	0.004046	-0.015814
C	-0.352918	0.049144	-1.508987
F	1.382823	-0.070732	0.095835
H	-1.370208	0.419754	-1.589278
H	0.355308	0.76202	-1.948088
C	-0.424928	1.256271	0.649451
N	-0.521825	2.320776	1.137636
C	-0.57628	-1.175967	0.675018
N	-0.556324	-2.226364	1.213025
C	-0.223014	-1.321997	-2.156191
H	-1.015468	-1.974082	-1.786175
H	0.741685	-1.781186	-1.925871
H	-0.316462	-1.243799	-3.243619
F	-2.335579	-0.146764	0.200128
