16
Coordinates from ORCA-job run
  C   0.88775457149144     -0.30953707216959     -0.18016337292239
  C   -0.42962469641322      0.30215421409547      0.32164786659231
  F   0.59661136314867     -1.30073497255748     -1.12687428876249
  H   -0.20489158605431      0.88072613170936      1.21931707208272
  C   1.49720032162460     -1.01364353275576      0.96973047316780
  N   1.96193853145086     -1.57752078131443      1.88834570253969
  N   1.78927882711274      0.66957110491260     -0.65152347544186
  H   1.43485974261641      1.08866920809409     -1.50234812429585
  H   2.70604578707694      0.27483631574492     -0.81709861887589
  C   -1.51308710281505     -0.73067125975300      0.58090239962454
  H   -1.15897877104728     -1.47024209881472      1.30108748120827
  H   -1.77654300727189     -1.24047419418166     -0.34549611531724
  H   -2.39509301048580     -0.23917890033168      0.99262941740739
  N   -0.97656614095770      1.31197645277700     -0.64625133673073
  O   -0.72625138997659      1.17458002472125     -1.84305935340024
  O   -1.69265343949980      2.18048935982364     -0.15984572687603
