16
Coordinates from ORCA-job run
  C   0.95407371140189     -0.10339733685047      0.19358049241753
  C   -0.56083958565724     -0.09883161183134      0.41597410154024
  F   1.53844766528559      0.34716994890453      1.38767603116809
  H   -0.78723990694993     -0.88167913597090      1.14336193658642
  C   1.38728289396876      0.81967000058343     -0.87179637097699
  N   1.77773690366211      1.49898773298555     -1.74567434233805
  N   1.35977462780301     -1.41497703315537     -0.14913293474174
  H   2.34030379571496     -1.44975942997082     -0.39788519350220
  H   1.17634138520922     -2.05759031451420      0.61224467358100
  C   -1.36054770759266     -0.25296214904776     -0.86156518529441
  H   -1.17462193020156      0.58956728624091     -1.52871590159662
  H   -2.42670586201100     -0.29191115148114     -0.63053322279791
  H   -1.07093810367609     -1.17661833282560     -1.36227341450506
  N   -0.94870474916275      1.17563276831796      1.10102528945572
  O   -1.50690980728199      1.07696638919700      2.19005143616640
  O   -0.69745333051233      2.21873236941821      0.50466260483757
