16
Coordinates from ORCA-job run
  C   0.91977319529670     -0.40175548834316      0.19682628977708
  C   -0.51890926077518      0.03131633162702      0.52572313097972
  F   1.10479152824137     -1.60152957078870      0.87132832064134
  H   -0.60873481655196      0.02835416583432      1.61253186502848
  C   1.88387138631295      0.55443522936469      0.80230342969005
  N   2.64975032003878      1.33390364963221      1.23464219570555
  N   1.11276094789689     -0.64256691269444     -1.18790488352845
  H   2.08981449981637     -0.80422598261329     -1.39850025888530
  H   0.76149917007164      0.13426328291309     -1.73450821852857
  C   -1.56470123803949     -0.85046992522369     -0.12863764937436
  H   -1.37072281877537     -1.88843391231218      0.14143750780925
  H   -1.52975261394201     -0.76120362681651     -1.21265890630091
  H   -2.55714666434656     -0.57003461916592      0.22949640766644
  N   -0.73045194830832      1.45871602204565      0.12176973434878
  O   -0.55321417461374      1.73492073865649     -1.06615731144886
  O   -1.08862751232207      2.24531061788441      0.99230834641975
