13

C	-0.462102	0.010219	-1.440581
C	0.0	0.0	0.0
F	-0.080614	-1.105491	-2.092002
H	1.093552	0.0	0.0
H	-0.337094	0.917451	0.487313
N	-2.007707	0.035346	-1.468725
O	-2.513984	1.044901	-0.994135
O	-2.581922	-0.940358	-1.925071
C	-0.022535	1.204696	-2.173513
N	0.287675	2.161392	-2.780063
C	-0.536135	-1.16217	0.695292
N	-0.990217	-2.088936	1.254311
Cl	3.219238	0.0	0.0
