13

C	-0.465396	-0.019229	-1.440729
C	0.0	0.0	0.0
F	-0.000256	-1.137927	-2.045112
H	1.093524	0.0	0.0
H	-0.334767	-0.938082	0.453499
N	-2.003713	-0.130445	-1.458814
O	-2.640591	0.906767	-1.598569
O	-2.45223	-1.252292	-1.267619
C	-0.093351	1.16604	-2.219415
N	0.212996	2.11227	-2.844623
C	-0.540182	1.13661	0.728854
N	-0.987985	2.042436	1.326851
Cl	3.218924	0.0	0.0
