13

C	-0.464451	-0.029769	-1.440833
C	0.0	0.0	0.0
F	0.000376	-1.152789	-2.037099
H	1.093564	0.0	0.0
H	-0.33469	-0.934666	0.460605
N	-2.002508	-0.140333	-1.460134
O	-2.638198	0.897527	-1.600487
O	-2.451866	-1.261834	-1.268729
C	-0.092999	1.149653	-2.228504
N	0.211827	2.090889	-2.862144
C	-0.539777	1.142358	0.720222
N	-0.98748	2.053217	1.310664
Cl	3.217742	0.0	0.0
