13

C	-0.553454	-0.055594	-1.406957
C	0.0	0.0	0.0
F	-1.916959	-0.143826	-1.392592
H	1.091847	0.0	0.0
H	-0.310228	-0.926785	0.494209
N	-0.209446	1.234802	-2.162408
O	0.863793	1.246826	-2.746732
O	-1.031978	2.136188	-2.076893
C	-0.025714	-1.186386	-2.177346
N	0.292318	-2.141674	-2.781591
C	-0.541736	1.131109	0.741843
N	-0.975209	2.023667	1.368987
Cl	3.2196	0.0	0.0
