11
Coordinates from ORCA-job run
  C   -0.49586381418465     -0.59371972667951      0.12834660900781
  C   0.92985563199813     -0.17052409561554      0.43545165583354
  Br  -1.31231890129389     -1.41809428453443      1.66758942163915
  H   0.92498666812772      0.55906180795153      1.24682946783518
  H   -0.57035789231153     -1.28996850202560     -0.70438880263602
  H   1.50087453127547     -1.04489750134351      0.75635862880253
  N   -1.32301556377164      0.60653932410932     -0.26225749267742
  O   -1.11499760607131      1.64745801710611      0.34997476054789
  O   -2.14442862461329      0.42516976879793     -1.15386496254753
  C   1.55322252887767      0.41380369924354     -0.75153284177148
  N   2.05304304196732      0.86517149299017     -1.71250644403366
