11
Coordinates from ORCA-job run
  C   -0.39423719239470     -0.46898292565399      0.13732694794834
  C   0.75988756857437      0.47934737132689     -0.14954335505202
  Br  -0.55628992038213     -0.86458307277379      2.01481143687807
  H   0.64292016075437      1.38742783912002      0.44419850733514
  H   -0.31614262340380     -1.41413158898554     -0.39605914436111
  H   0.72751425888200      0.76540623563877     -1.20658537145512
  N   -1.67864289307579      0.16542284806028     -0.33061454218424
  O   -1.81825053807740      1.36419550025844     -0.11447712132815
  O   -2.47739999887024     -0.57896165510601     -0.88892858456116
  C   2.04135686309522     -0.15769302030255      0.13600363236567
  N   3.07028431489808     -0.67744753158252      0.35386759441457
