11
Coordinates from ORCA-job run
  C   -0.48663947349124     -0.61141775641624     -0.05168844098723
  C   0.96616244555270     -0.29421805705678      0.25677843502346
  Br  -1.16158491502258     -1.96215903744122      1.14615087713428
  H   1.55623069012971     -1.21032399436537      0.17764408846002
  H   -0.64725744897421     -0.95564220076738     -1.07120792023464
  H   1.04590352041496      0.08386969286085      1.27716894491772
  N   -1.33358274734585      0.62841910794903      0.10364637664334
  O   -1.06216734197360      1.37223390784647      1.03881411856425
  O   -2.23021889002869      0.77330046913812     -0.71935242485597
  C   1.47812419633149      0.70045497333117     -0.68538760919337
  N   1.87402996440732      1.47648289492136     -1.47156644547189
