11
Coordinates from ORCA-job run
  C   -0.54120900208124     -0.55654292297407      0.33725705052829
  C   0.88883424275557     -0.49715957826565     -0.18957767013813
  Br  -0.63105867469889     -0.36174235378923      2.23835372424619
  H   0.86561841361270     -0.67906773484438     -1.26766999093923
  H   -1.00774127538485     -1.50223743898713      0.06536396276891
  H   1.47423002476208     -1.29061527157339      0.28081379251868
  N   -1.34862308877493      0.50532378248013     -0.39300639102413
  O   -1.50716713393344      0.24164649738979     -1.58227957838454
  O   -1.72854770621229      1.50284191618172      0.19708361650525
  C   1.51831413877980      0.79541514458549      0.06988387902500
  N   2.01835006117547      1.84213795979675      0.24577760489371
