11
Coordinates from ORCA-job run
  C   -0.45585053986988     -0.43036569945563      0.04056727490428
  C   0.81921746532571      0.39319257720696     -0.05714971807631
  Br  -0.69137036436236     -1.19494936153652      1.79200376394050
  H   0.83857688261647      0.90023723728630     -1.02808299874391
  H   -0.50075912870408     -1.24032768845678     -0.68458488540317
  H   0.81854029285556      1.16055026006798      0.71875270362831
  N   -1.63714413176204      0.45717338020152     -0.25698949030549
  O   -2.52272402302392     -0.03548269704800     -0.94745917158499
  O   -1.61576858881734      1.58893239003718      0.21390962154024
  C   1.99952397234899     -0.45634438451367      0.06397565269545
  N   2.94675816339288     -1.14361601378934      0.14605724740510
