11
Coordinates from ORCA-job run
  C   -0.44670018989065      0.05722150533049      0.43549300352577
  C   0.81172964644184     -0.08321344335902     -0.40676665266293
  Br  -0.62634098130515      1.82441982390060      1.17967907342498
  H   0.79788820301235     -1.05987891555011     -0.90275772957658
  H   -0.49526760995496     -0.65471121724546      1.25698843787026
  H   0.82037649060648      0.68331108111167     -1.18332845517020
  N   -1.65166898101939     -0.22185240700149     -0.42572137613524
  O   -2.55825939520542     -0.85595823045559      0.10273257510217
  O   -1.62790685996118      0.20952200679029     -1.57326503324343
  C   2.00784751201815      0.01645324044479      0.42341445168169
  N   2.96830216525789      0.08568655603382      1.09353170518349
