11
Coordinates from ORCA-job run
  C   -0.50197634249062     -0.57376974495474      0.18571972345119
  C   0.93740539276564     -0.15555390088791      0.43032946962835
  Br  -1.30061514390027     -1.25716537287499      1.80121945128996
  H   1.49927055345386     -1.01345784823732      0.80712154782043
  H   -0.60680353127607     -1.33147595442269     -0.58793559852298
  H   0.96279297201465      0.63435133141909      1.18268292966716
  N   -1.31363224123222      0.60946011455657     -0.28266596507582
  O   -1.08462347443915      1.68697643468467      0.25388808655731
  O   -2.14215034796902      0.38066183787329     -1.15667377364979
  C   1.54315222423210      0.32269571792388     -0.81197151648982
  N   2.00617993884105      0.69827738492017     -1.82271435467598
