11
Coordinates from ORCA-job run
  C   -0.44998488170251     -0.38435279462547      0.21017073023985
  C   0.81416391022912      0.36109840053278     -0.18949354510145
  Br  -0.77892762791040     -0.28694039333888      2.10496682281635
  H   0.88196114474949      0.38075997614106     -1.28277156822473
  H   -0.43619532402471     -1.43540229442931     -0.07097670366924
  H   0.75523402300928      1.39369722994825      0.15853055513701
  N   -1.62596218765741      0.22165915638998     -0.51164733394770
  O   -1.65302515288155      1.44398555511808     -0.60328882835613
  O   -2.45873368242467     -0.56690317668538     -0.94575345321405
  C   1.99962059378261     -0.29502598467271      0.35272304363400
  N   2.95184918483074     -0.83257567437837      0.77754028068609
