11
Coordinates from ORCA-job run
  C   -0.52503942114209     -0.56915953644126      0.18724837725270
  C   0.93474057140263     -0.40069621351818     -0.19628308610409
  Br  -0.80101622830290     -0.47628759636564      2.09049145490288
  H   1.47588469826194     -1.28054965268237      0.16353989712554
  H   -0.91224694062118     -1.53267751914283     -0.14366504996576
  H   1.01427535776563     -0.37970644031909     -1.28702187006095
  N   -1.40656012746564      0.46056118691638     -0.48638795573564
  O   -0.85236878039065      1.42302896504307     -1.00738159984268
  O   -2.60773708711186      0.22645078573932     -0.46718030134340
  C   1.56572805099957      0.79592131428116      0.35445451983335
  N   2.11433990660454      1.73511470648943      0.79318561393797
