14

C	0.0	0.0	0.0
C	-0.491529	-0.140635	-1.433946
F	1.384676	0.0	0.0
H	0.001259	-1.036983	-1.831289
H	-1.571686	-0.311629	-1.375647
C	-0.408847	1.270694	0.627065
N	-0.685394	2.292186	1.135686
C	-0.399438	-1.137894	0.849308
N	-0.662731	-2.043502	1.547095
C	-0.172246	1.099591	-2.262332
H	0.872885	1.404055	-2.153547
H	-0.813928	1.932053	-1.958484
H	-0.360629	0.900231	-3.322254
Cl	-3.491236	0.0	0.0
