14

C	0.0	0.0	0.0
C	-0.440544	0.110825	-1.452946
F	1.384677	0.0	0.0
H	0.086518	0.986325	-1.851163
H	-1.514416	0.304029	-1.465887
C	-0.394774	1.166332	0.814631
N	-0.651705	2.089628	1.494138
C	-0.422624	-1.244967	0.66729
N	-0.696823	-2.225333	1.253429
C	-0.066001	-1.146952	-2.233263
H	-0.681272	-1.997079	-1.931389
H	-0.220092	-0.9757	-3.297683
H	0.986322	-1.410011	-2.087203
Cl	-3.386546	0.0	0.0
