14

C	0.0	0.0	0.0
C	-0.512856	-0.260971	-1.409131
F	1.383244	0.0	0.0
H	-0.101955	0.538431	-2.035367
H	-0.052518	-1.202568	-1.727702
C	-0.429475	1.319796	0.501063
N	-0.687498	2.405999	0.864539
C	-0.418982	-1.061228	0.93684
N	-0.663375	-1.945504	1.669119
C	-2.033443	-0.316961	-1.477328
H	-2.51673	0.588956	-1.111435
H	-2.353991	-0.46436	-2.510412
H	-2.45558	-1.124817	-0.880203
Cl	-5.075203	0.0	0.0
