14

C	0.0	0.0	0.0
C	-0.468343	-0.102888	-1.447208
F	1.384081	0.0	0.0
H	-1.547653	-0.265733	-1.42026
H	0.026475	-0.993798	-1.849638
C	-0.410229	1.256549	0.654791
N	-0.557401	2.30635	1.160193
C	-0.416428	-1.170114	0.796028
N	-0.541114	-2.156231	1.421948
C	-0.113873	1.140244	-2.25166
H	0.948881	1.384989	-2.176983
H	-0.353238	0.978139	-3.305172
H	-0.697906	1.99599	-1.906419
Cl	-3.401641	0.0	0.0
