14

C	0.0	0.0	0.0
C	-0.465255	-0.093533	-1.45009
F	1.384516	0.0	0.0
H	-1.534457	0.123302	-1.453014
H	0.075562	0.702736	-1.972881
C	-0.413842	1.283862	0.597064
N	-0.557782	2.376359	1.003901
C	-0.426064	-1.143315	0.827921
N	-0.596486	-2.11511	1.463784
C	-0.175607	-1.458662	-2.054469
H	-0.833988	-2.210163	-1.614378
H	0.863784	-1.760453	-1.899062
H	-0.363293	-1.435659	-3.130612
Cl	-3.378447	0.0	0.0
