14

C	0.0	0.0	0.0
C	-0.454413	0.059369	-1.454642
F	1.391001	0.0	0.0
H	0.091653	-0.746065	-1.95793
H	-1.523787	-0.155943	-1.469037
C	-0.409323	1.171681	0.796348
N	-0.531976	2.158647	1.421547
C	-0.402618	-1.260145	0.654233
N	-0.506521	-2.317654	1.154676
C	-0.159082	1.41209	-2.087772
H	0.885111	1.706102	-1.951524
H	-0.804571	2.177923	-1.654567
H	-0.366196	1.370533	-3.161087
Cl	-3.358563	0.0	0.0
