14

C	0.0	0.0	0.0
C	-0.506398	0.154435	-1.426517
F	1.384564	0.0	0.0
H	-1.584439	0.321924	-1.351364
H	-0.023028	1.055579	-1.819464
C	-0.414315	1.134863	0.849425
N	-0.572721	2.085662	1.520095
C	-0.4158	-1.274793	0.618336
N	-0.594435	-2.329507	1.102388
C	-0.201741	-1.06718	-2.282247
H	0.857766	-1.334301	-2.252096
H	-0.792218	-1.921353	-1.944746
H	-0.474911	-0.866147	-3.320651
Cl	-3.492069	0.0	0.0
