14

C	0.0	0.0	0.0
C	-0.456424	-0.320659	-1.420264
F	1.385367	0.0	0.0
H	-1.530609	-0.505322	-1.381931
H	0.066219	-1.245818	-1.689793
C	-0.409941	1.341072	0.458404
N	-0.52917	2.453655	0.814488
C	-0.411161	-1.039497	0.96147
N	-0.527848	-1.941858	1.703918
C	-0.128404	0.806822	-2.389375
H	-0.756922	1.675462	-2.183734
H	0.92023	1.107127	-2.327938
H	-0.330834	0.484198	-3.413697
Cl	-3.363146	0.0	0.0
