15

C	-0.477132	0.058858	-1.437794
C	0.0	0.0	0.0
Cl	0.096146	-1.441993	-2.328984
H	1.093796	0.0	0.0
H	0.05204	0.872118	-1.938595
N	-1.8908	0.243423	-1.552679
H	-2.166179	0.237856	-2.527705
H	-2.363959	-0.526136	-1.089939
C	-0.545189	-1.164327	0.676001
N	-1.024544	-2.089309	1.222811
C	-0.373063	1.283782	0.747052
H	0.088948	1.258855	1.736931
H	0.058341	2.132899	0.209955
H	-1.450518	1.428531	0.839353
H	2.745816	0.0	0.0
