15

C	-0.237242	0.086131	-1.497894
C	0.0	0.0	0.0
Cl	-1.986176	0.464952	-1.926085
H	1.098978	0.0	0.0
H	-0.097779	-0.903533	-1.94551
N	0.620819	1.111576	-2.013631
H	1.541316	0.971073	-1.572162
H	0.718278	1.012207	-3.015879
C	-0.52037	-1.232263	0.560084
N	-0.940783	-2.223942	1.032438
C	-0.453143	1.228927	0.779261
H	-0.008125	1.205085	1.777246
H	-1.54081	1.280975	0.868189
H	-0.093942	2.119771	0.262803
H	2.747854	0.0	0.0
