15

C	-0.306474	-0.121485	-1.500696
C	0.0	0.0	0.0
Cl	-0.267666	1.602785	-2.287156
H	1.097491	0.0	0.0
H	-1.334848	-0.413401	-1.725661
N	0.631806	-1.002653	-2.045452
H	1.573016	-0.787921	-1.698029
H	0.597771	-1.061645	-3.053021
C	-0.475667	-1.225237	0.627732
N	-0.8963	-2.200585	1.132904
C	-0.535695	1.224625	0.729377
H	-0.001418	2.110671	0.389679
H	-0.358264	1.109726	1.801138
H	-1.607609	1.369842	0.563496
H	2.806289	0.0	0.0
