15

C	-0.40018	-0.009218	-1.457162
C	0.0	0.0	0.0
Cl	-2.268612	-0.39313	-1.621279
H	1.096473	0.0	0.0
H	0.046223	-0.864105	-1.963293
N	-0.067383	1.180566	-2.122617
H	-0.529777	1.983173	-1.72034
H	-0.270033	1.127578	-3.110615
C	-0.434542	-1.214404	0.671275
N	-0.754812	-2.183902	1.254149
C	-0.4409	1.244415	0.763846
H	-1.518353	1.422271	0.692901
H	0.113764	2.107597	0.387162
H	-0.171108	1.13354	1.815599
H	2.733866	0.0	0.0
