13
Coordinates from ORCA-job run
  C   -0.54722537246067      0.38436358565837      0.00656169728529
  C   0.47629940257159     -0.74156147959047      0.20140083970899
  Cl  -0.49797577483270      1.42399720992583      1.52149220672058
  H   0.17157388015937     -1.29208396522440      1.09826245755126
  H   0.36423743296985     -1.41091387509197     -0.65728222226293
  N   -1.83457363801940     -0.15753456644663     -0.26123116401149
  H   -2.52801014249207      0.57015838100189     -0.38263472676017
  H   -2.12605010551598     -0.76626622590962      0.49476920567233
  C   -0.13968105021043      1.25190446901079     -1.10099311761357
  N   0.18520732487957      1.89752118882218     -2.02606662615510
  N   1.81688606819844     -0.21446084225903      0.32231028136560
  H   2.24256435135205     -0.42759155205019      1.20955677315482
  H   2.41674762340038     -0.51753232784675     -0.42814560465562
