13
Coordinates from ORCA-job run
  C   -0.49108225122237      0.51793143253466      0.11786573104082
  C   0.67900534011508     -0.26656550512306      0.70884203742288
  Cl  -1.24123881669998      1.47414771389522      1.50437813669569
  H   0.25398856523637     -0.95266707625442      1.45937476859928
  H   1.33547776215367      0.42933588417223      1.23342206289973
  N   -1.40876092699511     -0.37522944205762     -0.50053657147844
  H   -2.14565256498081      0.11567648534662     -0.99153296192997
  H   -1.82218824980850     -0.98934600106247      0.19183520945683
  C   -0.02765763885681      1.50544907596954     -0.85998748312684
  N   0.31365084782454      2.31916651038087     -1.63406354661643
  N   1.40637720796869     -0.88662087023941     -0.37895356868708
  H   0.86009969122056     -1.62861054511813     -0.79396168940883
  H   2.28798103404467     -1.26066766244403     -0.05568212486762
