13
Coordinates from ORCA-job run
  C   -0.52464421544983      0.37434804938000     -0.01314036432750
  C   0.48544816428652     -0.76482114226721      0.11982191397861
  Cl  -0.38280488561521      1.39353412208326      1.52708605931158
  H   0.15335221091874     -1.38701295045643      0.96534304826181
  H   0.38991295026780     -1.35695769818996     -0.79370957449774
  N   -1.82903945115947     -0.14298568189533     -0.21269040066384
  H   -2.10274246022002     -0.73920308555988      0.55876574032122
  H   -2.51559497133439      0.59160521205981     -0.32847543410104
  C   -0.16659043591937      1.26472280265858     -1.11884386510327
  N   0.10859307940483      1.94746192345866     -2.03320369085796
  N   1.83493089743642     -0.25424840056721      0.22234313578681
  H   2.04543109270609      0.03050639734444      1.16896590133414
  H   2.50374802467788     -0.95594954804873     -0.06126246944281
