13
Coordinates from ORCA-job run
  C   -0.49982850424227      0.50114862335471      0.13500400180122
  C   0.40748224345401     -0.73447095640067      0.09730575301194
  Cl  -0.18425842344880      1.34611278395190      1.69808374850968
  H   0.09160252180574     -1.37888155961881      0.93272034859314
  H   0.17589799581281     -1.25831564458475     -0.83591771452632
  N   -1.91330207299693      0.22275801597849      0.07073858158460
  H   -2.16079762504781     -0.47961771471576      0.75842449406085
  H   -2.16385107191468     -0.10416330012210     -0.85533640348238
  C   -0.14815245715533      1.41052506525346     -0.96126410511370
  N   0.08632906104307      2.09446026048141     -1.88609593099378
  N   1.80637865259706     -0.36358587968525      0.09230720762439
  H   2.37727951111963     -1.11297327990858     -0.27262127357137
  H   2.12322016897351     -0.14299641398405      1.02665129250174
