18

C	-0.534161	0.073845	-1.467688
C	-0.052652	-0.206072	-0.02677
Cl	-0.207214	-1.429339	-2.429696
H	0.999508	-0.515316	-0.083933
C	-2.023664	0.35362	-1.523215
H	-2.232017	1.199236	-0.864602
H	-2.602805	-0.510512	-1.191193
H	-2.322964	0.602568	-2.544146
C	0.283335	1.203795	-2.066591
H	0.022787	1.33144	-3.120526
H	1.35226	1.014536	-1.963763
H	0.060531	2.124575	-1.524518
C	-0.829834	-1.299303	0.568965
N	-1.476515	-2.142109	1.070469
N	-0.198002	1.017464	0.76711
H	0.740144	1.434818	0.773423
H	-0.40397	0.769395	1.727878
Cl	2.969094	1.419547	0.406992
