18

C	-0.488425	0.044735	-1.571645
C	0.140101	-0.066654	-0.162446
Cl	0.179162	1.541096	-2.321676
H	1.234497	-0.045692	-0.251847
C	-0.075383	-1.124341	-2.452283
H	1.013153	-1.213641	-2.480237
H	-0.493987	-2.056642	-2.064673
H	-0.436749	-0.974211	-3.472181
C	-1.995538	0.199935	-1.489909
H	-2.435958	-0.694444	-1.037188
H	-2.42152	0.334339	-2.487039
H	-2.235982	1.070349	-0.878848
C	-0.236084	-1.379444	0.393428
N	-0.625453	-2.399697	0.829492
N	-0.240561	1.031366	0.71047
H	-0.932416	0.726627	1.383598
H	0.610453	1.27966	1.223362
Cl	2.823508	0.848443	1.681186
