14

C	0.0	0.0	0.0
C	-0.401609	0.015072	-1.51909
Cl	1.785609	0.0	0.0
H	0.53235	-0.147178	-2.066284
H	-0.366394	0.891795	0.505116
C	-0.414791	-1.199468	0.724806
N	-0.557043	-2.197964	1.32786
C	-0.935652	1.381211	-1.946082
H	-0.195225	2.149643	-1.701013
H	-1.876265	1.577908	-1.433504
H	-1.1007	1.3946	-3.026505
C	-1.227833	-1.115071	-1.956484
N	-1.664979	-2.081657	-2.462199
Br	-3.369065	0.0	0.0
