14

C	0.0	0.0	0.0
C	-0.555173	-0.530328	-1.328847
Cl	1.781844	0.0	0.0
H	-0.170735	0.137185	-2.109664
H	-0.328721	1.033738	0.127686
C	-0.4522	-0.793521	1.14144
N	-0.768902	-1.441365	2.068029
C	-2.08693	-0.517193	-1.320104
H	-2.506947	-1.209436	-0.59168
H	-2.470242	-0.787791	-2.305185
H	-2.485376	0.46521	-1.064326
C	-0.028374	-1.870272	-1.599416
N	0.36442	-2.960111	-1.792643
Br	-5.231447	0.0	0.0
