14

C	0.0	0.0	0.0
C	-0.563889	0.037861	-1.427011
Cl	1.782672	0.0	0.0
H	-1.653232	0.160114	-1.273966
H	-0.336803	0.882727	0.545734
C	-0.423187	-1.200015	0.724959
N	-0.650068	-2.159641	1.362767
C	-0.30671	-1.242241	-2.217608
H	0.760901	-1.454864	-2.308598
H	-0.803695	-2.075555	-1.717338
H	-0.731767	-1.145838	-3.218226
C	-0.052289	1.211314	-2.12939
N	0.35334	2.140222	-2.723561
Br	-3.615705	0.0	0.0
