14

C	0.0	0.0	0.0
C	-0.550751	0.033234	-1.432828
Cl	1.782554	0.0	0.0
H	-1.643165	0.13144	-1.289032
H	-0.339932	0.885399	0.538949
C	-0.426363	-1.201042	0.721378
N	-0.614996	-2.198683	1.311755
C	-0.250746	-1.232277	-2.231711
H	0.823452	-1.407372	-2.324131
H	-0.717298	-2.086794	-1.737924
H	-0.678263	-1.142701	-3.231936
C	-0.060391	1.225276	-2.119715
N	0.327102	2.167938	-2.704383
Br	-3.594386	0.0	0.0
