14

C	0.0	0.0	0.0
C	-0.565069	-0.023357	-1.426532
Cl	1.782655	0.0	0.0
H	-1.653251	0.109033	-1.277376
H	-0.335315	0.906297	0.506461
C	-0.421668	-1.167791	0.776707
N	-0.623441	-2.113767	1.442794
C	-0.314446	-1.336142	-2.162107
H	-0.813775	-2.145325	-1.625109
H	0.752282	-1.557172	-2.246929
H	-0.742259	-1.279745	-3.164762
C	-0.051543	1.118647	-2.178219
N	0.353422	2.02197	-2.81141
Br	-3.613129	0.0	0.0
