14

C	0.0	0.0	0.0
C	-0.55016	-0.463804	-1.356123
Cl	1.781949	0.0	0.0
H	-0.153685	0.233269	-2.10416
H	-0.330196	1.02552	0.176724
C	-0.454863	-0.853517	1.096342
N	-0.770151	-1.567537	1.973619
C	-2.081188	-0.435193	-1.358205
H	-2.469376	0.545053	-1.079134
H	-2.51537	-1.142065	-0.651171
H	-2.461449	-0.677719	-2.351428
C	-0.03224	-1.793854	-1.690431
N	0.368697	-2.856022	-1.989537
Br	-5.224509	0.0	0.0
