16
Coordinates from ORCA-job run
  C   0.99682388810497     -0.16445353745594      0.04709840279027
  C   -0.31740051141136      0.64934047969590      0.01381646845004
  Br  2.43138631928270      1.02287376345790      0.82247681283942
  H   -0.08981665170885      1.55578253612739     -0.55971478124787
  N   1.34250813331058     -0.65600263149984     -1.23991538578799
  H   1.47873714180166      0.11389547250910     -1.88552350356596
  H   2.18851796242045     -1.21201196885755     -1.21228110102118
  C   0.86023853145104     -1.27677852138459      0.98790346825987
  N   0.68951701332573     -2.17523151337359      1.72593680010305
  N   -0.65834138497251      1.04472122037868      1.36869972859123
  H   -1.14366388410284      1.93081632136104      1.37655965866530
  H   -1.25612349918097      0.35027979848635      1.80107079081106
  C   -1.41727792834661     -0.14638780966032     -0.68984836618721
  H   -1.61466059935398     -1.07627334513526     -0.14797822502777
  H   -2.33484769018261      0.44688556067015     -0.69308555402978
  H   -1.15559684043741     -0.40545582531942     -1.71521521364247
