16
Coordinates from ORCA-job run
  C   0.88166537663934     -0.42364507465298     -0.04313789558034
  C   -0.43489794188641      0.35186229089420     -0.25448838882870
  Br  1.02567183625956     -0.85145775223000      1.96952282145261
  H   -0.45156538681041      0.51770727524787     -1.33877794474270
  N   1.95702411941337      0.33812643377448     -0.51443419343829
  H   2.86113559225631     -0.07556953994065     -0.33252109929311
  H   1.88039660775881      1.28210439581062     -0.15042585286565
  C   0.84566225252057     -1.74072951356175     -0.67327645355964
  N   0.81491683696157     -2.78183968521964     -1.21779773979015
  N   -0.26830346603409      1.65908346149328      0.37197858886071
  H   -0.88796799606920      2.33161839089544     -0.06146761765092
  H   -0.50568554671425      1.59998461775318      1.35600871827123
  C   -1.68716285727915     -0.41417499178998      0.14812946407705
  H   -2.56736316628668      0.15709818379384     -0.15727623661630
  H   -1.73687307414873     -1.39437175919838     -0.33223234992975
  H   -1.72765318658060     -0.55679673306953      1.22919617963395
