16
Coordinates from ORCA-job run
  C   0.84221147448887     -0.34335428076511      0.15036727176321
  C   -0.50202557217889      0.34347404578129     -0.14552212429237
  Br  1.05148274086962     -0.72238048962157      2.05884762703329
  H   -0.46706565064036      0.49789469037754     -1.24280238686759
  N   1.91952967839544      0.55639009413400     -0.23079548836110
  H   2.81299309588461      0.18330294962638      0.07020138388297
  H   1.93582649264701      0.63361546201719     -1.24444979895488
  C   0.90430081819810     -1.63939688988946     -0.54158522458253
  N   0.95057386291339     -2.63503117900531     -1.16617480849574
  N   -0.56097347420242      1.57978328160950      0.60899363070875
  H   0.26752954436044      2.13240483521569      0.42465296095014
  H   -1.37972965968829      2.10835184056927      0.33495229871156
  C   -1.70994564508921     -0.52083854523138      0.17121425881217
  H   -2.62041565842960      0.00320812568492     -0.13154082945036
  H   -1.68035129696859     -1.47297922030754     -0.36225828863257
  H   -1.76394075056012     -0.70344472019539      1.24489951777506
