16
Coordinates from ORCA-job run
  C   0.67139188286294     -0.76819881607749     -0.00626334829491
  C   -0.59706519210555      0.03987741651166     -0.36718654991551
  Br  0.20556730576609     -2.65092936086698      0.32565685239511
  H   -1.06743201556822     -0.47452644975507     -1.21670433749349
  N   1.27725695672074     -0.21654800740704      1.16995341597021
  H   2.18689778954105     -0.62699320240717      1.34292030086557
  H   1.37365258513556      0.78283818461778      1.00834430198635
  C   1.55320722836766     -0.78978148598710     -1.18776405453386
  N   2.26009508903555     -0.72841769798253     -2.12611947453830
  N   -0.12017385017759      1.38456636554812     -0.69674414833003
  H   0.20434963386676      1.42946020591022     -1.65569173576781
  H   -0.86839774312088      2.05743073516166     -0.58744887525123
  C   -1.58159963480406      0.12121497750347      0.78760189563394
  H   -1.14173459663276      0.66315597726561      1.62480545651934
  H   -1.87476451871651     -0.86975083691916      1.13093506496841
  H   -2.48225092017076      0.64560199488402      0.45570523578623
