16
Coordinates from ORCA-job run
  C   0.72749752631621     -0.71420944491024      0.03464729932874
  C   -0.63970334079093     -0.06395611098044     -0.28077045728561
  Br  0.46612751467723     -2.52717062114326      0.75575095569785
  H   -1.16897603193963     -0.75342442619044     -0.95303927730520
  N   1.43078965251185      0.08126160802964      0.99701546330308
  H   2.38707263721375     -0.23343545736267      1.10768530977930
  H   1.41776540271293      1.03774650063148      0.65194517840068
  C   1.44984819647091     -0.90455892999960     -1.23634997669952
  N   2.02379282782759     -0.97913471840245     -2.26057111672945
  N   -0.32318919955540      1.22284401705780     -0.90412968114232
  H   -0.12688614938869      1.10890466166125     -1.89191607705153
  H   -1.10587381983920      1.85788870924537     -0.81154464496163
  C   -1.47344330011609      0.17038050369532      0.96795278008694
  H   -2.44712658726685      0.57610104078753      0.67890800389663
  H   -1.64218706704222     -0.75698062984760      1.51321819748315
  H   -0.97550826179147      0.87774329772833      1.63119804319888
