16
Coordinates from ORCA-job run
  C   0.83034056011418     -0.35265225427078      0.18094338900589
  C   -0.49403773154400      0.34950553416238     -0.16435976457947
  Br  0.97164935052853     -0.72009737545768      2.09770070151708
  H   -0.42038390935493      0.49569577754859     -1.26080149615856
  N   1.93146628803972      0.52930468811454     -0.17122748391755
  H   1.97930489355684      0.60151017152892     -1.18430016232820
  H   2.80992298915940      0.14438206687476      0.15811766665646
  C   0.89891813043426     -1.65528441010570     -0.49929235370754
  N   0.98003728326583     -2.65571609519952     -1.11251322307582
  N   -0.56277041784190      1.59156437282532      0.57962909916867
  H   -1.36484965418599      2.12846358767274      0.27410636356022
  H   0.27868641739370      2.13259915400542      0.42017911959189
  C   -1.72240103502484     -0.49807683632646      0.11743998733068
  H   -1.68698045091449     -1.45376125580181     -0.40916347187727
  H   -1.81393109640708     -0.67327330195587      1.18969952433811
  H   -2.61597161721924      0.03483617638515     -0.21815789552459
