15

C	-0.082985	-0.071836	-1.533047
C	0.0	0.0	0.0
Br	-1.912823	-0.545968	-2.179322
H	1.104021	0.0	0.0
C	0.186709	1.263165	-2.084718
N	0.429233	2.290507	-2.599553
N	0.87252	-1.010154	-2.076601
H	1.743986	-0.779649	-1.56128
H	0.58925	-1.940661	-1.778905
C	-0.449731	-1.247124	0.603835
N	-0.827487	-2.242604	1.105926
N	-0.55593	1.203654	0.573794
H	0.103647	1.574112	1.244654
H	-1.443012	1.033404	1.030093
F	2.586164	0.0	0.0
