15

C	-0.58556	0.036304	-1.426938
C	0.0	0.0	0.0
Br	0.364147	1.455268	-2.4138
H	1.109428	0.0	0.0
C	-0.325188	-1.217454	-2.136861
N	-0.174523	-2.239822	-2.696541
N	-2.001103	0.343448	-1.504467
H	-2.505776	-0.445742	-1.105729
H	-2.124608	1.141556	-0.882914
C	-0.545793	-1.164976	0.673846
N	-1.030962	-2.083882	1.22866
N	-0.399494	1.245026	0.684582
H	0.471974	1.693144	0.948144
H	-0.91298	1.044216	1.533657
F	2.522055	0.0	0.0
