13

C	0.0	0.0	0.0
C	-0.416766	-0.103001	-1.494545
F	1.373108	0.0	0.0
H	0.54758	-0.135448	-2.014343
H	-0.37585	-0.872828	0.531432
C	-0.409866	1.238078	0.679477
N	-0.533172	2.252092	1.258868
C	-1.081466	1.10696	-2.025258
N	-1.475068	2.04803	-2.609396
N	-1.087515	-1.365359	-1.748535
H	-2.004613	-1.281511	-1.300498
H	-1.239684	-1.454568	-2.747366
Cl	-3.215917	0.0	0.0
