13

C	0.0	0.0	0.0
C	-0.38374	-0.104406	-1.523429
F	1.382982	0.0	0.0
H	0.600171	-0.231132	-1.991633
H	-0.370723	-0.87462	0.534258
C	-0.411869	1.22783	0.693426
N	-0.584288	2.220256	1.296214
C	-0.896807	1.162049	-2.063669
N	-1.185512	2.182474	-2.566778
N	-1.205815	-1.213171	-1.956242
H	-0.770683	-2.078785	-1.656991
H	-2.101265	-1.115731	-1.469952
Cl	-3.229722	0.0	0.0
