13

C	0.0	0.0	0.0
C	-0.555792	-0.294623	-1.412131
F	1.369306	0.0	0.0
H	-1.447334	-0.913518	-1.258392
H	-0.346852	-0.775418	0.686166
C	-0.415375	1.316268	0.513172
N	-0.569509	2.378499	0.987242
C	0.436376	-1.067023	-2.168674
N	1.17905	-1.719099	-2.80379
N	-0.875775	0.951323	-2.114259
H	-1.068788	0.728281	-3.085844
H	-1.766732	1.241604	-1.706249
Cl	-3.30209	0.0	0.0
