13

C	0.0	0.0	0.0
C	-0.491406	-0.204363	-1.441313
F	1.380127	0.0	0.0
H	-1.567145	-0.408162	-1.350324
H	-0.357037	-0.804443	0.64583
C	-0.416136	1.308443	0.528331
N	-0.55409	2.396867	0.945842
C	0.188559	-1.385282	-1.992709
N	0.729561	-2.333991	-2.424075
N	-0.306187	0.937643	-2.322625
H	-1.049327	1.599643	-2.128001
H	0.581749	1.388557	-2.134284
Cl	-3.324371	0.0	0.0
