17

C	-0.497134	0.010676	-1.435311
C	0.0	0.0	0.0
F	0.146156	1.021975	-2.158252
H	1.089735	0.0	0.0
H	-0.395667	-0.881443	0.506426
C	-0.055826	-1.30571	-2.046909
H	-0.60293	-2.144954	-1.608301
H	1.010972	-1.414104	-1.836913
H	-0.227958	-1.293446	-3.126293
C	-1.983201	0.296759	-1.569142
H	-2.188244	1.3112	-1.217723
H	-2.577281	-0.400354	-0.973091
H	-2.289543	0.231501	-2.616911
N	-0.535606	1.155393	0.738405
O	-1.39986	0.953334	1.600231
O	-0.125297	2.271734	0.437588
F	2.606286	0.0	0.0
