16

C	-0.326991	-0.03661	-1.471201
C	0.0	0.0	0.0
F	-1.633925	-0.440889	-1.732297
H	1.091973	0.0	0.0
H	-0.38296	0.913808	0.450209
N	-0.404416	1.422818	-2.060232
O	0.014191	1.581224	-3.205518
O	-0.951594	2.288194	-1.385439
N	0.563676	-0.836872	-2.179954
H	0.532048	-0.646416	-3.172181
H	1.510653	-0.731752	-1.819532
C	-0.513385	-1.244236	0.715606
H	-1.605043	-1.278899	0.736983
H	-0.14692	-2.145739	0.222362
H	-0.141952	-1.248898	1.742515
Cl	3.449484	0.0	0.0
