16

C	-0.325911	-0.09145	-1.470147
C	0.0	0.0	0.0
F	-1.659657	-0.38605	-1.719751
H	1.093322	0.0	0.0
H	-0.382754	0.936154	0.404243
N	-0.237703	1.357137	-2.095221
O	-0.925232	2.227841	-1.57104
O	0.481003	1.51431	-3.079867
N	0.492996	-1.013006	-2.127265
H	0.469867	-0.893639	-3.130789
H	1.452258	-0.924246	-1.796522
C	-0.523893	-1.204871	0.770973
H	-0.142337	-2.130587	0.338363
H	-1.615893	-1.242135	0.767682
H	-0.178988	-1.150117	1.806003
Cl	3.45511	0.0	0.0
