16

C	-0.385642	-0.167746	-1.457499
C	0.0	0.0	0.0
F	-1.639736	-0.711059	-1.567254
H	1.095793	0.0	0.0
H	-0.311233	-0.935178	0.480552
N	-0.471563	1.214875	-2.10307
O	-1.581059	1.724966	-2.224855
O	0.598398	1.734222	-2.395924
N	0.509922	-0.93602	-2.262545
H	1.449385	-0.56739	-2.115472
H	0.51534	-1.876152	-1.880767
C	-0.602636	1.200268	0.712414
H	-0.336639	1.168151	1.770523
H	-1.692165	1.222949	0.625136
H	-0.201466	2.131072	0.306518
Cl	3.467696	0.0	0.0
