16

C	-0.401102	0.033159	-1.465624
C	0.0	0.0	0.0
F	-1.587691	-0.625814	-1.66906
H	1.091287	0.0	0.0
H	-0.299522	-0.997139	0.342797
N	-0.676197	1.486739	-1.866909
O	-1.842173	1.866193	-1.916193
O	0.316595	2.180057	-2.054131
N	0.554929	-0.482446	-2.390902
H	1.495171	-0.312733	-2.03729
H	0.413098	-1.483995	-2.457319
C	-0.600843	1.075564	0.889959
H	-0.295172	0.902771	1.92338
H	-1.693367	1.082445	0.845243
H	-0.232344	2.062484	0.604883
Cl	3.450504	0.0	0.0
