15

C	-0.475783	-0.062504	-1.447387
C	0.0	0.0	0.0
Br	-2.397079	-0.274757	-1.616298
H	1.098358	0.0	0.0
H	-0.013128	-0.892489	-1.978511
N	-0.025672	1.173246	-2.184802
O	1.105934	1.085301	-2.650866
O	-0.760445	2.148584	-2.245432
N	-0.48567	-1.205484	0.698185
H	-0.003302	-1.204212	1.592842
H	-0.124917	-2.022363	0.209922
N	-0.457126	1.207293	0.632677
H	-1.36604	1.054291	1.055535
H	0.21357	1.495329	1.333555
Cl	3.404989	0.0	0.0
