15

C	-0.628293	-0.015354	-1.38676
C	0.0	0.0	0.0
Br	0.24857	1.183154	-2.615863
H	1.09602	0.0	0.0
H	-1.674982	0.27696	-1.328759
N	-0.641132	-1.376657	-2.020656
O	0.335092	-2.100069	-1.854607
O	-1.639899	-1.662506	-2.680344
N	-0.550192	-1.165116	0.722458
H	-0.297071	-1.027141	1.696765
H	-0.025608	-1.98292	0.422715
N	-0.435607	1.23999	0.61346
H	0.274378	1.562388	1.258497
H	-1.307714	1.084149	1.10909
Cl	3.465175	0.0	0.0
