15

C	-0.424601	-0.006225	-1.483622
C	0.0	0.0	0.0
Br	0.362237	-1.447751	-2.490413
H	1.099538	0.0	0.0
H	-0.129403	0.925955	-1.961731
N	-1.927145	-0.065251	-1.577707
O	-2.483993	1.015561	-1.351837
O	-2.502385	-1.121519	-1.789185
N	-0.615077	-1.147426	0.658618
H	-0.108722	-1.98623	0.391031
H	-0.451675	-1.001741	1.648803
N	-0.405258	1.196575	0.706716
H	-1.315175	1.524277	0.406377
H	0.288804	1.918823	0.560913
Cl	3.416162	0.0	0.0
