15

C	-0.347585	-0.046729	-1.485307
C	0.0	0.0	0.0
Br	-2.266311	-0.016835	-1.850021
H	1.106075	0.0	0.0
H	0.037008	-0.961261	-1.929717
N	0.264975	1.060479	-2.300547
O	0.781133	0.726707	-3.363564
O	0.188706	2.207284	-1.869637
N	-0.406173	-1.209379	0.684672
H	-1.368396	-1.443996	0.467052
H	0.212113	-1.97193	0.438763
N	-0.6288	1.116243	0.680268
H	-0.312682	1.053449	1.640886
H	-0.271623	1.980408	0.291472
Cl	3.402111	0.0	0.0
