15

C	-0.570468	0.02868	-1.426294
C	0.0	0.0	0.0
Br	0.166798	1.442261	-2.513052
H	1.098296	0.0	0.0
H	-1.647277	0.178055	-1.381554
N	-0.374557	-1.296211	-2.101264
O	0.718663	-1.583541	-2.563638
O	-1.358715	-2.042872	-2.058332
N	-0.43469	-1.174578	0.72636
H	-1.366524	-1.469635	0.462027
H	0.218491	-1.930155	0.572483
N	-0.559565	1.182553	0.667489
H	-0.404305	1.011101	1.655443
H	0.018786	1.979843	0.420692
Cl	3.435671	0.0	0.0
