15

C	-0.475471	0.030828	-1.452877
C	0.0	0.0	0.0
Br	0.392638	-1.286553	-2.557498
H	1.098913	0.0	0.0
H	-0.274365	1.01241	-1.873231
N	-1.977705	-0.146284	-1.502615
O	-2.460388	-1.25202	-1.705052
O	-2.618418	0.878172	-1.260457
N	-0.564279	-1.18499	0.661613
H	-0.268856	-2.015596	0.153762
H	-0.110194	-1.243248	1.568081
N	-0.412923	1.228174	0.64364
H	0.225689	1.426205	1.405191
H	-1.355948	1.127901	1.00546
Cl	3.443863	0.0	0.0
