15

C	-0.506725	-0.024841	-1.433369
C	0.0	0.0	0.0
Br	-2.443721	-0.266252	-1.51603
H	1.093928	0.0	0.0
H	-0.062239	-0.851752	-1.979419
N	-0.132421	1.229235	-2.179353
O	-0.880955	2.195877	-2.162821
O	0.960789	1.16655	-2.735826
N	-0.363913	-1.286235	0.594318
H	0.329938	-1.513735	1.295978
H	-1.273774	-1.228729	1.036073
N	-0.41684	1.220341	0.657306
H	-1.378495	1.168202	0.973345
H	0.193969	1.396211	1.444677
Cl	3.364779	0.0	0.0
