16

C	0.0	0.0	0.0
C	-0.589939	0.138124	-1.388881
Br	1.945359	0.0	0.0
H	-1.666533	0.35584	-1.274675
H	-0.31343	-0.974503	0.370793
C	-0.463198	1.112584	0.930194
H	-0.123956	0.892755	1.944022
H	-0.048847	2.072765	0.623271
H	-1.553442	1.148444	0.91127
N	-0.511502	-1.109642	-2.216851
O	0.021988	-2.10597	-1.738588
O	-1.034244	-1.030492	-3.323211
N	0.065974	1.228577	-2.17478
O	-0.270165	2.370376	-1.872258
O	0.912593	0.923915	-3.009036
Cl	-3.561333	0.0	0.0
