19

C	0.005606	0.011827	0.001208
C	-0.584088	-0.007773	-1.395645
Br	1.993966	-0.20493	-0.014833
H	-1.658521	0.224261	-1.201105
N	-0.193136	1.388849	0.658571
O	-0.615748	2.312298	-0.033836
O	0.076235	1.487775	1.850733
C	-0.639555	-1.005471	0.903325
H	-1.735031	-0.905943	0.743188
H	-0.329621	-2.007963	0.609539
H	-0.357833	-0.833174	1.94101
C	-0.579576	-1.417981	-1.965828
H	-0.901078	-1.371935	-3.011538
H	0.413886	-1.873948	-1.930901
H	-1.316421	-2.025925	-1.440588
N	0.097724	0.89914	-2.322189
H	-0.169149	1.846195	-2.086005
H	-0.269669	0.710202	-3.24773
H	-3.368969	-0.46663	-0.392953
