16

C	0.0	0.0	0.0
C	-0.403913	0.201515	-1.490621
F	1.389167	0.0	0.0
H	0.529213	-0.022289	-2.02332
H	-0.285418	0.863295	0.617535
N	-0.471408	-1.254419	0.510229
H	-0.251323	-1.306927	1.499724
H	-1.488554	-1.236424	0.436724
C	-0.783833	1.654375	-1.737363
H	-1.718577	1.879281	-1.217071
H	0.000749	2.328652	-1.377108
H	-0.936812	1.822952	-2.804913
N	-1.426065	-0.66935	-2.042502
H	-2.325881	-0.451691	-1.615275
H	-1.203491	-1.625643	-1.791245
Br	-4.086934	0.0	0.0
