16

C	0.0	0.0	0.0
C	-0.497537	-0.098155	-1.424364
F	1.424031	0.0	0.0
H	-1.577816	0.068985	-1.342789
H	-0.30479	0.960679	0.415546
N	-0.477284	-1.054635	0.81275
H	-2e-05	-1.919576	0.602632
H	-0.394171	-0.843434	1.795671
C	-0.251627	-1.478863	-2.029779
H	0.812423	-1.738975	-1.98861
H	-0.836478	-2.241999	-1.511579
H	-0.56261	-1.483414	-3.07802
N	0.097978	1.007664	-2.179282
H	-0.354631	1.070198	-3.083472
H	1.079013	0.803942	-2.33642
Br	-4.244098	0.0	0.0
