16

C	0.0	0.0	0.0
C	-0.53767	-0.187433	-1.418092
F	1.396755	0.0	0.0
H	-1.474353	-0.745147	-1.321494
H	-0.278744	0.994991	0.367252
N	-0.431392	-1.087103	0.83599
H	-1.450049	-1.0958	0.788204
H	-0.181025	-0.874634	1.795981
C	0.427488	-0.982763	-2.279102
H	-0.044345	-1.227958	-3.236605
H	0.700939	-1.912855	-1.779905
H	1.330922	-0.402499	-2.470011
N	-0.784242	1.137713	-2.004324
H	-1.639049	1.476614	-1.564608
H	-1.024364	1.002397	-2.982083
Br	-3.772199	0.0	0.0
