16

C	0.0	0.0	0.0
C	-0.340333	-0.261496	-1.467416
F	1.413407	0.0	0.0
H	0.183931	0.518042	-2.046302
H	-0.324682	0.998042	0.30428
N	-0.476391	-0.969209	0.923499
H	-0.51991	-1.860024	0.440657
H	-1.411134	-0.720751	1.227243
C	-1.824717	-0.184495	-1.741487
H	-2.02267	-0.315189	-2.810352
H	-2.255265	0.769396	-1.437125
H	-2.381861	-0.943127	-1.19407
N	0.156744	-1.606363	-1.782963
H	1.167197	-1.588455	-1.836914
H	-0.206232	-1.895736	-2.681732
Br	-4.907113	0.0	0.0
