17

C	0.0	0.0	0.0
C	-0.502088	0.204571	-1.460344
Br	1.965406	0.0	0.0
H	-1.557639	-0.09127	-1.404409
C	-0.369625	1.185319	0.785274
N	-0.566596	2.146499	1.432429
N	-0.465247	-1.169716	0.681345
H	-0.306562	-1.967361	0.075099
H	-1.480629	-1.045495	0.766908
N	0.175862	-0.790618	-2.350238
O	0.01411	-1.984061	-2.082808
O	0.854205	-0.380194	-3.291384
C	-0.368391	1.608557	-1.999581
H	-1.036406	2.253295	-1.430463
H	0.653663	1.977132	-1.92829
H	-0.676356	1.635375	-3.044983
Cl	-3.43532	0.0	0.0
