17

C	0.0	0.0	0.0
C	-0.529851	-0.021242	-1.45026
Br	1.968753	0.0	0.0
H	-1.597427	-0.255019	-1.348445
C	-0.329269	1.303888	0.612161
N	-0.525891	2.335866	1.141401
N	-0.475167	-1.135177	0.724836
H	-0.238166	-1.030964	1.705655
H	-1.499626	-1.113939	0.637659
N	0.082988	-1.172468	-2.190985
O	1.002166	-0.929613	-2.976962
O	-0.383211	-2.289072	-1.979024
C	-0.337356	1.271227	-2.21004
H	0.702788	1.598662	-2.204293
H	-0.6499	1.133282	-3.246072
H	-0.973798	2.033985	-1.759914
Cl	-3.479638	0.0	0.0
