20

C	-0.342448	0.019058	-1.492575
C	0.0	0.0	0.0
F	-0.136571	-1.31067	-1.989471
H	1.099694	0.0	0.0
C	-1.787212	0.32661	-1.841671
H	-2.459351	-0.378483	-1.346709
H	-2.04624	1.344958	-1.550467
H	-1.924193	0.224166	-2.922611
N	0.540406	0.925042	-2.143113
H	1.497181	0.747942	-1.839168
H	0.483446	0.808524	-3.148045
C	-0.512634	-1.236708	0.722111
H	-0.120853	-2.145081	0.265773
H	-0.182444	-1.210592	1.764773
H	-1.608782	-1.285055	0.717563
C	-0.459349	1.281663	0.689967
H	-0.149897	2.159872	0.120352
H	-1.548149	1.306884	0.818555
H	-0.001304	1.345282	1.680723
Cl	3.561784	0.0	0.0
