20

C	-0.406267	-0.052289	-1.472472
C	0.0	0.0	0.0
F	-0.044232	1.203832	-2.04609
H	1.096712	0.0	0.0
C	0.376582	-1.083285	-2.258417
H	0.176945	-0.951656	-3.326938
H	0.087651	-2.094351	-1.968468
H	1.442634	-0.938187	-2.069617
N	-1.818982	-0.240217	-1.64139
H	-2.037355	-0.185482	-2.63033
H	-2.308328	0.517093	-1.178105
C	-0.456949	-1.2474	0.753146
H	-0.087552	-1.203052	1.781511
H	-1.547452	-1.330118	0.770378
H	-0.051448	-2.157268	0.306133
C	-0.492913	1.264381	0.697353
H	-1.584924	1.274431	0.814895
H	-0.186905	2.156348	0.15097
H	-0.056055	1.316464	1.69796
Cl	3.610026	0.0	0.0
