20

C	-0.381443	-0.000941	-1.485708
C	0.0	0.0	0.0
F	-0.05875	-1.276262	-1.981604
H	1.099832	0.0	0.0
C	-1.859577	0.184075	-1.77675
H	-2.005908	0.108968	-2.855887
H	-2.437005	-0.602406	-1.287612
H	-2.225982	1.153702	-1.433028
N	0.396726	0.926648	-2.271624
H	0.048205	1.867518	-2.135074
H	1.36201	0.894137	-1.945187
C	-0.490666	-1.229162	0.755799
H	-0.073103	-1.227636	1.766576
H	-1.584137	-1.24811	0.842919
H	-0.162457	-2.142262	0.260107
C	-0.449735	1.279547	0.701213
H	-0.126446	2.173623	0.161931
H	0.005102	1.326357	1.693802
H	-1.538094	1.319952	0.826297
Cl	3.561739	0.0	0.0
