17

C	-0.623176	-0.010683	-1.417833
C	0.0	0.0	0.0
F	0.233371	-0.678487	-2.226037
H	1.08858	0.0	0.0
N	-1.918706	-0.522877	-1.614855
H	-2.591152	0.001075	-1.070852
H	-1.9284	-1.503609	-1.368877
N	-0.599572	1.457009	-1.899603
O	-1.59848	1.91612	-2.435212
O	0.470867	2.026988	-1.724864
N	-0.39516	-1.239288	0.738907
O	-0.338378	-2.283182	0.093578
O	-0.690682	-1.139798	1.925399
N	-0.528308	1.142444	0.796447
O	-1.716518	1.429007	0.607369
O	0.223653	1.689856	1.589159
Br	3.317953	0.0	0.0
