17

C	-0.460139	0.000327	-1.457637
C	0.0	0.0	0.0
F	0.058728	1.081114	-2.087351
H	1.088892	0.0	0.0
N	-0.04896	-1.162643	-2.114514
H	-0.665787	-1.935898	-1.914908
H	0.012686	-0.995602	-3.108899
N	-2.010247	0.244433	-1.579422
O	-2.629663	-0.464495	-2.364005
O	-2.46771	1.175319	-0.926577
N	-0.483837	-1.217958	0.697221
O	0.100032	-1.531061	1.725124
O	-1.450329	-1.810284	0.204368
N	-0.449304	1.188395	0.797679
O	-1.22167	0.999364	1.732109
O	0.021776	2.257669	0.439142
Br	3.319038	0.0	0.0
