18

C	-0.347412	0.025834	-1.48542
C	0.0	0.0	0.0
F	-0.168827	-1.278534	-2.014008
H	1.096668	0.0	0.0
N	-1.73238	0.346423	-1.699122
H	-1.897816	1.147753	-1.095178
H	-1.854241	0.642807	-2.661808
N	0.580488	0.918243	-2.115507
H	0.550186	0.780918	-3.12046
H	1.523884	0.692249	-1.781376
C	-0.602906	-1.174908	0.730985
H	-1.695867	-1.116855	0.721955
H	-0.294058	-2.108194	0.261248
H	-0.24913	-1.183827	1.768037
N	-0.474205	1.27708	0.583065
H	0.264681	1.951398	0.397198
H	-0.496197	1.164088	1.591904
H	3.024287	0.0	0.0
