18

C	-0.395748	0.057449	-1.473366
C	0.0	0.0	0.0
F	-0.165017	-1.227463	-2.028915
H	1.104168	0.0	0.0
N	-1.791171	0.323106	-1.76654
H	-2.306169	-0.515598	-1.521295
H	-2.070743	1.042989	-1.106346
N	0.411996	1.045343	-2.084299
H	0.252233	1.047381	-3.083475
H	1.390697	0.862145	-1.858301
C	-0.546119	-1.205744	0.73055
H	-1.641725	-1.192876	0.760151
H	-0.202996	-2.124347	0.254615
H	-0.178063	-1.206758	1.761546
N	-0.513798	1.242461	0.621627
H	-0.17227	1.244093	1.578885
H	-0.015902	2.000621	0.160731
H	3.041004	0.0	0.0
