13
Coordinates from ORCA-job run
  C   0.80774648736541      0.45466998688755      0.16363932875454
  C   -0.52030301217415     -0.22505542465870      0.52164034890590
  F   1.65678831886279      0.40253674509267      1.21698455789378
  H   -0.25032857623565     -1.20032128661984      0.94115723894287
  H   0.70068840326304      1.48153219740077     -0.18773218337805
  N   1.40149874260059     -0.32967333741117     -0.97288873389990
  O   1.82266062947108     -1.44847851753402     -0.70007571353872
  O   1.35171920851920      0.19281544648683     -2.08347494589791
  N   -1.43643893331868     -0.42984823717287     -0.57693553788625
  H   -1.62165466501813      0.42407962411945     -1.08669099264010
  H   -1.10159878502878     -1.14014705079403     -1.21342185649852
  C   -1.15679521026364      0.57218087426815      1.57813746573028
  N   -1.65398260804307      1.24670897993521      2.39966102351208
