13
Coordinates from ORCA-job run
  C   0.71118812452340     -0.25181989095687     -0.58651186970496
  C   -0.44192788984090     -0.30169857442796      0.40421296275082
  F   0.28415004275898      0.22194727475527     -1.77847446326752
  H   -0.03854466300814     -0.68593043362303      1.34431944778463
  H   1.15765314727540     -1.23866125925753     -0.71110932375600
  N   1.78805796205466      0.65650678510503     -0.04491154171722
  O   2.04392138622782      1.68542948534044     -0.65027005424159
  O   2.29986516348421      0.25082141320318      0.99435038853137
  N   -1.42127104136459     -1.24124857766027     -0.11084124404993
  H   -2.12554839093205     -1.43428559132302      0.58996073455978
  H   -1.88394610401924     -0.84996865495473     -0.92267520105694
  C   -0.95701829353731      1.06263145483051      0.64316706639853
  N   -1.41757944362226      2.12727656896896      0.82778309776902
