13
Coordinates from ORCA-job run
  C   0.87762838261842      0.25340426465881      0.34444908678910
  C   -0.47959225688980     -0.42492312251079      0.27297452825652
  F   1.74907706660994     -0.46479823300094      1.10273376229446
  H   -0.31191019728617     -1.45883959992144     -0.04813347170980
  H   0.81566908426036      1.28083417965693      0.69997148624909
  N   1.45671169721139      0.31580748503692     -1.04577134431031
  O   2.14771014608527      1.29451724656009     -1.30538036205534
  O   1.23049632605886     -0.63940713603445     -1.78594037283240
  N   -1.29387344135406      0.35041607170557     -0.65995136327905
  H   -1.33375445437746     -0.12118051923580     -1.55325569070595
  H   -2.23402807893339      0.48437591035369     -0.31550944152464
  C   -1.06587104122771     -0.44298286698027      1.61422734876266
  N   -1.55826323277564     -0.42822368028832      2.67958583406565
