13
Coordinates from ORCA-job run
  C   0.77777732143584      0.58711511814519      0.02267662472161
  C   -0.43142651685295     -0.18968175725279      0.51339171899229
  F   1.66625103953069      0.80604065426645      1.02874427339562
  H   -0.06155553135522     -1.08706272470158      1.02164929012538
  H   0.50658830199436      1.52406672874662     -0.46157004841541
  N   1.49209033227019     -0.23912424222075     -1.01712495329900
  O   2.05238238562762      0.38072051066916     -1.91427631397848
  O   1.50207970696723     -1.45741150023940     -0.85094308918757
  N   -1.25531617943055     -0.47928542423791     -0.65725146665143
  H   -1.10692568173927     -1.43483645673508     -0.95232091821883
  H   -2.23795137522491     -0.34246261018994     -0.46704757553352
  C   -1.15089894023356      0.63278638704255      1.48789466527753
  N   -1.75309486298946      1.29713531670746      2.24517779277182
