12
Coordinates from ORCA-job run
  C   -0.49359064087396      0.27204805598174     -0.26768225301327
  C   0.97090048949070     -0.10433094119884     -0.46375734896505
  F   -1.27562349961024     -0.37410234190781     -1.15391073047867
  H   1.27000912247807      0.20945694707003     -1.46771939831684
  H   1.57964739763655      0.43207809064857      0.26694715633960
  N   -0.90989359415616     -0.16452406845201      1.14890915763484
  O   -0.29199753815945      0.39625974254876      2.04333490647832
  O   -1.77316601157094     -1.01871916630846      1.23669120330610
  C   -0.69826985062888      1.71960315288147     -0.36047462272885
  N   -0.83594020370596      2.88120788677463     -0.46877759053762
  C   1.15534750529480     -1.54575732547926     -0.31826333331255
  N   1.30157682380547     -2.70322003255882     -0.19429714640600
