12
Coordinates from ORCA-job run
  C   -0.64670374775362      0.12960267423565     -0.27470626712041
  C   0.59296495796837     -0.63139024067121     -0.73066682019763
  F   -1.69863715618777     -0.28428931528029     -1.02189505196304
  H   0.76379816179275     -0.39677184248178     -1.78494849035378
  H   0.36506174632618     -1.69794055433056     -0.64465522241264
  N   -0.93425754369654     -0.27249748410062      1.17941325154519
  O   -0.59969602637371      0.52031349057206      2.04890221108240
  O   -1.42504963785438     -1.38295779231776      1.31339589781325
  C   -0.50810872774934      1.58292969168161     -0.35593907469999
  N   -0.38928319973215      2.74309111649386     -0.49833834193981
  C   1.76656653950007     -0.28900940596123      0.06446232250138
  N   2.71334463376013     -0.01908033783973      0.70297558574506
