12
Coordinates from ORCA-job run
  C   -0.55189412972587      0.12424524554624     -0.26243307456678
  C   0.93867277053150     -0.04328502076605     -0.53518407871055
  F   -1.26522591931659     -0.81567386986445     -0.91200809811469
  H   1.10473747328935      0.09214210113162     -1.60752374745613
  H   1.49059741418016      0.72857857664445      0.00513691252137
  N   -0.78057003547306     -0.05781456651161      1.24938013410715
  O   -1.46193507239848     -1.00424908501693      1.59928874823830
  O   -0.21665516762886      0.77875565314823      1.94108878154031
  C   -1.02222671432925      1.46463740957557     -0.62054802845796
  N   -1.38457414547817      2.52900548981289     -0.96099559830240
  C   1.39093801850403     -1.36982494802740     -0.12442022168766
  N   1.75913550784524     -2.42651698567258      0.22821827088903
