12
Coordinates from ORCA-job run
  C   -0.55079976361720      0.14220486907307     -0.24677451554293
  C   0.93503307681745     -0.01791578372517     -0.54812046331829
  F   -1.27806094695326     -0.75829531887586     -0.93550322487694
  H   1.49790550519118      0.72225192589611      0.02434673417290
  H   1.08790001178104      0.17277953176678     -1.61401819858210
  N   -0.76023580282679     -0.11872476394994      1.25621145655290
  O   -1.44089368430537     -1.08001347175494      1.56455323185892
  O   -0.18409778031625      0.67832228036757      1.98356472063827
  C   -1.02090166753965      1.50130672930863     -0.52639463945003
  N   -1.41619594915943      2.57412455890454     -0.79631960345266
  C   1.38537746843334     -1.36687692972544     -0.21581152068044
  N   1.74596953249503     -2.45016362728535      0.05426602268040
