12
Coordinates from ORCA-job run
  C   -0.55565464992198      0.11925381066854     -0.26477097543826
  C   0.94395981407644      0.01568063793617     -0.52072292150971
  F   -1.22707496829307     -0.80600340309706     -0.97712711896878
  H   1.46096542023395      0.77427194650434      0.07047382640637
  H   1.12225756422300      0.21534623865255     -1.58097398846611
  N   -0.80184797278787     -0.15409834036216      1.23068338526517
  O   -0.27063356227016      0.65534935391481      1.97806022265914
  O   -1.46470664646239     -1.13502977037945      1.51463943023010
  C   -1.06019285324492      1.46319871522007     -0.55652463210364
  N   -1.40200466202869      2.55656025984518     -0.81741572126856
  C   1.43282109936402     -1.31682937595880     -0.17741261943838
  N   1.82311141711168     -2.38770007294420      0.10109111263264
