12
Coordinates from ORCA-job run
  C   -0.57795052074649      0.12368781937098     -0.19891784013474
  C   0.86036010087385     -0.11341377947578     -0.64558826737093
  F   -1.39191556009571     -0.83611604378576     -0.67911485430820
  H   1.49568706216539      0.67718006319059     -0.24109305496578
  H   0.88947064731170     -0.06296931231658     -1.73756970944372
  N   -0.61364033178386      0.05894960913564      1.33939579553696
  O   0.05877781870334      0.92059265384084      1.88852761077247
  O   -1.27087574906346     -0.83338190562947      1.84346776810586
  C   -1.05736144851613      1.45022714177717     -0.59437294837455
  N   -1.42568126118631      2.50795057526522     -0.94883759229376
  C   1.32924770781512     -1.42153113528007     -0.19625605439580
  N   1.70488153452256     -2.47117568609279      0.16935914687216
