12
Coordinates from ORCA-job run
  C   -0.53046707620369      0.00329755137970     -0.09609803735270
  C   0.91325461903465     -0.47998863222563     -0.00540300879369
  F   -1.23670957150575     -0.77419425914420     -0.93919599036977
  H   1.45021525952989      0.12514673531005      0.72820417453606
  H   0.89584922582222     -1.51901548894784      0.33927715406346
  N   -1.13336960885983     -0.14744633796666      1.31329661551444
  O   -2.02052136829021     -0.97112234404099      1.45106046339562
  O   -0.62412646346424      0.57471603061503      2.15914842513077
  C   -0.64496362369516      1.41194416017277     -0.47764890871328
  N   -0.71699131586533      2.53822626668408     -0.80420223540773
  C   1.56376487443205     -0.40518144713778     -1.30930306624280
  N   2.08306504906531     -0.35538223469853     -2.36013558576034
