12
Coordinates from ORCA-job run
  C   -0.65103299350687      0.13510391774698     -0.26145877750203
  C   0.57721457358608     -0.62555887808649     -0.74788695337975
  F   -1.71785541707772     -0.26615520554194     -0.99434101027741
  H   0.34687615779429     -1.69219650171835     -0.66977118111551
  H   0.73005827583538     -0.37988138630949     -1.80242520192476
  N   -0.91430647347131     -0.28180096624410      1.19297812347468
  O   -1.40814132433841     -1.39129588630004      1.32376989311485
  O   -0.55992287602171      0.49971617252699      2.06480699541344
  C   -0.50785394928796      1.58869650400641     -0.32912896087302
  N   -0.38744094327658      2.74981309367281     -0.46204811478649
  C   1.76625330174933     -0.29626614176308      0.02966522089921
  N   2.72515166801550     -0.03817472198970      0.65483996695681
