12
Coordinates from ORCA-job run
  C   -0.52625856913474      0.12758568905869     -0.30869612298216
  C   0.99177232125203      0.05445758204271     -0.42817996545930
  F   -1.11368731663808     -0.76721036019039     -1.12635700997057
  H   1.44009843184824      0.78777173893676      0.24521523401851
  H   1.26379166354848      0.30933254190271     -1.45624193839892
  N   -0.90587347357075     -0.22472568861206      1.14173211502335
  O   -0.45937051676722      0.55180004137807      1.97465627077735
  O   -1.57563285966445     -1.22693198597409      1.31362643701392
  C   -1.02753727775903      1.47744045025085     -0.57832596867215
  N   -1.40362010337898      2.56185801147144     -0.82868689726496
  C   1.46850850533723     -1.28800633767063     -0.10652888127394
  N   1.84980919492728     -2.36537168259400      0.15878672718889
