12
Coordinates from ORCA-job run
  C   -0.65609558565164      0.13434296593239     -0.24765710340244
  C   0.54435716109429     -0.67033263600167     -0.73249803845800
  F   -1.75037413268803     -0.28081036752129     -0.93044779860459
  H   0.67045190115533     -0.47671386361129     -1.80132483196963
  H   0.29827261629406     -1.72779364192994     -0.59787297892509
  N   -0.88366985557233     -0.20957157575791      1.23160837102661
  O   -0.48678585204811      0.60369090321797      2.05480821520797
  O   -1.39574594686060     -1.30074426990046      1.42897541495995
  C   -0.49056864189722      1.58045883748367     -0.38729172120355
  N   -0.35668915095763      2.73066754270069     -0.58600146170130
  C   1.76141148967375     -0.32710219925933     -0.00597562858218
  N   2.74443599745810     -0.05609169535284      0.57467756165223
