12
Coordinates from ORCA-job run
  C   -0.52515390481374      0.02916833734153     -0.11571975116240
  C   0.89043777685629     -0.52202160560466      0.02141242028918
  F   -1.23389460509541     -0.70353507931971     -0.99622912240048
  H   0.81233171532572     -1.56222326387015      0.35390696073435
  H   1.42840501519450      0.05075877259494      0.77979360488312
  N   -1.18758552972302     -0.11147040419168      1.26784563331799
  O   -2.11633426257721     -0.89448792372287      1.36063365691494
  O   -0.67361793690103      0.57059939926286      2.14359447132653
  C   -0.56066268227272      1.44665485561114     -0.47974097099391
  N   -0.57309731631217      2.57996568474541     -0.78927208812249
  C   1.58977061382055     -0.46483522682703     -1.25809984523189
  N   2.15140111649822     -0.41757354601979     -2.28712496955496
