12
Coordinates from ORCA-job run
  C   -0.55025103781581      0.12789984387991     -0.26654016494378
  C   0.94745893057907      0.00058006167834     -0.52166709017866
  F   -1.23585647595354     -0.78897776938758     -0.97603544140940
  H   1.12838396638045      0.19080716355143     -1.58326295952739
  H   1.47580355745070      0.75524605319917      0.06452973988533
  N   -0.80063014756363     -0.13687017405825      1.23002281792491
  O   -0.25877987611532      0.66839379752461      1.97437722776339
  O   -1.47589077536641     -1.10826421891402      1.51760990467148
  C   -1.03749604030744      1.47754540790032     -0.56115214801117
  N   -1.40338508737268      2.56103998663576     -0.83025808072845
  C   1.41707279351041     -1.33667121456989     -0.16933370471096
  N   1.79157019257417     -2.40972893743983      0.12170989926470
