12
Coordinates from ORCA-job run
  C   -0.56290388904223      0.12173062629220     -0.24311083900327
  C   0.91931010619907     -0.03402096634756     -0.56473303813202
  F   -1.29055943740101     -0.82002951311400     -0.87368701036536
  H   1.48267063190917      0.73966263620734     -0.03912077294461
  H   1.04975642580444      0.10704635761264     -1.64127606144476
  N   -0.74147899696803     -0.06944733477570      1.27466882414730
  O   -1.40885906846478     -1.01975888946961      1.64078239915334
  O   -0.15267355147440      0.76089389229751      1.95292138351714
  C   -1.05128716911493      1.46153736959142     -0.57824642435509
  N   -1.40475467291048      2.54039971523098     -0.88025516251811
  C   1.39276932092462     -1.36024111212613     -0.17773603626621
  N   1.77001030053851     -2.42777278139907      0.12979273821162
