12
Coordinates from ORCA-job run
  C   -0.52954049811318      0.24332845860273     -0.22745607031830
  C   0.88040784111529     -0.21223821614713     -0.58698929493475
  F   -1.45079448592447     -0.50718600152634     -0.86175667283213
  H   1.01837760171395     -0.07310374455741     -1.66282039964292
  H   1.60373085779879      0.41118574404591     -0.05744858395647
  N   -0.71695885112625      0.05364498622707      1.28938027417425
  O   -1.56523611439507     -0.74198318882919      1.64967199780771
  O   0.04281905274971      0.72651999852849      1.97208257465321
  C   -0.72959037446177      1.66435532914683     -0.52184716418040
  N   -0.84429292977399      2.80206624232998     -0.79131897520128
  C   1.07036187151564     -1.61803518290004     -0.24000406319158
  N   1.22071602890132     -2.74755442492093      0.03950637762270
