12
Coordinates from ORCA-job run
  C   -0.65508342854372      0.15072564921591     -0.24263511934724
  C   0.54176295861649     -0.63471668335682     -0.76613227134164
  F   -1.75048993160589     -0.22330162238059     -0.94719708319025
  H   0.28987723008986     -1.69627904873853     -0.68575498308445
  H   0.67012752748537     -0.38770002455955     -1.82359655018585
  N   -0.88724883334136     -0.26721216401820      1.21698285590185
  O   -0.49070396350303      0.50184102287043      2.08165196352912
  O   -1.40231125364643     -1.36586063793523      1.35699077291129
  C   -0.48142755488909      1.60111659967391     -0.30774316578756
  N   -0.33569764924423      2.75966250598334     -0.43767551641518
  C   1.75911199517639     -0.33607816834329     -0.02081137323478
  N   2.74108290340563     -0.10319742841137      0.57792047024467
