12
Coordinates from ORCA-job run
  C   -0.50207638674978      0.09340441938475     -0.16672741021623
  C   0.86290333290513     -0.57015293385828     -0.01762663881477
  F   -1.10584290773790     -0.31799915046227     -1.29820893024589
  H   0.70697214157507     -1.65377420627178     -0.00846566862702
  H   1.30758791812644     -0.27049683779273      0.93373436627248
  N   -1.35229189250270     -0.37745740269362      1.02859697443430
  O   -0.94643250577798      0.00540875116380      2.11719253025246
  O   -2.31322016098672     -1.08434073223110      0.78100361326755
  C   -0.44456489960287      1.55534244276382     -0.11812825306375
  N   -0.39010260367337      2.72888897013012     -0.10593083101413
  C   1.73596067843942     -0.20595769134554     -1.12856810498348
  N   2.44110728598522      0.09713437121288     -2.01587164726146
