17

C	-0.488899	-0.040752	-1.439354
C	0.0	0.0	0.0
Br	0.074273	1.94689	-2.183165
H	1.086086	0.0	0.0
N	0.26089	-0.985542	-2.12427
H	1.258549	-0.884219	-1.943836
H	0.065171	-1.004884	-3.116702
N	-1.872997	-0.180699	-1.584387
H	-2.343852	0.544955	-1.057831
H	-2.151273	-0.140004	-2.556827
N	-0.469592	-1.251797	0.706593
O	-1.479304	-1.163535	1.404129
O	0.193437	-2.260742	0.508819
N	-0.504411	1.127916	0.833236
O	-1.578397	1.65455	0.544795
O	0.184836	1.403591	1.808596
Br	3.35826	0.0	0.0
