17

C	-0.487343	0.009368	-1.452291
C	0.0	0.0	0.0
Br	0.24353	-1.620889	-2.404867
H	1.088039	0.0	0.0
N	-1.90836	-0.133626	-1.5614
H	-2.179034	-0.267352	-2.5269
H	-2.33829	0.697136	-1.172721
N	0.080337	1.192846	-2.004411
H	1.091892	1.191359	-1.876928
H	-0.133272	1.263685	-2.991608
N	-0.526696	-1.142114	0.812244
O	-1.409878	-0.898277	1.632876
O	-0.024051	-2.235827	0.597535
N	-0.442755	1.246922	0.719837
O	0.323276	1.647983	1.590134
O	-1.526102	1.756784	0.440997
Br	3.366053	0.0	0.0
