17

C	-0.576609	-0.009685	-1.423128
C	0.0	0.0	0.0
Br	0.382334	-1.372428	-2.458772
H	1.086344	0.0	0.0
N	-1.962638	-0.414506	-1.397007
H	-2.323268	-0.436475	-2.343539
H	-2.481326	0.266067	-0.851559
N	-0.22116	1.262351	-2.02453
H	-0.943926	1.941418	-1.825369
H	-0.077651	1.168664	-3.019252
N	-0.501322	-1.169995	0.795954
O	0.053579	-2.238722	0.58447
O	-1.43837	-0.977168	1.570998
N	-0.452183	1.208807	0.763492
O	0.19519	1.477752	1.765755
O	-1.448075	1.827408	0.37469
Br	3.40605	0.0	0.0
