16

C	0.0	0.0	0.0
C	-0.395794	-0.060848	-1.509266
F	1.368304	0.0	0.0
H	0.460768	-0.539315	-2.001055
C	-0.368028	1.291903	0.649359
N	-0.564606	2.281534	1.251724
N	-0.505295	-1.14113	0.685204
H	-0.314165	-1.020787	1.675987
H	-1.527507	-1.111542	0.569724
N	-0.258721	1.403789	-2.081208
O	-1.210208	1.868041	-2.701346
O	0.827236	1.960763	-1.930113
N	-1.610817	-0.676852	-1.777575
H	-1.876852	-0.551734	-2.74554
H	-2.385624	-0.335772	-1.110628
H	-3.208642	0.0	0.0
