16

C	0.0	0.0	0.0
C	-0.487299	-0.042924	-1.444827
F	1.391026	0.0	0.0
H	-1.591674	-0.007268	-1.365339
C	-0.335275	1.345191	0.564423
N	-0.46601	2.369974	1.125051
N	-0.54531	-1.085904	0.718204
H	-0.35815	-0.949853	1.707625
H	-1.585816	-0.944502	0.579728
N	-0.119694	-1.409485	-2.009929
O	0.988517	-1.510516	-2.546769
O	-0.945395	-2.31238	-1.93224
N	0.078656	1.021072	-2.198831
H	-0.371624	1.093232	-3.100837
H	1.068536	0.856324	-2.330198
H	-2.927794	0.0	0.0
