15

C	-0.296723	-0.006143	-1.478371
C	0.0	0.0	0.0
Cl	-2.066625	-0.163308	-1.826334
H	1.095285	0.0	0.0
H	0.161293	-0.907255	-1.884
C	0.264095	1.238748	-2.130118
H	0.172954	1.177183	-3.215194
H	1.319936	1.307641	-1.850399
H	-0.260682	2.129992	-1.782822
N	-0.365891	-1.241667	0.671819
O	-0.22707	-2.283075	0.020229
O	-0.656872	-1.197436	1.873373
C	-0.510226	1.156066	0.698465
N	-0.863402	2.155733	1.208572
H	2.450334	0.0	0.0
