15

C	-0.400219	0.279696	-1.449755
C	0.0	0.0	0.0
Cl	0.4753	-0.7308	-2.646351
H	1.091396	0.0	0.0
H	-0.034426	1.292076	-1.641018
C	-1.892159	0.192537	-1.707739
H	-2.119199	0.494135	-2.733464
H	-2.422753	0.855601	-1.01884
H	-2.235451	-0.832542	-1.562504
N	-0.518966	-1.225915	0.566636
O	-0.860104	-1.230452	1.766043
O	-0.487483	-2.237879	-0.152814
C	-0.417309	1.128312	0.810459
N	-0.680198	2.118775	1.389908
H	2.399578	0.0	0.0
