15

C	-0.462258	-0.199603	-1.451627
C	0.0	0.0	0.0
Cl	-0.464099	1.393576	-2.29219
H	1.09157	0.0	0.0
H	-1.499414	-0.540163	-1.469809
C	0.449431	-1.142742	-2.219132
H	1.47842	-0.788131	-2.14815
H	0.394662	-2.135879	-1.774331
H	0.136721	-1.195794	-3.264318
N	-0.37843	-1.130432	0.844143
O	-0.178467	-1.012448	2.059309
O	-0.756725	-2.180556	0.296443
C	-0.461556	1.216467	0.634648
N	-0.80691	2.217364	1.146924
H	2.458631	0.0	0.0
