15

C	-0.293964	0.02037	-1.478353
C	0.0	0.0	0.0
Cl	-2.061054	-0.128309	-1.835866
H	1.095304	0.0	0.0
H	0.16513	-0.873582	-1.898897
C	0.270216	1.275073	-2.107533
H	1.325577	1.334264	-1.824707
H	-0.253361	2.161739	-1.745735
H	0.180358	1.232653	-3.193892
N	-0.367559	-1.253037	0.650645
O	-0.235613	-2.283444	-0.019366
O	-0.652245	-1.228413	1.853648
C	-0.508039	1.142979	0.720146
N	-0.845953	2.131771	1.260799
H	2.449583	0.0	0.0
