15

C	-0.442004	-0.154605	-1.464979
C	0.0	0.0	0.0
Cl	-0.324788	1.460898	-2.26
H	1.09157	0.0	0.0
H	-1.497348	-0.429846	-1.515114
C	0.428457	-1.126278	-2.24664
H	0.189766	-1.062263	-3.311016
H	1.477721	-0.881252	-2.082025
H	0.240266	-2.13857	-1.894256
N	-0.386229	-1.144479	0.817614
O	-0.256167	-1.02611	2.040929
O	-0.701734	-2.201666	0.24572
C	-0.467852	1.205901	0.650032
N	-0.817682	2.20306	1.166278
H	2.451433	0.0	0.0
