15

C	0.0	0.0	0.0
C	-0.365738	-0.332968	-1.451594
Cl	1.851029	0.0	0.0
H	0.193548	0.347666	-2.097787
H	0.029167	-1.339043	-1.633232
C	-0.341881	1.389878	0.327318
N	-0.592549	2.511193	0.570898
N	-0.541634	-0.921109	0.932558
H	-1.064304	-0.476972	1.673806
H	-1.139493	-1.593932	0.473788
C	-1.856335	-0.256798	-1.747901
H	-2.277846	0.720074	-1.509405
H	-2.463862	-0.964796	-1.187679
H	-2.015698	-0.444817	-2.812559
Br	-4.873381	0.0	0.0
