15

C	0.0	0.0	0.0
C	-0.545062	-0.006556	-1.418679
Cl	1.851169	0.0	0.0
H	-1.634119	-0.081376	-1.285644
H	-0.180629	-0.923323	-1.897407
C	-0.307744	1.264015	0.693079
N	-0.502287	2.270502	1.26563
N	-0.512176	-1.078646	0.732317
H	-0.107702	-1.208225	1.645841
H	-0.599502	-1.932294	0.204841
C	-0.184982	1.217962	-2.244157
H	-0.618927	1.124624	-3.242326
H	-0.600009	2.119768	-1.789401
H	0.895703	1.340626	-2.346792
Br	-4.025674	0.0	0.0
