15

C	0.0	0.0	0.0
C	-0.341431	0.179576	-1.598015
Cl	1.795515	0.0	0.0
H	0.163208	-0.710376	-1.982026
H	0.304681	1.025219	-1.876464
C	-0.398029	1.153304	0.85309
N	-0.459559	2.145493	1.480605
N	-0.281195	-1.326724	0.529441
H	0.156884	-1.414812	1.445646
H	-1.279632	-1.49177	0.633142
C	-1.584991	0.247924	-2.557788
H	-1.043041	0.006422	-3.525743
H	-2.175763	1.196846	-2.580646
H	-2.331192	-0.57039	-2.489272
Br	-3.229691	0.0	0.0
