17

C	0.0	0.0	0.0
C	-0.373701	0.169506	-1.514832
F	1.3816	0.0	0.0
H	0.603913	0.086223	-2.002419
N	-0.411787	1.149445	0.761095
H	-1.434029	1.139822	0.739714
H	-0.131256	0.995004	1.725284
N	-0.401573	-1.302035	0.460836
H	-1.42223	-1.321781	0.417468
H	-0.13461	-1.387763	1.437271
C	-0.976318	1.519248	-1.911063
H	-0.33691	2.325166	-1.550924
H	-1.973496	1.622455	-1.48693
H	-1.048919	1.573688	-3.000962
C	-1.145775	-0.938818	-2.087092
N	-1.658631	-1.796209	-2.703874
Cl	-3.482117	0.0	0.0
