17

C	0.0	0.0	0.0
C	-0.360647	0.265988	-1.472116
F	1.431707	0.0	0.0
H	0.274029	1.108449	-1.765219
N	-0.411092	1.104242	0.814192
H	-1.417474	1.043662	0.94819
H	0.043179	1.030369	1.717283
N	-0.493816	-1.250728	0.435954
H	-0.094029	-2.023634	-0.078331
H	-0.371255	-1.378905	1.43041
C	-1.832634	0.613818	-1.691768
H	-2.050283	0.668128	-2.760636
H	-2.047116	1.588862	-1.25441
H	-2.512955	-0.101182	-1.227523
C	0.042936	-0.890569	-2.273627
N	0.337377	-1.840284	-2.900534
Cl	-4.802561	0.0	0.0
