17

C	0.0	0.0	0.0
C	-0.177116	0.189085	-1.552461
F	1.429507	0.0	0.0
H	0.450176	1.060497	-1.763176
N	-0.494667	1.146793	0.680131
H	-1.508234	1.161349	0.541237
H	-0.345222	0.984724	1.671888
N	-0.428299	-1.224733	0.585154
H	-0.129443	-2.017863	0.029401
H	-1.446704	-1.207027	0.627655
C	-1.553889	0.415487	-2.165271
H	-2.214254	-0.434146	-2.021144
H	-2.047239	1.270229	-1.708862
H	-1.433613	0.610308	-3.235183
C	0.457048	-0.960109	-2.206361
N	0.929873	-1.904576	-2.720418
Cl	-3.834769	0.0	0.0
