17

C	0.0	0.0	0.0
C	-0.329137	0.488038	-1.435944
F	1.405245	0.0	0.0
H	0.180456	1.454186	-1.554485
N	-0.511322	0.92042	0.943233
H	-0.08957	1.831575	0.82929
H	-0.351652	0.56971	1.878264
N	-0.461955	-1.298067	0.362815
H	-1.474384	-1.259365	0.455876
H	-0.21458	-1.977889	-0.345887
C	-1.821405	0.645693	-1.715529
H	-2.286771	1.295318	-0.97701
H	-1.969166	1.055919	-2.718417
H	-2.358183	-0.299093	-1.644407
C	0.297062	-0.431559	-2.390852
N	0.768791	-1.183045	-3.160044
Cl	-4.646912	0.0	0.0
