17

C	0.0	0.0	0.0
C	-0.452513	0.175931	-1.45619
F	1.426183	0.0	0.0
H	-1.548179	0.240716	-1.391097
N	-0.402803	1.152965	0.751224
H	0.272351	1.901656	0.65131
H	-0.555846	0.928899	1.724804
N	-0.492649	-1.235273	0.497966
H	-0.197845	-1.344933	1.463222
H	-1.51692	-1.161099	0.472355
C	-0.015024	-0.974389	-2.363208
H	1.072879	-1.066373	-2.362648
H	-0.446478	-1.902543	-1.991868
H	-0.358355	-0.802532	-3.38567
C	0.05566	1.450878	-1.962317
N	0.497355	2.45137	-2.39066
Cl	-3.64748	0.0	0.0
