17

C	0.0	0.0	0.0
C	-0.457073	-0.131333	-1.468365
F	1.407851	0.0	0.0
H	-1.555791	-0.105585	-1.402194
N	-0.462184	1.231742	0.52173
H	-0.27004	1.264309	1.513294
H	-0.039813	2.016125	0.045094
N	-0.465323	-1.029766	0.871172
H	-0.19678	-1.939972	0.520868
H	-1.487085	-0.953211	0.87323
C	0.03361	-1.414889	-2.138787
H	-0.363811	-2.287162	-1.616442
H	1.124994	-1.459085	-2.135
H	-0.318293	-1.463164	-3.17133
C	-0.009697	1.02972	-2.237855
N	0.361422	1.967309	-2.841194
Cl	-3.681857	0.0	0.0
