19

C	-0.210293	-0.028858	-1.538858
C	0.0	0.0	0.0
Cl	-0.153568	1.703071	-2.131573
H	1.092098	0.0	0.0
N	0.920065	-0.704816	-2.127303
H	0.75312	-1.704548	-2.094629
H	1.754664	-0.491829	-1.54287
C	-1.523656	-0.600227	-2.033851
H	-2.361748	-0.05476	-1.600416
H	-1.55879	-0.527894	-3.122026
H	-1.602918	-1.654528	-1.749189
C	-0.481163	-1.268336	0.680897
H	0.016428	-2.124543	0.219519
H	-1.565176	-1.397345	0.636156
H	-0.16865	-1.246072	1.728747
N	-0.642439	1.154849	0.66165
O	0.06316	2.021694	1.170031
O	-1.88089	1.175562	0.678427
F	2.666097	0.0	0.0
