19

C	-0.411632	0.050397	-1.477433
C	0.0	0.0	0.0
Cl	0.094351	-1.612603	-2.192908
H	1.089641	0.0	0.0
N	-1.810044	0.247073	-1.63957
H	-2.064477	0.193452	-2.618776
H	-2.326649	-0.459754	-1.132314
C	0.411483	1.050681	-2.262871
H	0.069722	2.056049	-2.024118
H	0.306761	0.871165	-3.336365
H	1.447445	0.930999	-1.940418
C	-0.504589	-1.182396	0.802147
H	-0.185461	-1.058605	1.837213
H	-0.037088	-2.085876	0.416297
H	-1.592965	-1.297478	0.806429
N	-0.475594	1.263295	0.63454
O	0.048511	2.321012	0.289085
O	-1.363548	1.201847	1.49203
F	2.589782	0.0	0.0
