19

C	-0.358686	-0.045249	-1.469468
C	0.0	0.0	0.0
Cl	-2.317508	0.124503	-1.598761
H	1.094134	0.0	0.0
N	0.252982	0.948905	-2.235004
H	-0.186818	1.065953	-3.133752
H	0.352743	1.817293	-1.733573
C	-0.064368	-1.406143	-2.06319
H	-0.210453	-1.372447	-3.145706
H	-0.695058	-2.188553	-1.646359
H	0.990563	-1.596703	-1.843805
C	-0.459947	-1.188737	0.812066
H	0.078484	-2.068756	0.459711
H	-1.538974	-1.361359	0.766866
H	-0.17294	-1.031495	1.85092
N	-0.451437	1.26074	0.628407
O	-0.099105	2.328366	0.110916
O	-1.126177	1.211397	1.659615
F	2.530761	0.0	0.0
