19

C	-0.333948	-0.104193	-1.474709
C	0.0	0.0	0.0
Cl	-2.279007	-0.380726	-1.628258
H	1.094134	0.0	0.0
N	0.041855	0.990504	-2.250217
H	-0.22221	1.874122	-1.835495
H	-0.266036	0.892179	-3.208544
C	0.297082	-1.361062	-2.04685
H	0.226439	-1.343715	-3.13658
H	1.345268	-1.315397	-1.73309
H	-0.177716	-2.270828	-1.685854
C	-0.366447	-1.213875	0.829272
H	-1.44019	-1.411039	0.857888
H	0.161395	-2.077171	0.429064
H	-0.000882	-1.061782	1.843401
N	-0.502101	1.224102	0.651823
O	-0.489409	2.294112	0.031542
O	-0.866287	1.156786	1.829281
F	2.537644	0.0	0.0
