19

C	-0.186138	-0.070622	-1.532561
C	0.0	0.0	0.0
Cl	-0.066225	1.720174	-2.183818
H	1.092119	0.0	0.0
N	0.904675	-0.844054	-1.964891
H	1.011938	-0.836636	-2.969877
H	1.772846	-0.570461	-1.453982
C	-1.516795	-0.554046	-2.072074
H	-2.329565	0.068047	-1.699094
H	-1.513622	-0.516845	-3.164691
H	-1.670839	-1.589699	-1.760098
C	-0.520793	-1.236075	0.709016
H	-1.607545	-1.331878	0.649919
H	-0.040976	-2.107106	0.261222
H	-0.225486	-1.193596	1.761217
N	-0.629304	1.192377	0.605413
O	-1.86406	1.262408	0.554547
O	0.082905	2.026742	1.156051
F	2.677975	0.0	0.0
