19

C	-0.184636	-0.059202	-1.533772
C	0.0	0.0	0.0
Cl	-0.051169	1.733249	-2.173598
H	1.092102	0.0	0.0
N	0.90265	-0.836954	-1.969807
H	1.012325	-0.821267	-2.974407
H	1.77137	-0.568723	-1.456939
C	-1.515771	-0.531041	-2.078801
H	-2.325196	0.095664	-1.709012
H	-1.679153	-1.566298	-1.769942
H	-1.506353	-0.490325	-3.170597
C	-0.531498	-1.235748	0.700168
H	-1.620757	-1.317464	0.641831
H	-0.063776	-2.110253	0.243327
H	-0.234224	-1.205197	1.752766
N	-0.623255	1.194604	0.611044
O	0.095318	2.024805	1.159508
O	-1.857289	1.270228	0.564655
F	2.678705	0.0	0.0
