19

C	-0.467629	-0.013126	-1.459175
C	0.0	0.0	0.0
Cl	0.402321	1.306093	-2.333329
H	1.089426	0.0	0.0
N	-0.020347	-1.284335	-2.034909
H	-0.794112	-1.940574	-2.002031
H	0.228844	-1.137627	-3.005518
C	-1.955428	0.217732	-1.708998
H	-2.536645	-0.560424	-1.203909
H	-2.1416	0.154142	-2.784582
H	-2.295835	1.184913	-1.343903
C	-0.518736	-1.187463	0.78803
H	-0.147919	-1.10987	1.81309
H	-1.610443	-1.252191	0.822168
H	-0.089665	-2.091392	0.354843
N	-0.484556	1.24814	0.663861
O	-1.677108	1.304741	1.011593
O	0.316465	2.161731	0.854146
F	2.59543	0.0	0.0
