13

C	0.0	0.0	0.0
C	-0.555725	-0.049549	-1.397645
Br	1.948226	0.0	0.0
H	-0.295279	0.829005	-1.977109
H	-0.249809	-0.938319	0.500509
H	-1.66299	-0.122018	-1.203886
N	-0.543177	1.178032	0.614182
H	-1.573059	1.013573	0.527528
H	-0.328431	1.146601	1.605155
N	-0.129374	-1.235194	-2.152612
O	0.174382	-1.085934	-3.34157
O	-0.151089	-2.324172	-1.571959
H	-2.970705	0.0	0.0
