13

C	0.0	0.0	0.0
C	-0.545167	-0.027611	-1.406231
Br	2.067319	0.0	0.0
H	-0.249987	-0.908907	-1.973007
H	-0.225422	-0.984821	0.4142
H	-1.662197	-0.034866	-1.174163
N	-0.49921	0.987026	0.885402
H	-0.427162	1.886074	0.421875
H	-1.51482	0.753088	0.906111
N	-0.253634	1.130657	-2.253288
O	-0.203258	2.2509	-1.736617
O	-0.136484	0.929577	-3.46611
H	-2.937797	0.0	0.0
