13

C	0.0	0.0	0.0
C	-0.493019	0.043296	-1.442007
Br	1.973497	0.0	0.0
H	-1.600647	0.097881	-1.309481
H	-0.282239	-0.990151	0.364515
H	-0.185623	-0.83344	-2.009696
N	-0.528777	0.972139	0.898163
H	-1.548327	0.756299	0.862183
H	-0.419438	1.884694	0.470075
N	-0.0163	1.208584	-2.202894
O	-0.184884	2.33028	-1.718293
O	0.508285	1.007352	-3.302393
H	-2.974902	0.0	0.0
