13

C	0.0	0.0	0.0
C	-0.500806	0.02704	-1.437715
Br	1.978578	0.0	0.0
H	-1.610562	0.078561	-1.295337
H	-0.277856	-0.986843	0.375857
H	-0.201943	-0.85601	-2.000061
N	-0.522329	0.977908	0.892794
H	-0.413372	1.887629	0.458191
H	-1.54236	0.762391	0.871287
N	-0.042328	1.183223	-2.223239
O	-0.148561	2.308649	-1.726969
O	0.399772	0.972351	-3.356966
H	-2.976525	0.0	0.0
