14
Coordinates from ORCA-job run
  C   -0.20498554951018      0.19306972024254      0.09199744355693
  C   1.10711839452242      0.09958166682086      0.37858933251298
  H   1.60475999758968      0.91351621319425      0.90150247313999
  C   -0.95248782588563     -0.92548562638339     -0.58258097762449
  H   -1.98870412649109     -0.95768399875022     -0.23417839723423
  H   -0.98662235962674     -0.80028064931039     -1.67204616594297
  H   -0.50919229028516     -1.90163357928434     -0.36745849173219
  C   -0.97914605615110      1.44092285719941      0.40744663051877
  H   -1.40779811105021      1.88352229036739     -0.49918566148408
  H   -0.34873682702066      2.19745393890526      0.88159577794185
  H   -1.81629463422919      1.22802822611230      1.08220048756764
  N   1.92071361134642     -1.02403106670825      0.15518155673274
  H   2.90126724059460     -0.79366293114432      0.12081523096092
  H   1.65910853619685     -1.55331706126111     -0.66287923891387
