14
Coordinates from ORCA-job run
  C   -0.15314568621999      0.23391288703466     -0.09754807199646
  C   1.14140030715023      0.11372195608505      0.25201773292036
  H   1.75387514503521      1.00517494212226      0.36931696293127
  C   -0.79217799584247      1.58489357449337     -0.24739188277945
  H   -0.08121460845526      2.39129006346941     -0.05033824031307
  H   -1.18974223766138      1.72523851496416     -1.25916437591529
  H   -1.63459131439921      1.70583067521713      0.44349965633852
  C   -1.02987290590765     -0.96822438363902     -0.32377231112924
  H   -1.77172546887413     -0.75991693253038     -1.09993563664961
  H   -1.58490808540585     -1.24956126942206      0.57986791824707
  H   -0.45442096529422     -1.83798641550325     -0.65243829387005
  N   1.84765322368716     -1.09280354868288      0.39293401958140
  H   2.67165015367691     -0.99666259563149      0.96523215525827
  H   1.27822043851066     -1.85490746797697      0.72872036737628
