14
Coordinates from ORCA-job run
  C   -0.19019872079601      0.22854692879964     -0.01164282811946
  C   1.15524304234404      0.20082933659963     -0.05017003553344
  H   1.71833164708892      1.12688474611745      0.04460737083441
  C   -1.01269850682290     -1.01921160575117     -0.19092271325823
  H   -1.96761798593673     -0.78336116137940     -0.66883386976454
  H   -0.50654260253436     -1.75245602212951     -0.82505738593074
  H   -1.24621226927041     -1.50141709707745      0.76652024740343
  C   -0.93127639722568      1.50918183596544      0.24636760514080
  H   -0.24706323871821      2.35181378352448      0.37431717886606
  H   -1.61004373670173      1.74802591977132     -0.58041842356942
  H   -1.54658440196434      1.43813106025656      1.15078438193474
  N   1.94690531874965     -0.93038961432085     -0.31097315269716
  H   2.89255078840374     -0.82897152192448      0.02244351463482
  H   1.54620706338403     -1.78960658845167      0.03397811005872
