14
Coordinates from ORCA-job run
  C   -0.26309673286001     -0.13133162138677     -0.00392519657086
  C   0.94873022872022     -0.59465014757906      0.35590833517961
  H   1.02747497199665     -1.54957015576069      0.87130416975170
  C   -1.51570304686532     -0.87206233923638      0.36828409747094
  H   -1.29375320425430     -1.78420403470400      0.92798669274858
  H   -2.08912871825958     -1.15369392256662     -0.52237306955808
  H   -2.17522167858633     -0.25223943840103      0.98676297399793
  C   -0.43251830735481      1.15595647448005     -0.76469573847070
  H   -0.64483417306681      2.00187813913561     -0.09914647235817
  H   -1.27353216875032      1.08080621676966     -1.46007622438421
  H   0.45303880653063      1.40341701190541     -1.35610444278078
  N   2.18561853837280     -0.00682952068893      0.04147963980307
  H   2.15081372505710      1.00017116075593     -0.00775895503110
  H   2.92311175932007     -0.29864782272319      0.66335419020207
