14
Coordinates from ORCA-job run
  C   -0.16349898231042      0.23024110588895     -0.02293268814318
  C   1.10196869849244      0.10351600234583      0.42241506427395
  H   1.63661113400611      0.98586263337997      0.76831605799042
  C   -0.81688422440434      1.58186744845646     -0.09334564835030
  H   -1.74866257463448      1.60366937698459      0.48321809617045
  H   -0.16152422613842      2.36647454332463      0.29289305083767
  H   -1.07680627484541      1.84347024470949     -1.12580399863530
  C   -0.96760804617837     -0.92919488463159     -0.54555598618672
  H   -0.66238875651374     -1.88690845743638     -0.11345894180373
  H   -0.88626299320489     -1.02015951414995     -1.63505935409775
  H   -2.02788361531490     -0.79598977240739     -0.31177900279024
  N   1.89484873346802     -1.05262927475072      0.40188918087448
  H   1.36899473291067     -1.90496473375806      0.27836055142587
  H   2.50809639466773     -1.12525471795585      1.19984361843437
