14

C	-0.543055	-0.01382	-1.411501
C	0.0	0.0	0.0
Br	0.230739	1.438968	-2.458307
H	1.091222	0.0	0.0
H	-0.343718	0.935468	0.457895
N	-0.160163	-1.313262	-2.129731
O	-0.919483	-1.683007	-3.023645
O	0.874168	-1.854669	-1.784655
C	-1.997272	0.104071	-1.472192
N	-3.161507	0.26477	-1.42942
N	-0.525567	-1.196763	0.660703
H	0.274738	-1.706099	1.015622
H	-1.127332	-0.958901	1.436672
F	2.608167	0.0	0.0
