14

C	-0.490903	-0.010537	-1.438642
C	0.0	0.0	0.0
Br	0.268952	1.480213	-2.440642
H	1.090209	0.0	0.0
H	-0.36119	0.935432	0.446673
N	-0.026117	-1.293526	-2.146815
O	1.120581	-1.645901	-1.951126
O	-0.855285	-1.857099	-2.860311
C	-1.945089	0.051177	-1.559553
N	-3.116204	0.159981	-1.562976
N	-0.527801	-1.211318	0.614638
H	-1.288631	-1.028159	1.254088
H	0.230883	-1.660357	1.11171
F	2.594583	0.0	0.0
