14

C	-0.475278	0.01923	-1.426437
C	0.0	0.0	0.0
Br	-0.084376	-1.6725	-2.318478
H	1.092817	0.0	0.0
H	-0.392397	-0.897016	0.485953
N	-2.007643	0.169832	-1.507661
O	-2.65237	-0.395998	-0.634089
O	-2.47566	0.814843	-2.438443
C	0.115513	1.104347	-2.198978
N	0.592218	1.975049	-2.827124
N	-0.457497	1.257306	0.59471
H	-1.174423	1.103483	1.29031
H	0.34726	1.686961	1.033285
F	2.596722	0.0	0.0
