14

C	-0.552509	-0.011895	-1.407666
C	0.0	0.0	0.0
Br	0.206666	1.448112	-2.454952
H	1.091275	0.0	0.0
H	-0.342331	0.934576	0.46096
N	-0.172625	-1.308496	-2.132261
O	0.862743	-1.851615	-1.79324
O	-0.93514	-1.67417	-3.024894
C	-2.00781	0.101007	-1.455222
N	-3.171599	0.262028	-1.402841
N	-0.522319	-1.197724	0.661666
H	-1.123804	-0.960895	1.438162
H	0.280037	-1.704659	1.016002
F	2.608294	0.0	0.0
