14

C	-0.484644	0.032774	-1.438244
C	0.0	0.0	0.0
Br	0.27422	-1.415415	-2.469587
H	1.096915	0.0	0.0
H	-0.379358	0.913387	0.470545
N	-2.021637	-0.076456	-1.446462
O	-2.584647	0.912692	-0.98219
O	-2.567184	-1.103236	-1.813121
C	-0.155482	1.288591	-2.102326
N	0.086708	2.29661	-2.653816
N	-0.488822	-1.216067	0.65148
H	-0.988779	-0.981557	1.498787
H	0.335595	-1.736748	0.923242
F	2.590597	0.0	0.0
