15

C	-0.415284	-0.144651	-1.458709
C	0.0	0.0	0.0
F	-0.375166	1.154529	-2.074459
H	1.101707	0.0	0.0
H	-1.46096	-0.45243	-1.549127
N	0.445154	-1.051509	-2.104962
H	1.415852	-0.83282	-1.902896
H	0.283865	-1.070412	-3.102477
N	-0.464603	-1.168535	0.737959
H	0.283729	-1.50627	1.328721
H	-1.236694	-0.86977	1.321589
N	-0.567897	1.22361	0.571653
H	-0.008264	1.450146	1.388436
H	-0.417496	1.972875	-0.094198
Br	3.666965	0.0	0.0
