15

C	-0.380816	0.052494	-1.461934
C	0.0	0.0	0.0
F	-1.771416	0.141422	-1.614352
H	1.103502	0.0	0.0
H	-0.099772	-0.896239	-1.931192
N	0.190844	1.227098	-2.06871
H	0.086562	1.174724	-3.074728
H	1.185074	1.242342	-1.851997
N	-0.472496	-1.243824	0.582504
H	0.08712	-1.440966	1.404336
H	-1.42347	-1.073485	0.894667
N	-0.525118	1.188563	0.689822
H	0.173117	1.479816	1.365392
H	-0.594821	1.937315	0.007725
Br	3.656338	0.0	0.0
