15

C	-0.404943	-0.076131	-1.463617
C	0.0	0.0	0.0
F	-0.11478	1.143886	-2.089161
H	1.103295	0.0	0.0
H	-1.48654	-0.215822	-1.572798
N	0.301645	-1.157719	-2.069984
H	0.142816	-1.166705	-3.068946
H	1.296674	-1.028274	-1.896589
N	-0.52482	-1.206239	0.664244
H	0.046182	-1.355587	1.490621
H	-0.336398	-1.992116	0.049212
N	-0.506504	1.19813	0.642439
H	-1.282433	0.920937	1.231366
H	0.220877	1.59359	1.22383
Br	3.657444	0.0	0.0
