15

C	-0.551251	0.018491	-1.433651
C	0.0	0.0	0.0
F	0.522359	0.031244	-2.345031
H	1.091934	0.0	0.0
H	-1.083338	0.957783	-1.613397
N	-1.423542	-1.083053	-1.685957
H	-0.93167	-1.930716	-1.416579
H	-1.637076	-1.114459	-2.678101
N	-0.351124	-1.263737	0.656115
H	0.232463	-1.374674	1.474945
H	-1.325693	-1.259913	0.933277
N	-0.412724	1.232978	0.677541
H	0.230404	1.406689	1.441132
H	-1.344872	1.121474	1.065941
Br	3.74637	0.0	0.0
