15

C	-0.499707	-0.059427	-1.43237
C	0.0	0.0	0.0
F	-1.91601	-0.280911	-1.392891
H	1.098515	0.0	0.0
H	-0.104655	-0.93432	-1.955467
N	-0.179921	1.124257	-2.118226
H	-0.395934	1.907863	-1.514062
H	-0.66368	1.1819	-3.002558
N	-0.504392	-1.161946	0.753837
H	0.203171	-1.389204	1.444888
H	-0.565717	-1.965434	0.137241
N	-0.452159	1.247604	0.608881
H	0.21771	1.526442	1.313781
H	-1.33577	1.052253	1.06411
Br	3.685923	0.0	0.0
