15

C	-0.451665	0.093879	-1.449965
C	0.0	0.0	0.0
F	-0.319856	1.418884	-1.880039
H	1.099485	0.0	0.0
H	-1.514972	-0.162179	-1.528845
N	0.311549	-0.737595	-2.338058
H	0.123735	-1.694797	-2.060324
H	1.296499	-0.572657	-2.13268
N	-0.419892	-1.313936	0.483207
H	-1.291644	-1.188422	0.986786
H	0.276515	-1.667685	1.127092
N	-0.589533	1.075314	0.800568
H	-0.037788	1.154826	1.649462
H	-0.451207	1.942583	0.293421
Br	3.643497	0.0	0.0
