14

C	-0.582927	0.008755	-1.405292
C	0.0	0.0	0.0
F	-0.185668	1.115118	-2.125754
H	1.09389	0.0	0.0
H	-1.677936	0.049525	-1.323686
C	-0.239273	-1.201518	-2.172881
N	-0.005575	-2.138736	-2.839821
N	-0.421779	-1.263691	0.607632
H	-1.243194	-1.13159	1.186299
H	0.329193	-1.615722	1.187831
N	-0.408779	1.22826	0.667346
H	-1.276588	1.09635	1.176819
H	0.316655	1.50194	1.319493
Br	3.546743	0.0	0.0
