14

C	-0.569622	-0.020478	-1.41221
C	0.0	0.0	0.0
F	-0.006516	0.965521	-2.190075
H	1.09973	0.0	0.0
H	-1.643935	0.178318	-1.341076
C	-0.386329	-1.31786	-2.087259
N	-0.244085	-2.346668	-2.632171
N	-0.547152	-1.17346	0.706132
H	-0.179904	-1.117969	1.651687
H	-0.125359	-2.0114	0.312286
N	-0.442846	1.229948	0.628687
H	-1.271599	1.042176	1.183034
H	0.295275	1.584725	1.223361
Br	3.58345	0.0	0.0
