14

C	-0.490345	-0.022265	-1.43081
C	0.0	0.0	0.0
F	-1.891448	-0.148665	-1.420882
H	1.094805	0.0	0.0
H	-0.089692	-0.897085	-1.944391
C	-0.172638	1.197989	-2.185566
N	0.042685	2.133574	-2.859612
N	-0.406839	-1.270475	0.599898
H	-1.383344	-1.231934	0.86892
H	0.154239	-1.431163	1.426764
N	-0.447321	1.23226	0.633151
H	0.10922	1.403119	1.463465
H	-1.425905	1.162177	0.896753
Br	3.57935	0.0	0.0
