14

C	-0.588635	0.01233	-1.399526
C	0.0	0.0	0.0
F	-0.268899	1.18724	-2.076151
H	1.100031	0.0	0.0
H	-1.679784	-0.016359	-1.302162
C	-0.155558	-1.13761	-2.204235
N	0.181699	-2.047645	-2.863287
N	-0.471206	-1.223392	0.629065
H	0.290155	-1.656037	1.13438
H	-1.216758	-0.98919	1.272577
N	-0.525246	1.184653	0.694339
H	-0.344981	1.990804	0.102356
H	0.064231	1.318476	1.511049
Br	3.571192	0.0	0.0
