14

C	-0.413564	0.001963	-1.47485
C	0.0	0.0	0.0
F	-1.750365	-0.378667	-1.620878
H	1.10315	0.0	0.0
H	0.195115	-0.730101	-2.013391
C	-0.257249	1.319377	-2.106964
N	-0.142311	2.371665	-2.612894
N	-0.430143	-1.209036	0.673779
H	-1.357195	-1.472427	0.361582
H	0.223074	-1.956984	0.479407
N	-0.616637	1.139459	0.675343
H	-0.079666	1.9733	0.456733
H	-0.489285	0.965026	1.665942
Br	3.608795	0.0	0.0
