14

C	-0.436165	-0.161352	-1.443079
C	0.0	0.0	0.0
F	-1.803177	-0.460969	-1.52023
H	1.108793	0.0	0.0
H	0.099802	-0.997704	-1.902833
C	-0.211389	1.050193	-2.240891
N	-0.099608	1.987165	-2.936691
N	-0.491585	-1.156244	0.775949
H	-0.659192	-1.954506	0.171373
H	0.255161	-1.421978	1.411065
N	-0.477039	1.2576	0.539261
H	-1.343714	1.07535	1.030468
H	0.204351	1.606394	1.201581
Br	3.542024	0.0	0.0
