14

C	-0.51648	0.008648	-1.435379
C	0.0	0.0	0.0
F	-0.084421	1.135363	-2.115227
H	1.101246	0.0	0.0
H	-1.612115	0.054362	-1.399789
C	-0.112905	-1.194373	-2.184079
N	0.186206	-2.151056	-2.794673
N	-0.439619	-1.173054	0.723013
H	-1.397044	-1.421345	0.503228
H	0.175134	-1.950905	0.527475
N	-0.574217	1.182194	0.644504
H	-0.285871	1.122415	1.615769
H	-0.10827	1.997346	0.257285
Br	3.596284	0.0	0.0
