18

C	-0.598382	-0.031113	-1.417174
C	0.0	0.0	0.0
Br	0.344436	1.235326	-2.552118
H	1.094683	0.0	0.0
N	-0.352782	-1.392053	-2.058938
O	0.628856	-2.026254	-1.686776
O	-1.139215	-1.757974	-2.931573
C	-2.079568	0.262631	-1.444975
H	-2.463359	0.21563	-2.461035
H	-2.591003	-0.475535	-0.823483
H	-2.232437	1.26226	-1.041414
N	-0.54241	-1.167802	0.72774
H	-0.330311	-1.002866	1.707522
H	0.021102	-1.970192	0.462043
N	-0.420333	1.238858	0.627604
H	-1.274992	1.088796	1.153064
H	0.312929	1.554082	1.250371
Cl	3.474354	0.0	0.0
