18

C	-0.479824	-0.068892	-1.453191
C	0.0	0.0	0.0
Br	-2.407246	-0.464325	-1.506548
H	1.094028	0.0	0.0
N	-0.26673	1.305032	-2.08054
O	-1.210116	2.069215	-2.239147
O	0.904194	1.544637	-2.356732
C	0.273358	-1.109045	-2.247979
H	0.056549	-2.083123	-1.815643
H	1.339905	-0.90276	-2.14405
H	-0.020585	-1.091019	-3.299653
N	-0.34386	-1.261628	0.652334
H	-1.255309	-1.205081	1.087644
H	0.35295	-1.446663	1.361892
N	-0.439278	1.239503	0.608405
H	-1.390401	1.167715	0.946247
H	0.17627	1.463829	1.377342
Cl	3.386303	0.0	0.0
