18

C	-0.545588	-0.028154	-1.445945
C	0.0	0.0	0.0
Br	0.277536	1.420032	-2.474414
H	1.095994	0.0	0.0
N	-0.122763	-1.30627	-2.16022
O	0.786987	-1.9676	-1.672574
O	-0.730432	-1.58923	-3.193056
C	-2.050416	0.099323	-1.546408
H	-2.363503	0.179467	-2.584446
H	-2.352345	0.975487	-0.97674
H	-2.52347	-0.789148	-1.117589
N	-0.440914	-1.118869	0.805686
H	0.109715	-1.935793	0.580795
H	-1.427777	-1.310754	0.691713
N	-0.525725	1.218958	0.635056
H	-0.307668	1.092617	1.617911
H	0.041406	1.999131	0.317263
Cl	3.498844	0.0	0.0
