18

C	-0.374472	0.008497	-1.490908
C	0.0	0.0	0.0
Br	-2.340135	-0.103131	-1.684037
H	1.092556	0.0	0.0
N	0.015019	1.310344	-2.192895
O	0.601919	2.171696	-1.546723
O	-0.251866	1.390899	-3.387709
C	0.293433	-1.113025	-2.25058
H	1.374842	-0.990845	-2.118592
H	-0.008903	-2.055592	-1.801128
H	0.030694	-1.07791	-3.307104
N	-0.410277	-1.301352	0.524357
H	0.270885	-1.546654	1.234961
H	-1.299097	-1.179872	0.997644
N	-0.488947	1.100402	0.808177
H	-1.418185	1.372409	0.503866
H	0.12797	1.891675	0.680583
Cl	3.394986	0.0	0.0
