18

C	-0.4295	-0.028793	-1.472727
C	0.0	0.0	0.0
Br	-0.345477	-1.821536	-2.237025
H	1.101347	0.0	0.0
N	-1.899471	0.36201	-1.577122
O	-2.274918	0.953331	-2.584217
O	-2.635822	0.043218	-0.642865
C	0.417023	0.905698	-2.305049
H	0.27608	1.919512	-1.928526
H	1.461836	0.620206	-2.16399
H	0.141962	0.858014	-3.357027
N	-0.430426	-1.139737	0.771948
H	0.178012	-1.235321	1.573863
H	-1.392236	-1.038649	1.067337
N	-0.38121	1.340358	0.483048
H	-1.234675	1.278151	1.026582
H	0.362323	1.678888	1.081229
Cl	3.408086	0.0	0.0
