16
Coordinates from ORCA-job run
  C   0.63836586331982     -0.71496828549569      0.21743290118541
  C   -0.45846817028691      0.19193889667246     -0.33881760182667
  Cl  0.56092817307738     -0.74414888492703      2.02118710664064
  H   -0.31675770137805      0.15975362183458     -1.42778223875366
  H   0.42886399501407     -1.74348876876093     -0.08744778283485
  C   2.03095224858018     -0.30129902241759     -0.21198113278672
  H   2.09631055905497     -0.33334181781351     -1.30383074863463
  H   2.78165241815856     -0.97722515996972      0.20033627269375
  H   2.23521357131945      0.71646715223859      0.11586962844120
  N   -0.21290255062718      1.57090794474357      0.07264389752187
  H   -0.42578177850873      1.66860396175196      1.05942493604959
  H   -0.83356527068349      2.19126898189160     -0.43320574149254
  C   -1.86164669591113     -0.32642873821801     -0.02873120609732
  H   -1.99701012096027     -1.35591235493738     -0.37484356792847
  H   -2.60884577553491      0.29801560932738     -0.52584902366733
  H   -2.05530876463378     -0.29914313592029      1.04559430148976
