16
Coordinates from ORCA-job run
  C   0.62569718662352     -0.76789964088883      0.13869586418023
  C   -0.51547563167419      0.15946118140924     -0.28208219335452
  Cl  0.58401420051760     -1.11002952597178      1.89929272792787
  H   -0.48960232016327      0.13121130459763     -1.38661663318889
  H   0.46715986797577     -1.73549386026338     -0.34647247788325
  C   1.99173098292608     -0.21651237968597     -0.22268250113711
  H   2.03119945898302      0.01196571897425     -1.29302289822520
  H   2.77620622847048     -0.93975813506985      0.00360653377567
  H   2.18943729811057      0.69173776051453      0.34778742177482
  N   -0.29739108351213      1.50350241454832      0.24266323879740
  H   -1.16961229569116      2.01710573840302      0.25017141459947
  H   0.35003640889471      2.01642867212762     -0.34236554835834
  C   -1.87774619212692     -0.34726563234421      0.16356814112711
  H   -1.98281606722397     -0.23479162340242      1.24333338163648
  H   -2.00966903037962     -1.40169544611257     -0.08879669995961
  H   -2.67216901173049      0.22203345316441     -0.32707977171212
