16
Coordinates from ORCA-job run
  C   0.98400084638717     -0.04002750967025     -0.36367223852479
  C   -0.52808345316936      0.14529502986105     -0.49123097538487
  Cl  1.68141865771401     -0.35038447115874     -1.98761239812110
  H   -0.90828463702473     -0.70441786653865     -1.06982189430536
  H   1.42436314805266      0.90759797286939     -0.03582576343897
  C   1.40653043662199     -1.16373519942500      0.56594456627154
  H   2.48812374317823     -1.29813046449820      0.52934944144752
  H   0.93769224919946     -2.10454867248429      0.26711631448606
  H   1.12746419561567     -0.94075312784066      1.59757596864455
  N   -0.79110030216245      1.34909546332489     -1.27559775293929
  H   -1.75078181418134      1.34773990570469     -1.59860057627740
  H   -0.67324978471730      2.16821402883907     -0.68837720219355
  C   -1.21127027303908      0.15880661386332      0.87937364186345
  H   -1.14053081256357     -0.79837153155066      1.39952431047701
  H   -2.27116661183181      0.39193098808606      0.75112024224240
  H   -0.77512558807956      0.93268884061797      1.52073431575280
