16
Coordinates from ORCA-job run
  C   0.76510876500499     -0.45932398871404     -0.66252619031685
  C   -0.60310577334193      0.21441430389261     -0.51334243749454
  Cl  0.53576594418327     -2.14187069036005     -1.25648156811203
  H   -1.16341618064027      0.00492136135962     -1.43694286887726
  H   1.30507532370618      0.04736398428789     -1.46772774970758
  C   1.60568009596504     -0.46607804358686      0.59723141117079
  H   1.67234463114833      0.55341138551847      0.98067269329764
  H   2.60955666314416     -0.83644322912371      0.38323097361083
  H   1.16526032391379     -1.10997406573678      1.35957813507716
  N   -0.35161460664257      1.64490701980923     -0.31869482102111
  H   -0.08254076934700      2.07286351802127     -1.19761262245230
  H   -1.20240603038230      2.10196401039632     -0.01189533901244
  C   -1.40591110836296     -0.31269133660042      0.66443785845788
  H   -2.41956523970536      0.09724174057241      0.63906109512441
  H   -0.94365897325687     -0.01160704133074      1.60643169410583
  H   -1.48557306538649     -1.40009892840520      0.63557973614956
