16
Coordinates from ORCA-job run
  C   0.95090920223176      0.01134674272223     -0.31504026341855
  C   -0.56229199663002      0.18516416683790     -0.38058456735085
  Cl  1.58956872237891     -0.13366891707036     -1.99961784836020
  H   -0.96185224094234     -0.67940956361093     -0.93710760216361
  H   1.37883389019955      0.93885540813420      0.07331849201156
  C   1.41667770206571     -1.19309093596517      0.47870389777800
  H   2.49625483353720     -1.31653406722454      0.38490572769465
  H   0.93587506648573     -2.10488293527935      0.11629355224614
  H   1.18167475813025     -1.06483731191151      1.53711224792205
  N   -0.86026014977367      1.46412079114473     -1.02099992137647
  H   -0.50670130912345      1.46352892141028     -1.97053323072355
  H   -1.86470728837116      1.58706555861242     -1.07459939690538
  C   -1.17311096391814      0.20047204417375      1.01527307315141
  H   -2.23874321849621      0.43715937911910      0.95002614014197
  H   -0.69826960901591      0.97189311554069      1.62686143154909
  H   -1.08285739875821     -0.76518239663343      1.51398826780372
