16
Coordinates from ORCA-job run
  C   0.78438933397045     -0.50858936410144     -0.65979935193931
  C   -0.57686365669812      0.18855910736940     -0.57971134322269
  Cl  0.55591822149445     -2.24808261586566     -1.06208778717105
  H   -1.07668506141780     -0.00628476302204     -1.53456473260820
  H   1.31078767789793     -0.07795210955746     -1.51239170152970
  C   1.63554533636533     -0.38475530106183      0.58801038645672
  H   1.79344655818371      0.67155069756097      0.81928035214905
  H   1.16980970665995     -0.87912312950449      1.44183009862035
  H   2.61187121826760     -0.84395476556061      0.42643620519069
  N   -0.30885881062227      1.63042651919399     -0.51955569051752
  H   -1.08606526718966      2.14032134434506     -0.92056347136748
  H   -0.23102510142538      1.92506709358302      0.44740010160054
  C   -1.47094055895473     -0.31509293736388      0.54943848410262
  H   -1.62746741996370     -1.39406033806882      0.50094223350406
  H   -2.44592847576002      0.17506626750972      0.48943930153689
  H   -1.03893370080774     -0.07409570545592      1.52489691519502
