12

C	-0.501004	0.041911	-1.433678
C	0.0	0.0	0.0
F	-0.051578	-1.144259	-2.045823
H	1.092089	0.0	0.0
H	-0.034202	0.858574	-1.987214
H	-0.329789	-0.939472	0.457092
N	-1.915388	0.159033	-1.515608
H	-2.213713	0.132087	-2.483002
H	-2.35458	-0.606046	-1.01821
C	-0.50783	1.12129	0.783124
N	-0.924892	2.013188	1.421869
Cl	3.415987	0.0	0.0
