12

C	-0.426623	0.077765	-1.472643
C	0.0	0.0	0.0
F	-0.494032	1.440341	-1.790584
H	1.093192	0.0	0.0
H	-1.435759	-0.317485	-1.626159
H	-0.377149	0.850448	0.570831
N	0.470895	-0.571607	-2.360926
H	0.191881	-1.521275	-2.562991
H	1.425915	-0.52981	-2.019915
C	-0.478422	-1.25072	0.578893
N	-0.890601	-2.269351	0.995842
Cl	3.385847	0.0	0.0
