12

C	-0.539889	-0.012591	-1.426097
C	0.0	0.0	0.0
F	-0.131434	-1.225717	-1.979636
H	1.091584	0.0	0.0
H	-0.057261	0.767432	-2.022943
H	-0.335509	-0.916674	0.496728
N	-1.966523	0.090469	-1.509531
H	-2.411079	0.063004	-0.603497
H	-2.265376	0.917288	-2.003103
C	-0.510137	1.156889	0.726992
N	-0.956709	2.098248	1.268561
Cl	3.416962	0.0	0.0
