14

C	0.0	0.0	0.0
C	-0.488796	-0.236413	-1.439797
Br	1.948326	0.0	0.0
H	0.146089	0.363205	-2.104554
H	-0.320563	0.991445	0.309007
C	-0.404757	-1.057329	1.019771
H	-0.017979	-0.781992	2.003228
H	0.01215	-2.02828	0.744779
H	-1.493451	-1.071085	1.020375
C	-1.89367	0.180976	-1.764776
N	-2.567021	0.556423	-2.667661
C	-0.278918	-1.632896	-1.841476
N	-0.073882	-2.739842	-2.174931
F	-2.616848	0.0	0.0
