14

C	0.0	0.0	0.0
C	-0.562604	-0.05608	-1.445389
Br	1.950036	0.0	0.0
H	0.277819	-0.12172	-2.151634
H	-0.311797	0.931324	0.46173
C	-0.400367	-1.175871	0.88459
H	-1.492268	-1.13967	0.909384
H	-0.032492	-2.117108	0.467425
H	0.033555	-1.045585	1.879192
C	-1.276514	1.182831	-1.76982
N	-1.64333	2.233201	-2.1455
C	-1.400401	-1.235566	-1.696644
N	-1.852006	-2.250811	-2.079894
F	-2.578146	0.0	0.0
