14

C	0.0	0.0	0.0
C	-0.564559	-0.306449	-1.414818
Br	1.949941	0.0	0.0
H	0.275255	-0.475645	-2.103253
H	-0.313124	0.996992	0.292163
C	-0.39997	-1.004797	1.07436
H	0.020365	-0.695765	2.035444
H	-1.49183	-0.977642	1.085966
H	-0.01751	-2.000717	0.835644
C	-1.305405	0.844091	-1.941785
N	-1.699363	1.794324	-2.508434
C	-1.383897	-1.524285	-1.458769
N	-1.830174	-2.591094	-1.666559
F	-2.576754	0.0	0.0
