15
Coordinates from ORCA-job run
  C   -0.58002543525491      0.43714551923589     -0.10221007646542
  C   0.79470416912113     -0.01529052018049     -0.53031723413281
  Cl  -0.61112087369927      2.06470753423056      0.51983559473355
  H   1.17197754786206      0.72031174682541     -1.24247968563622
  H   0.67037745550455     -0.95884959691911     -1.06555267451984
  N   -1.11440858410831     -0.56254264098822      0.92646474305916
  O   -1.29053133792146     -1.68077960240206      0.45720539191530
  O   -1.25331805249136     -0.21008345148265      2.08467695424026
  N   -1.59568003778762      0.36914198814447     -1.24528967165458
  O   -2.77115306878687      0.40476977899008     -0.91202443911164
  O   -1.14359968623702      0.31962690509077     -2.38082022213501
  C   1.74283529206471     -0.18485558130612      0.65261001573458
  H   1.42097497358445     -0.99555030970144      1.30913156332986
  H   2.73841414673059     -0.43580926175840      0.28364631752625
  H   1.82155349141931      0.72805749222130      1.24412342311658
