15
Coordinates from ORCA-job run
  C   -0.57709674718667     -0.07559319215192     -0.44633608397764
  C   0.78808214835971      0.50972926451021     -0.17886026407551
  Cl  -0.58546067184759     -1.25654658494198     -1.72779815277462
  H   1.16362043795964      0.90427207855621     -1.12433800601489
  H   0.64849109485966      1.35446522655836      0.49876264874587
  N   -1.60703799174422      0.99637467117923     -0.81090677114351
  O   -1.16915206545281      2.07599437881266     -1.18365028573808
  O   -2.77803019665453      0.65642898910542     -0.72551050652454
  N   -1.10838245173853     -0.66861364446246      0.86101733127391
  O   -1.30058935231407      0.17877068650825      1.72512238212483
  O   -1.23004076188042     -1.87690406084705      0.96208443400802
  C   1.74876230716984     -0.51225590111116      0.42085755225020
  H   2.73743535173285     -0.06204549665710      0.52148435449638
  H   1.84313671229028     -1.39858504466711     -0.20763995937776
  H   1.42726218644685     -0.82649137039156      1.41571132672735
