15
Coordinates from ORCA-job run
  C   -0.64480174818160     -0.32345349610145     -0.53608765296548
  C   0.86230025814327     -0.37378745908379     -0.51250472273211
  Cl  -1.34452728371018     -0.92848756819330     -2.01563419079269
  H   1.19757511009330     -0.02127080553964     -1.49044873119589
  H   1.15272434921974     -1.42272207709712     -0.42111453227407
  N   -1.06459903002887      1.13866110990909     -0.34456833307883
  O   -0.74281736582097      1.87473873674910     -1.26528225895498
  O   -1.56458271651178      1.45627061202426      0.72342106955167
  N   -1.30966036036132     -1.11541724193702      0.62538539669452
  O   -2.52764715212223     -1.13429633403756      0.63153469013521
  O   -0.55828276979676     -1.66228471943068      1.42151937541855
  C   1.50221451606935      0.47175206302301      0.59086290126955
  H   1.40654937292202      1.53899271947567      0.38226831648871
  H   2.56618981796246      0.23522815992725      0.64402190100826
  H   1.07236500212360      0.26607630031216      1.56762677142760
