15
Coordinates from ORCA-job run
  C   -0.62117824216494     -0.22529912972889     -0.24490238450085
  C   0.77881564791858      0.34341548517804     -0.30767484292999
  Cl  -0.72859835261650     -1.88383735191247     -0.75461605934959
  H   1.01648840229538      0.43549184528131     -1.37285702225340
  H   0.72632947877377      1.35036085701230      0.11112583244416
  N   -1.52375855674646      0.67098123570862     -1.11414950418478
  O   -1.74392938524716      1.76785954767480     -0.61508726405993
  O   -1.87384054381727      0.26523490237441     -2.20814387207601
  N   -1.26063647531352     -0.10039921145153      1.14345474185651
  O   -0.58601058984014      0.41129800605081      2.02738858021745
  O   -2.41136582959281     -0.50291180489957      1.22992723777998
  C   1.84695736997151     -0.48570051916455      0.39607598459382
  H   1.97572772709410     -1.45863090391373     -0.07765852171726
  H   2.79986357988641      0.04373413350266      0.33927801885708
  H   1.60613576939904     -0.63159709171221      1.44783907532280
