15
Coordinates from ORCA-job run
  C   -0.69970215525139     -0.34451442460408     -0.45015478318838
  C   0.80821139507141     -0.40834874238840     -0.55779113523447
  Cl  -1.48106396687653     -1.11748501555567     -1.80918025538309
  H   1.08551854608294     -1.46014269214952     -0.46303567352020
  H   1.04822497239881     -0.09557995526305     -1.57768080007830
  N   -1.10692482638744      1.12735265699210     -0.36195432922313
  O   -1.21232336385729      1.58131544135350      0.77004816638173
  O   -1.17004978427360      1.73707202032045     -1.41768838287245
  N   -1.25142879079278     -0.99908000499080      0.81714679118581
  O   -0.45118933189947     -1.59972085518731      1.52397284807144
  O   -2.45360344955104     -0.87932625886430      0.99658452548919
  C   1.56499662871099      0.45364377252166      0.44815846591204
  H   1.40047892261962      1.51776881660959      0.27146954933249
  H   1.28587086964516      0.22143349800186      1.47436450572175
  H   2.63398433436060      0.26361174320397      0.33574050740555
