15
Coordinates from ORCA-job run
  C   -0.70561386530479     -0.35597882865231     -0.43179047859744
  C   0.80045229413607     -0.40560671954451     -0.57039699942807
  Cl  -1.50697036164975     -1.14958262487493     -1.76692007058206
  H   1.01598150842909     -0.10153625465462     -1.59832660095212
  H   1.09015555981534     -1.45358725049700     -0.47049083863626
  N   -1.12585790550610      1.11231691429178     -0.34888976251773
  O   -1.21709763961131      1.71170311601025     -1.40839066070803
  O   -1.21147529355192      1.57581282110112      0.78093508570529
  N   -1.22396030105672     -1.00373517260707      0.85304143751266
  O   -0.40267157790077     -1.58859296122552      1.54879825649683
  O   -2.42336157628938     -0.89542257953321      1.05601937335721
  C   1.56913069221376      0.47435711934335      0.41052324429881
  H   2.63742319295036      0.29349261717400      0.27817655088441
  H   1.39045136631182      1.53488517878693      0.22606774692564
  H   1.31341390701431      0.25047462488175      1.44464371624086
