15
Coordinates from ORCA-job run
  C   -0.62052031210231     -0.22548728766615     -0.24664292034662
  C   0.78695329228837      0.32522434924658     -0.30539083925479
  Cl  -0.73929740189881     -1.89808556693798     -0.70575864945640
  H   1.04103206960361      0.38264821619249     -1.36925211136398
  H   0.73998361143846      1.34483043773058      0.08221578144000
  N   -1.49922751230556      0.65312275537949     -1.15728530419230
  O   -1.70783292743775      1.76963497032877     -0.69824505290300
  O   -1.84369317574249      0.21538707102202     -2.24057459042161
  N   -1.27936510143119     -0.05023201241688      1.12677151435938
  O   -2.43783056622571     -0.43169620592300      1.20586060045197
  O   -0.60993074003301      0.47426261529427      2.00710562283119
  C   1.83568800958729     -0.49401241141856      0.43787264023738
  H   1.57906957062886     -0.60556761950906      1.49010774586181
  H   1.95975895356357     -1.48203884527322     -0.00485636921084
  H   2.79521223006665      0.02300953395064      0.37807193196781
