18

C	0.0	0.0	0.0
C	-0.402306	-0.056233	-1.503206
Cl	1.80873	0.0	0.0
H	0.28815	-0.7852	-1.954122
C	-0.593505	1.166027	0.759252
H	-0.242899	1.163318	1.793512
H	-1.686417	1.053419	0.74377
H	-0.317748	2.093682	0.26223
C	-0.3433	-1.27379	0.645047
N	-0.555361	-2.306814	1.163631
N	-0.210175	1.27801	-2.07011
H	-0.822106	1.390276	-2.867628
H	0.747108	1.391084	-2.381158
C	-1.82446	-0.554765	-1.703789
H	-2.607142	-0.087044	-1.076583
H	-1.880316	-1.622912	-1.483153
H	-2.100699	-0.425796	-2.757857
H	-4.193526	0.0	0.0
