18

C	0.0	0.0	0.0
C	-0.547942	0.017602	-1.444648
Cl	1.802814	0.0	0.0
H	-1.642304	-0.00144	-1.26145
C	-0.519694	1.152655	0.838892
H	-0.192699	1.050139	1.876575
H	-1.620347	1.088408	0.772325
H	-0.151181	2.100889	0.443353
C	-0.361999	-1.282841	0.624035
N	-0.543313	-2.335193	1.113427
N	-0.189666	-1.157366	-2.22999
H	-0.688804	-1.959376	-1.86127
H	0.803975	-1.345126	-2.140587
C	-0.170783	1.280207	-2.20305
H	0.915031	1.399131	-2.28304
H	-0.590505	2.173273	-1.736948
H	-0.579664	1.193816	-3.211082
H	-3.242327	0.0	0.0
