18

C	0.0	0.0	0.0
C	-0.481631	0.137552	-1.512422
Cl	1.806326	0.0	0.0
H	0.385982	0.557554	-2.03451
C	-0.482065	1.145532	0.875347
H	-0.158874	2.09972	0.448827
H	-0.066759	1.048842	1.881018
H	-1.575772	1.085493	0.905991
C	-0.380252	-1.274923	0.61549
N	-0.596086	-2.312191	1.124906
N	-1.62141	0.989607	-1.73487
H	-1.432198	1.93124	-1.412165
H	-2.415382	0.621128	-1.155482
C	-0.815278	-1.226613	-2.102792
H	-1.01676	-1.100507	-3.16623
H	-1.725793	-1.5905	-1.623476
H	-0.021408	-1.966084	-1.960059
H	-3.402038	0.0	0.0
