19
Coordinates from ORCA-job run
  C   -0.62248203749062     -0.09962511423001     -0.47009229129837
  C   0.80966543595931      0.36093159559509     -0.17230374622272
  F   -0.60703028387568     -0.55229141054761     -1.80670093120463
  H   1.06329573085657      1.05956433103410     -0.98667028848454
  C   -1.07608793480107     -1.25347690950156      0.39811416306247
  H   -2.13013701342097     -1.47185332207156      0.21210909062139
  H   -0.50064622036394     -2.15187137206517      0.17124316494190
  H   -0.94142629580806     -0.99823352750507      1.44990379289666
  C   -1.59701308801708      1.06125531974375     -0.42042081043562
  H   -2.56045236833031      0.74317422297694     -0.82400888168031
  H   -1.23246098873425      1.89540517136636     -1.02668174863567
  H   -1.74625649492624      1.39809650922821      0.60690180074225
  C   1.80929203313725     -0.78438942909262     -0.20403976706052
  H   2.83097328506744     -0.39350201986636     -0.19710094866494
  H   1.68613413693482     -1.42605418278955      0.67115341712893
  H   1.68226828282353     -1.38177805710108     -1.10729456045383
  N   0.83936324180804      0.99706473938189      1.14756508036200
  H   1.79723763253936      1.04987096598779      1.47387237619059
  H   0.49776294664191      1.94871248945645      1.08445108819496
