19
Coordinates from ORCA-job run
  C   -0.72809953111752      0.29896216164101      0.08086383970757
  C   0.78928412123642      0.50175322409765      0.08927379633246
  F   -1.24594129138639      1.41764886613612      0.78375807285528
  H   0.95799431853567      1.44875980200442     -0.45142157560749
  C   -1.31822633340581      0.37375771296373     -1.31319076315808
  H   -2.40617697434947      0.42972940371604     -1.23820350221830
  H   -0.96411578819803      1.26667466584929     -1.83398868850287
  H   -1.06076730254804     -0.50654138274627     -1.90432096769873
  C   -1.18311031926255     -0.93276356827723      0.83530509020618
  H   -0.91160577867014     -1.84315681965302      0.29720005296893
  H   -2.26994800803570     -0.90766678488348      0.94074934502966
  H   -0.72354889541671     -0.95805895374570      1.82243653406653
  C   1.54637533539997     -0.60884455548615     -0.62368774373204
  H   1.40414937545367     -1.55957750760307     -0.10703627821681
  H   1.23834468421699     -0.71278620197542     -1.66549626546097
  H   2.61771861057785     -0.38804074243197     -0.62122504483264
  N   1.24375510152631      0.57124149595659      1.47736361320885
  H   0.77533202937917      1.34502961447343      1.93419910544514
  H   2.23858664606431      0.76387956996403      1.49542137960733
