19
Coordinates from ORCA-job run
  C   -0.59093847554050     -0.24258955126422      0.07039076653483
  C   0.82318132554491      0.36999096967830      0.10559460259921
  F   -0.44625364738839     -1.60373955057116      0.42704338470661
  H   0.70945307610504      1.44474660259013     -0.08557028779563
  C   -1.51355459345779      0.37400164083733      1.10469317794375
  H   -2.48587544344613     -0.12179558057303      1.07553918432217
  H   -1.66028088407001      1.43886385348822      0.90565468306785
  H   -1.10832847973853      0.25360894233301      2.10959967437172
  C   -1.21694044565812     -0.21520674545057     -1.31104056470629
  H   -2.24365866591021     -0.58498151022362     -1.26548888589739
  H   -0.65913701394169     -0.85133489430327     -1.99771696603111
  H   -1.23274395579178      0.80288977179729     -1.70926515193857
  C   1.73596784950351     -0.22265550485198     -0.96348298450993
  H   1.76417498446479     -1.31173195697291     -0.87486873508201
  H   2.74478676157215      0.16092814397680     -0.81059036333775
  H   1.41511479940637      0.03286531913756     -1.97448173762564
  N   1.49213030217070      0.23227612244504      1.39853895172102
  H   1.44666318439417     -0.73945957492229      1.68538215444736
  H   1.02523932178151      0.78232350284936      2.10806909720978
