19
Coordinates from ORCA-job run
  C   -0.69373257181570      0.33199549910919      0.07403726859233
  C   0.82556242499657      0.56726987176193      0.02950550713456
  F   -1.21629230556976      1.46116703500961      0.75166240191520
  H   0.95293377905820      1.50129537705088     -0.53296462920571
  C   -1.32469248074927      0.33891909902713     -1.30456192291716
  H   -2.41031567233626      0.40524143993488     -1.20546513532739
  H   -1.08563780517502     -0.56992448190555     -1.85918326998852
  H   -0.98045769951995      1.20316758641843     -1.87792505117712
  C   -1.11271307525824     -0.87814309561729      0.88335449460008
  H   -2.20110868585475     -0.89739585250239      0.96937553871493
  H   -0.69837614596293     -0.83215952128091      1.89162147140774
  H   -0.78950025809344     -1.80628527190685      0.40813287049165
  C   1.58322842702013     -0.53862723932751     -0.69011519188534
  H   1.23748328957951     -0.67766480471268     -1.71547179653971
  H   2.64306149198355     -0.28067841027147     -0.71553614989780
  H   1.48509353862591     -1.49218488005946     -0.16254002905367
  N   1.43729609116118      0.78952192357406      1.33472866430617
  H   1.47148052958542     -0.07624829225738      1.86033505259019
  H   0.87768712832483      1.45073401795539      1.86000990623956
