15

C	-0.563448	-0.013751	-1.404822
C	0.0	0.0	0.0
Cl	0.170898	1.335808	-2.315419
H	1.090041	0.0	0.0
H	-0.294729	0.958972	0.441304
N	-0.138496	-1.291893	-2.140825
O	0.68373	-2.020956	-1.606166
O	-0.668668	-1.489049	-3.23374
C	-2.073197	0.087378	-1.503483
H	-2.394672	0.994442	-0.987639
H	-2.525603	-0.777705	-1.011203
H	-2.396774	0.123695	-2.542426
C	-0.571739	-1.068567	0.795545
N	-1.047802	-1.936051	1.432522
F	2.524554	0.0	0.0
