15

C	-0.296532	0.047136	-1.487263
C	0.0	0.0	0.0
Cl	0.109443	-1.500967	-2.244203
H	1.092901	0.0	0.0
H	-0.32943	0.945736	0.440195
N	-1.790341	0.329062	-1.720616
O	-2.511259	-0.502955	-2.25787
O	-2.168936	1.422669	-1.300126
C	0.543251	1.147546	-2.105752
H	0.482723	1.130853	-3.195837
H	1.561217	0.954678	-1.748539
H	0.201706	2.113307	-1.729125
C	-0.615749	-1.106735	0.700316
N	-1.113255	-1.986729	1.300543
F	2.575885	0.0	0.0
