17

C	-0.472149	-0.026351	-1.460377
C	0.0	0.0	0.0
Cl	-0.101852	-1.636087	-2.16449
H	1.09496	0.0	0.0
N	-1.923494	0.12017	-1.517859
H	-2.216936	0.044146	-2.485222
H	-2.146488	1.060458	-1.204591
C	0.319875	1.003095	-2.255876
H	0.06906	2.009857	-1.904336
H	1.38992	0.834524	-2.096268
H	0.074099	0.930373	-3.319159
N	-0.459184	-1.127454	0.785203
H	0.177725	-1.247743	1.565752
H	-1.403378	-0.990405	1.123391
C	-0.425772	1.290813	0.565503
N	-0.809397	2.298943	1.038451
H	2.788544	0.0	0.0
