17

C	-0.523715	0.001884	-1.437481
C	0.0	0.0	0.0
Cl	0.300787	-1.433665	-2.283638
H	1.093054	0.0	0.0
N	-1.936167	-0.168298	-1.43491
H	-2.132789	-0.996188	-0.880774
H	-2.276253	-0.315495	-2.377528
C	-0.079296	1.237118	-2.189344
H	-0.5725	2.111789	-1.759686
H	1.003814	1.338832	-2.09747
H	-0.348283	1.15962	-3.246268
N	-0.450598	-1.209295	0.712033
H	0.397073	-1.712036	0.964161
H	-0.924382	-0.958698	1.569798
C	-0.456645	1.204424	0.682288
N	-0.829457	2.155799	1.265399
H	2.740963	0.0	0.0
