17

C	-0.358403	-0.070047	-1.495866
C	0.0	0.0	0.0
Cl	-0.15375	1.680142	-2.174945
H	1.094789	0.0	0.0
N	0.56511	-0.961416	-2.075753
H	1.512585	-0.75422	-1.745297
H	0.520202	-0.94869	-3.086139
C	-1.79355	-0.445837	-1.790095
H	-1.960791	-0.494211	-2.87008
H	-1.972819	-1.4245	-1.344295
H	-2.479355	0.290293	-1.365605
N	-0.387368	-1.259494	0.661577
H	-0.961978	-1.071175	1.472711
H	0.478407	-1.684858	0.982714
C	-0.558486	1.146353	0.693481
N	-1.036415	2.007168	1.337677
H	2.741367	0.0	0.0
