17

C	-0.263366	-0.000759	-1.504432
C	0.0	0.0	0.0
Cl	-2.065355	0.090086	-1.825916
H	1.097174	0.0	0.0
N	0.358277	1.13927	-2.145377
H	1.348921	1.076827	-1.888489
H	0.000479	1.991217	-1.721528
C	0.27709	-1.273223	-2.116012
H	-0.229479	-2.14074	-1.698046
H	1.341954	-1.327125	-1.860569
H	0.150076	-1.232365	-3.199438
N	-0.452699	-1.192459	0.693355
H	0.210035	-1.392727	1.435571
H	-1.372141	-1.056143	1.095679
C	-0.448261	1.249461	0.617823
N	-0.82097	2.230378	1.150504
H	2.737623	0.0	0.0
