15
Coordinates from ORCA-job run
  C   -0.60886581220209     -0.24502402290727      0.25039665027887
  C   0.68490230632933     -0.39310462303578     -0.51287375667792
  H   -0.59676227466770     -0.73127771452246      1.22590586677425
  H   0.82765274519481     -1.46151448530536     -0.68832737857785
  H   0.57170795874293      0.09879804854181     -1.48156675381111
  N   -1.75639829116049     -0.86862010171485     -0.50994357746030
  O   -2.68041859474207     -0.15209490173655     -0.87128741438422
  O   -1.64104292323010     -2.07437499745720     -0.69339569907940
  N   -0.96406324050046      1.18830535511283      0.49491969499406
  O   -1.49439952747143      1.43548258595834      1.57540609695561
  O   -0.71324597616395      1.98950995449123     -0.39901924919340
  C   1.86252094074358      0.19313942980104      0.25963357925162
  H   2.79334010978386      0.00351785188292     -0.27722762469557
  H   1.95235061434262     -0.25709355065411      1.25154900932460
  H   1.76272196500116      1.27335117154541      0.37583055630077
