15
Coordinates from ORCA-job run
  C   -0.65808328889250     -0.01576914534944     -0.24932360826660
  C   0.72100905067155     -0.60298193991311     -0.07154743175131
  H   -0.83307437555773      0.38981239728159     -1.24602099136701
  H   0.79389940982956     -1.01078552088910      0.93915332300926
  H   0.80639054632581     -1.43040534133788     -0.77894324517152
  N   -0.92533452216682      1.09750091860552      0.71473429537008
  O   -0.50464676540404      0.95999852197415      1.85841639503204
  O   -1.55732010337690      2.05467857471452      0.27416824470528
  N   -1.72509554604652     -1.06401986725587     -0.03434044553559
  O   -2.55222358825761     -0.88707139646474      0.85024023895263
  O   -1.65771742430913     -2.01625568844809     -0.80212951821995
  C   1.80932026716422      0.43740763226119     -0.31762583098953
  H   2.79314744589369     -0.03079648798858     -0.25889744945944
  H   1.71312482688520      0.88810248752407     -1.30872698966395
  H   1.77660406724123      1.23158485528577      0.42984301335559
