17

C	0.0	0.0	0.0
C	-0.47073	-0.075444	-1.489344
Cl	1.792562	0.0	0.0
H	-1.574763	-0.102676	-1.396462
C	-0.467987	1.269719	0.551157
N	-0.664266	2.293412	1.095521
C	-0.39927	-1.191603	0.876867
H	-0.047225	-1.001277	1.892469
H	0.096773	-2.086869	0.506042
H	-1.487776	-1.273072	0.837445
N	-0.029181	-1.39465	-2.070641
O	-0.761689	-2.365182	-1.877441
O	1.026464	-1.426393	-2.708077
N	-0.001801	0.964059	-2.349417
H	0.987401	1.115342	-2.219798
H	-0.503593	1.818402	-2.147229
F	-2.705529	0.0	0.0
