17

C	0.0	0.0	0.0
C	-0.608467	-0.05626	-1.401691
Cl	1.796509	0.0	0.0
H	-1.714236	-0.1079	-1.125648
C	-0.400123	1.29196	0.576792
N	-0.589603	2.312712	1.125935
C	-0.470414	-1.117791	0.927408
H	-1.564833	-1.075264	0.87225
H	-0.079844	-2.078373	0.594093
H	-0.107794	-0.912545	1.937101
N	-0.194594	-1.357278	-2.072117
O	0.622715	-1.298367	-2.996892
O	-0.713149	-2.400888	-1.678281
N	-0.254959	1.082555	-2.172825
H	-0.909874	1.200389	-2.93347
H	0.678995	0.986102	-2.552313
F	-2.832575	0.0	0.0
