17

C	0.0	0.0	0.0
C	-0.646794	-0.462452	-1.377686
Cl	1.792429	0.0	0.0
H	-1.289997	-1.300875	-1.125746
C	-0.391617	1.386033	0.263828
N	-0.591139	2.521136	0.489798
C	-0.478881	-0.915819	1.117819
H	-0.055861	-0.602929	2.074926
H	-0.149338	-1.933468	0.893565
H	-1.572761	-0.825122	1.094311
N	0.441042	-1.023758	-2.253059
O	0.979454	-0.27293	-3.060905
O	0.73922	-2.207063	-2.077116
N	-1.435015	0.4775	-2.086785
H	-0.951799	1.364347	-2.17353
H	-2.246473	0.554103	-1.430165
F	-2.854411	0.0	0.0
