17

C	0.0	0.0	0.0
C	-0.646729	0.365819	-1.406469
Cl	1.7911	0.0	0.0
H	-1.286329	-0.475257	-1.656499
C	-0.390884	1.017235	0.979186
N	-0.586983	1.847781	1.787339
C	-0.47892	-1.377837	0.437933
H	-0.058647	-1.633764	1.413118
H	-1.572718	-1.292209	0.464792
H	-0.14522	-2.109669	-0.302446
N	0.442137	0.385741	-2.442898
O	0.746563	-0.694741	-2.950394
O	0.976791	1.460203	-2.699721
N	-1.438351	1.537776	-1.48514
H	-0.955696	2.327776	-1.073217
H	-2.248942	1.242696	-0.892875
F	-2.860327	0.0	0.0
