17

C	0.0	0.0	0.0
C	-0.426459	-0.123544	-1.506082
Cl	1.794356	0.0	0.0
H	0.466563	-0.402963	-2.072895
C	-0.442792	1.221906	0.674538
N	-0.689426	2.16796	1.325952
C	-0.4787	-1.200073	0.810081
H	-0.072097	-1.129747	1.821998
H	-1.57046	-1.128633	0.812469
H	-0.142929	-2.122591	0.336757
N	-0.656512	1.315044	-2.084604
O	-1.557787	1.448103	-2.906684
O	0.15673	2.186413	-1.780165
N	-1.476191	-1.012595	-1.73404
H	-1.699016	-1.018153	-2.720356
H	-2.290104	-0.668884	-1.122506
F	-2.929161	0.0	0.0
