17

C	0.0	0.0	0.0
C	-0.08431	-0.148227	-1.563048
Cl	1.812403	0.0	0.0
H	0.477666	0.713851	-1.944347
C	-0.502614	1.235574	0.572517
N	-0.69205	2.241391	1.156369
C	-0.382745	-1.242186	0.787871
H	0.108072	-1.206815	1.755379
H	-0.035272	-2.092126	0.211263
H	-1.465568	-1.249898	0.897922
N	-1.393679	-0.011942	-2.374572
O	-2.06231	0.983031	-2.233445
O	-1.490953	-0.760832	-3.359773
N	0.474017	-1.433821	-1.958705
H	0.113798	-1.623896	-2.882359
H	1.480938	-1.393667	-1.983312
F	-2.43751	0.0	0.0
