13
Coordinates from ORCA-job run
  C   0.45154841304412      0.18757056115694      0.53674366172099
  C   -0.55206965726219     -0.88426450425612      0.11948692049552
  Br  1.34500570666512     -0.62674052704885      2.18232232320449
  H   -0.03678383656089     -1.81982295884553     -0.09143715731147
  H   -1.31816182770759     -1.01786325169191      0.88090426197572
  N   1.32606561267446      0.48853015025347     -0.51819643483295
  H   1.98979521402880      1.21889067193960     -0.29859494266723
  H   1.79090620044356     -0.32688134299691     -0.89682090069685
  C   -0.18464225075470      1.40783669922760      1.02963828911072
  N   -0.66428514941429      2.40451202039898      1.42623776997091
  N   -1.22250828264349     -0.45552591008378     -1.14539278138421
  O   -2.07859366431385      0.41786490197000     -1.04199269469231
  O   -0.84727647819903     -0.99510651002348     -2.18289831489332
