13
Coordinates from ORCA-job run
  C   0.47562321219796      0.19329997694375      0.51317636486529
  C   -0.57209380153471     -0.86215331379998      0.16892241600887
  Br  1.40349345826284     -0.58998181889507      2.15586986765828
  H   -0.09118978606994     -1.81925460655019     -0.02575624191191
  H   -1.31488153905034     -0.94640886043516      0.95983889605715
  N   1.32051433141900      0.43200157245792     -0.58046054610878
  H   1.74456097477668     -0.40958847998637     -0.94932073142864
  H   2.01435102203696      1.14718650492868     -0.40932329729058
  C   -0.10953045357550      1.44645102163736      0.98630233680249
  N   -0.55065107968751      2.46467494694983      1.37296365652772
  N   -1.27275535464746     -0.45763790551160     -1.08749035011467
  O   -0.94537038902192     -1.04107076855106     -2.11752491299064
  O   -2.10107059510606      0.44248173081190     -0.98719745807460
