13
Coordinates from ORCA-job run
  C   0.40275717602977      0.15051629953772      0.56077323864829
  C   -0.98036233236651      0.01477747176170     -0.08707573679849
  Br  0.64716673903063     -1.19746496871691      1.96930106749141
  H   -1.75207664938842     -0.10968532109257      0.66983919568064
  H   -1.17520310611560      0.89116398032055     -0.70719972343072
  N   1.42949289262102     -0.04384683266090     -0.41895017615156
  H   2.34782443744589      0.13969825637616     -0.03516132576607
  H   1.27106603948367      0.52713738197120     -1.24209529357223
  C   0.42614538812348      1.45522489248609      1.24463468733276
  N   0.44330114760233      2.52951933955367      1.72372583737935
  N   -1.01684668252485     -1.16297639667550     -0.99822960465112
  O   -1.31416214259936     -2.24575375892492     -0.50517426513951
  O   -0.73010290734205     -0.94831034393629     -2.17438790102275
