13
Coordinates from ORCA-job run
  C   0.41424359929807      0.34741678960142      0.41921439417546
  C   -0.95286308698622     -0.03567496154141     -0.15000908611751
  Br  0.91347223618906     -1.13089305614549      1.72981537605465
  H   -1.70659798026613     -0.06776186497159      0.63258670912950
  H   -1.21996298142397      0.68514471776829     -0.92717893891553
  N   1.37263040368049      0.60433410310257     -0.57582733032507
  H   1.47033265309102     -0.17862926184356     -1.20979904778717
  H   2.26552886692361      0.88455846407434     -0.19216174658695
  C   0.23413146083713      1.52997492026652      1.26204011457298
  N   0.08152462197899      2.49993431044539      1.90770017711171
  N   -0.95189630645210     -1.38224656610100     -0.79523196553068
  O   -1.87372358903392     -2.13575770849933     -0.50903353435047
  O   -0.04681989783604     -1.62139988615616     -1.59311512143092
