13
Coordinates from ORCA-job run
  C   0.47925824374124      0.27747352899995      0.49615552314397
  C   -0.90732183116155     -0.05992854840850     -0.09246259699767
  Br  0.91774543509593     -1.16936471864098      1.77461944822607
  H   -1.67430865303784     -0.08011501819529      0.67903312608025
  H   -1.14748137742250      0.67401919143805     -0.86633761964891
  N   1.57137174056558      0.44784593789191     -0.40779353233556
  H   1.56916885566012     -0.27997352839342     -1.11132929466481
  H   1.55275460564873      1.36321080853701     -0.84050212540873
  C   0.30442125281211      1.50290563477214      1.27890161644113
  N   0.12625261831489      2.51169021687384      1.85486718296336
  N   -0.92564925958650     -1.39739088714218     -0.75072471900387
  O   -1.78279439944642     -2.19318759305568     -0.38542027470645
  O   -0.08441723118380     -1.59618502467683     -1.62700673408878
