13
Coordinates from ORCA-job run
  C   0.47767420612717      0.27509441341041      0.30078223182761
  C   -0.35776526222271     -0.69265244933247     -0.53325675396718
  Br  -0.09720793232117      0.06071458064372      2.22236482393709
  H   -0.09701280872169     -1.71972500977036     -0.28254344783339
  H   -0.17129581072955     -0.49093201579274     -1.59020773222563
  N   1.84408443478852     -0.04060418441634      0.08044067028925
  H   2.46299377127187      0.63267458046520      0.51478930072643
  H   2.06939403479705     -0.97043185784460      0.41353464764176
  C   0.25472579259031      1.68137347081667     -0.03166614121719
  N   0.17529273124422      2.82192504897500     -0.30286776753194
  N   -1.82348891614318     -0.55288651248334     -0.30915603383020
  O   -2.44371450404764     -1.57524461623700     -0.03326022714100
  O   -2.29367973663321      0.57169455156583     -0.44895357067561
