13
Coordinates from ORCA-job run
  C   0.53707912041009      0.04640250681689      0.56499919664320
  C   -0.64104009985315     -0.82097385737889      0.13577069728327
  Br  1.17611130013406     -0.76532924152457      2.23905519915470
  H   -1.39419346977818     -0.89681578020087      0.91861461988395
  H   -0.27382717454790     -1.81350883411958     -0.13017590900831
  N   1.61362167218761     -0.02546520051056     -0.38742946622313
  H   2.43184764476678      0.45523413733861     -0.03170679174845
  H   1.31318544118432      0.42309295347660     -1.24659760889303
  C   0.08843602504632      1.40467428615130      0.91086898356918
  N   -0.24642520756171      2.50504196249911      1.15602961709825
  N   -1.35542494629768     -0.29105085605300     -1.07437089401627
  O   -2.43458901842284     -0.81393012293803     -1.31845350785867
  O   -0.81478128726773      0.59262804644298     -1.73760413588469
