13
Coordinates from ORCA-job run
  C   0.53978897064186      0.05634405592799      0.56093941124024
  C   -0.64672879224336     -0.81242700830728      0.15870680269071
  Br  1.18144551271181     -0.71883736519219      2.25124006084670
  H   -1.39668271860370     -0.86343771412907      0.94660211414845
  H   -0.28805148034219     -1.81383386248572     -0.08447391318103
  N   1.61078720174686     -0.04667552252592     -0.39479611804336
  H   1.30945514024951      0.38358226871784     -1.26296354029020
  H   2.43461881988625      0.43571381840622     -0.05483519222883
  C   0.10320774280317      1.42600370918726      0.87652594545242
  N   -0.22092874265024      2.53441558398187      1.09877445330923
  N   -1.36269863162287     -0.30698329047622     -1.06092027370955
  O   -2.44579363865546     -0.82915689687755     -1.28859768093573
  O   -0.81941938392164      0.55729222377278     -1.74720206929906
