13
Coordinates from ORCA-job run
  C   0.48278547324202      0.27247335583757      0.29387814055656
  C   -0.37093070464959     -0.69751586013010     -0.51887045747545
  Br  -0.08987923908711      0.10548423179697      2.22089650439930
  H   -0.18358648732787     -0.51970261722633     -1.57987420319412
  H   -0.12708616155704     -1.72364522267174     -0.24820985896572
  N   1.84313372356588     -0.06976344581940      0.07609623396371
  H   2.05429948327607     -0.99629399731287      0.42708445630877
  H   2.47428349195992      0.60180057652935      0.49513724718335
  C   0.28166240391171      1.67545203691934     -0.06553698533461
  N   0.22311207035030      2.81178839054813     -0.35811038762239
  N   -1.83324587554022     -0.52781826807710     -0.29382155580423
  O   -2.28537871125745      0.60011734750000     -0.46319500741194
  O   -2.46916946688661     -1.53137652789382      0.01352587339676
