13
Coordinates from ORCA-job run
  C   0.44421860544879      0.18065083262484      0.54480290312571
  C   -0.54429981483484     -0.89186499384692      0.09533806776785
  Br  1.32767477922983     -0.65785273736649      2.18447870054933
  H   -1.31591119583821     -1.05075522622520      0.84613271730572
  H   -0.01664314759476     -1.81663052063172     -0.13147670873052
  N   1.32730049862066      0.51023566582085     -0.49419695794263
  H   1.80250706504080     -0.29356078911408     -0.88467109793412
  H   1.98279627317002      1.24120509412288     -0.25278346138992
  C   -0.20842546055908      1.38491560807583      1.05514316860630
  N   -0.70140653466491      2.36891629910778      1.46670800883948
  N   -1.20814795599156     -0.44213402900614     -1.16588306248399
  O   -0.81388505143105     -0.95038960026157     -2.21215192018498
  O   -2.07677806059569      0.41726439669995     -1.05044035752822
