13
Coordinates from ORCA-job run
  C   0.46891757364756      0.19851083821062      0.51791313644440
  C   -0.54337987518581     -0.88389238727046      0.15127161833883
  Br  1.42157470097629     -0.58661808167993      2.14497750334669
  H   -0.03121081901977     -1.82084537840099     -0.06085369937259
  H   -1.28372873589354     -1.00737737659755      0.93933758267345
  N   1.30572254545049      0.48730927201380     -0.56995115554012
  H   1.75763433340456     -0.33191060262658     -0.95567684916302
  H   1.97533658049216      1.22151952789049     -0.38356843766000
  C   -0.15808976014196      1.42167956681918      1.01508241380406
  N   -0.63535209703748      2.41616934960371      1.42013256001564
  N   -1.25590123598749     -0.47803215020686     -1.09800505782259
  O   -0.90425816596156     -1.02582530527977     -2.13955374168404
  O   -2.11626504474344      0.38931272752433     -0.98010587338072
