13
Coordinates from ORCA-job run
  C   0.46023623533116      0.32416031278557      0.42564893876566
  C   -0.32074191630640     -0.69025764597196     -0.42056894007019
  Br  -0.19233941265346      0.17839508714595      2.27443666226126
  H   -0.05125632322462     -0.55751595765083     -1.47186657623972
  H   -0.08817609583425     -1.69914756220568     -0.08332503007337
  N   1.87672315231930      0.06203903108932      0.43775449679513
  H   2.07201416955193     -0.89599925581370      0.70275102701494
  H   2.29598865754742      0.27601653730415     -0.46004997392531
  C   0.26092564876730      1.70170449536001     -0.02798191377276
  N   0.19018884260805      2.80458417415740     -0.42684834793334
  N   -1.80241126007817     -0.53926722758911     -0.33377613308067
  O   -2.44491884876587     -1.52767744461661      0.00808245702991
  O   -2.25723284926240      0.56296545600549     -0.62525666677153
