13
Coordinates from ORCA-job run
  C   0.38945681661992      0.39740245978216      0.39914435068078
  C   -0.94279381988657     -0.19115553910083     -0.06843311869938
  Br  1.24720108426381     -1.02161971329529      1.58511301151929
  H   -1.60341016654597     -0.37990717210356      0.77395848220350
  H   -1.39810659495060      0.50276682999060     -0.78003205799384
  N   1.19467919383372      0.84858623095891     -0.66008959308902
  H   1.36263550113977      0.11712908289009     -1.33911972916991
  H   2.05919640254436      1.26546164565076     -0.34120194647929
  C   0.09547888756049      1.50097550462558      1.31401987578953
  N   -0.16382689883861      2.40165360563930      2.02285871313297
  N   -0.78002645230847     -1.49315002561267     -0.78167031671840
  O   0.07869553929089     -1.54861659032337     -1.66077929346243
  O   -1.53917949272274     -2.39952631910166     -0.46276837771380
