13
Coordinates from ORCA-job run
  C   0.38585964665097      0.24412228736399      0.53796430864552
  C   -0.98018419338799     -0.06522207069262     -0.08549377783530
  Br  0.71696716835199     -0.90529939726863      2.09605479369822
  H   -1.74641926937062     -0.15407188983972      0.68200226143415
  H   -1.23318150564648      0.71499954748642     -0.80514178509628
  N   1.42926383198635      0.00802393641248     -0.41461458929356
  H   1.23521701919696      0.46382509622863     -1.29959494639441
  H   2.33011779331290      0.30085881560837     -0.05824136635891
  C   0.31563932154496      1.61990270981545      1.06101940074899
  N   0.27851020154231      2.74320745027432      1.40856618983354
  N   -0.92814772074519     -1.34291349388305     -0.84992021295471
  O   -0.65067052136563     -1.25028500675034     -2.04406300000565
  O   -1.15297177207054     -2.37714798475531     -0.23053727642160
