13
Coordinates from ORCA-job run
  C   0.38465422182425      0.21430739069199      0.55377223277720
  C   -0.97604908681926     -0.02376688398853     -0.11138958813582
  Br  0.63185743988211     -0.99020042284883      2.08603987416632
  H   -1.17798043802573      0.78493755687093     -0.81557493593663
  H   -1.76468010264570     -0.10060043177093      0.63430250268597
  N   1.44134879380011     -0.03517511141622     -0.37999916981030
  H   1.28337057475148      0.44442610246331     -1.25943716621352
  H   2.34384199783182      0.21677821887853      0.00220853618842
  C   0.35107107660881      1.57626992349240      1.11507846343733
  N   0.32150461329062      2.68869065355800      1.49652600411457
  N   -0.95530764954542     -1.28252381353683     -0.90818972644425
  O   -0.64318589969603     -1.17094936679302     -2.09212042600600
  O   -1.23744554125703     -2.32219381560081     -0.32221660082330
