13
Coordinates from ORCA-job run
  C   0.46947987297895      0.31480055557818      0.27373240228158
  C   -0.34509883267708     -0.76208487660681     -0.43836171188638
  Br  -0.17254283026220      0.38565655307179      2.18454206225290
  H   -0.12090383934217     -0.71837469127454     -1.50629342565403
  H   -0.10179333142493     -1.74204134310150     -0.03063679410982
  N   1.83996099330823     -0.03467715195420      0.14994933012434
  H   2.04539397693587     -0.90556058805456      0.62513186003435
  H   2.44936570321479      0.69307149547814      0.50230509150542
  C   0.26971635769928      1.65771238739771     -0.26885949008222
  N   0.20913686650802      2.74614796217570     -0.70741612442466
  N   -1.81646429539233     -0.58613647301570     -0.28884634778988
  O   -2.27202896074695      0.50732808434142     -0.60844386224087
  O   -2.45422168079946     -1.55484191403565      0.11219700998927
