13
Coordinates from ORCA-job run
  C   0.44870314193722      0.21142444619578      0.39445847950936
  C   -0.39381291299222     -0.78216049114548     -0.40288917196770
  Br  -0.13550483650828      0.17984048399224      2.26042799432842
  H   -0.23884194066128     -1.77666045244946      0.00779056117272
  H   -0.10848735388494     -0.73822687912664     -1.45760594334055
  N   1.81353354518523     -0.27694973977934      0.35176396512399
  H   2.39390941239296      0.26659504388262      0.98136410956676
  H   2.18018300486150     -0.16029134374979     -0.58921680302991
  C   0.31769859294423      1.59662967460576     -0.07850691388021
  N   0.35665751026046      2.70340753270439     -0.47471723497132
  N   -1.85113270136653     -0.48228769529645     -0.34184584452932
  O   -2.57728534667604     -1.33854641316033      0.15446690431393
  O   -2.20762011549231      0.59822583332671     -0.80449010229619
