13
Coordinates from ORCA-job run
  C   0.41865362473517      0.32123787247401      0.52551204230110
  C   -0.88979448405402     -0.12299709210514     -0.16227685219554
  Br  0.84623641447456     -1.06225854906580      1.87415381982391
  H   -1.71388695830700     -0.17674573437686      0.54622191272557
  H   -1.11562040285547      0.57515468017198     -0.97284891494309
  N   1.56910974807147      0.54509532834583     -0.29126848167900
  H   1.67840330732656     -0.20397178943657     -0.96352168327358
  H   1.51446504233632      1.43970289101485     -0.76358229673092
  C   0.09967686023384      1.55046719534827      1.25541140980664
  N   -0.19030737276238      2.55847233950913      1.78536762269889
  N   -0.76841842923136     -1.47324802703209     -0.78252315341134
  O   -1.60674787111081     -2.31169415479534     -0.47339801217267
  O   0.15823052114312     -1.63921496005228     -1.57524741294996
