13
Coordinates from ORCA-job run
  C   0.42923603115926      0.24832127983162      0.39708056109953
  C   -0.37805820262695     -0.82102769171884     -0.33673074663017
  Br  -0.25320768764861      0.41766857356694      2.22180382527042
  H   -0.02931165650237     -0.89407077813806     -1.37031406237804
  H   -0.26173832222005     -1.76550847951898      0.18880554762512
  N   1.78980946756972     -0.24598585653359      0.47943014734623
  H   2.34175489916256      0.36016009227159      1.07656175791136
  H   2.20581122801109     -0.23396414763952     -0.44805725050901
  C   0.33390276261564      1.57579815248497     -0.22600692406739
  N   0.39723631673431      2.63380232940126     -0.73606581568018
  N   -1.83159725423367     -0.50394438676406     -0.39708433998798
  O   -2.14622117853387      0.49989752676873     -1.03160382714610
  O   -2.59561640348705     -1.26914661401207      0.18418112714622
