13
Coordinates from ORCA-job run
  C   0.47850041384689      0.30997922081550      0.26272127443333
  C   -0.36303322547264     -0.76039687427245     -0.42761836383724
  Br  -0.12880055329508      0.40370586573318      2.18402254894926
  H   -0.15803325514029     -0.72490649532342     -1.49961518327087
  H   -0.12480742246034     -1.74124746989328     -0.01917694139918
  N   1.84177475097140     -0.05869376873888      0.11741691412138
  H   2.04425955606630     -0.92884800562647      0.59535144475588
  H   2.46681856960191      0.66374787309544      0.45269606798554
  C   0.28699394883587      1.65185504074752     -0.28545839734043
  N   0.23192880834581      2.73840550379384     -0.72943737703840
  N   -1.82857394156775     -0.56411862359467     -0.25093205951160
  O   -2.27683014168048      0.53095256092729     -0.57545999327126
  O   -2.47019750805160     -1.51943482766359      0.17549006542359
