13
Coordinates from ORCA-job run
  C   0.54222961484045      0.05588292624270      0.56141501945782
  C   -0.63877209087614     -0.81781338514081      0.15359571291725
  Br  1.19083653185066     -0.72823163143201      2.24515110656341
  H   -0.27380127225464     -1.81477832955749     -0.09861786792047
  H   -1.38669055518572     -0.88101727006092      0.94253900452763
  N   1.61327864916844     -0.03220729145196     -0.39587515888132
  H   2.43316435902735      0.45565662889826     -0.05398033255265
  H   1.30721520279552      0.40028004172535     -1.26129428598171
  C   0.09470366967387      1.41932200381251      0.88724316972647
  N   -0.25478744739915      2.51950045622395      1.11201378568315
  N   -1.36101009264081     -0.30707229301054     -1.06020994929898
  O   -2.44489724124981     -0.82901065697805     -1.28484677763324
  O   -0.82146932775003      0.56048880072902     -1.74513342660735
