13
Coordinates from ORCA-job run
  C   0.52217556314382      0.15598047319587      0.62231746249430
  C   -0.53344337743628     -0.86158833280265      0.14508581125517
  Br  1.22502455604454     -0.62239645453657      2.29178027908342
  H   -1.30290806181971     -1.02242605536644      0.89721549402526
  H   -0.04050475413548     -1.79377118575444     -0.13143681463272
  N   1.63272605252150      0.41547762665709     -0.24409711305890
  H   1.32176664535917      0.88707604628495     -1.08652464012845
  H   2.09054803551117     -0.45071692254731     -0.50373771861706
  C   -0.13448133107849      1.42272968192075      0.95580567487691
  N   -0.65992000357449      2.44798749797939      1.18758936840828
  N   -1.21263812790732     -0.33431127560215     -1.07486196272175
  O   -0.54972099974197     -0.32724950244722     -2.11280510721238
  O   -2.36062419688647      0.08320840301874     -0.94633073377207
