14

C	-0.374962	-0.127864	-1.441845
C	0.0	0.0	0.0
Br	-2.351756	-0.370155	-1.710399
H	1.094121	0.0	0.0
H	-0.407248	0.898591	0.458677
H	-0.338868	-0.887135	0.540109
N	-0.10215	1.191365	-2.168433
O	0.298896	1.130333	-3.327608
O	-0.331754	2.229393	-1.55922
C	0.369133	-1.248975	-2.116628
H	0.111013	-2.185536	-1.619998
H	1.438262	-1.056617	-1.951268
H	0.139464	-1.317851	-3.178293
H	2.932938	0.0	0.0
