14

C	0.0	0.0	0.0
C	-0.348289	-0.071266	-1.48792
Br	2.027491	0.0	0.0
H	0.267468	-0.839974	-1.949955
H	-0.216209	-0.91907	0.545046
N	-0.206543	1.213999	0.787669
H	-0.447408	1.147554	1.767427
H	-0.311139	2.090512	0.322599
C	-0.169623	1.225757	-2.105918
N	-0.04501	2.308464	-2.525873
N	-1.8919	-0.754494	-2.092871
O	-2.379905	-0.124886	-3.016383
O	-1.946123	-1.994489	-1.955234
Br	-2.994644	0.0	0.0
