17

C	-0.199272	-0.006126	-1.532814
C	0.0	0.0	0.0
Cl	0.011117	1.767229	-2.176104
H	1.102092	0.0	0.0
N	0.85196	-0.817045	-2.032073
H	0.976569	-0.711357	-3.029989
H	1.722081	-0.573902	-1.520975
N	-1.538708	-0.359122	-1.895595
H	-1.584439	-0.62499	-2.871593
H	-1.750902	-1.162397	-1.304813
N	-0.540604	-1.293178	0.480977
H	-0.605476	-1.181503	1.487867
H	0.1869	-1.983825	0.301643
N	-0.626953	1.064555	0.741547
H	-1.475722	1.346114	0.260882
H	0.004682	1.855082	0.734775
F	2.746201	0.0	0.0
