17

C	-0.014026	0.067425	-1.523497
C	0.0	0.0	0.0
Cl	-1.720569	0.174381	-2.20072
H	1.105951	0.0	0.0
N	0.712323	1.258566	-1.891163
H	1.600232	1.160534	-1.378598
H	0.919713	1.18066	-2.88203
N	0.604778	-1.110757	-2.097345
H	0.139951	-1.907025	-1.66876
H	1.539937	-1.083102	-1.677582
N	-0.547905	-1.25218	0.486409
H	-1.501298	-1.062264	0.777443
H	-0.025835	-1.51976	1.312272
N	-0.586016	1.181052	0.638233
H	-0.714721	1.886033	-0.080268
H	0.114942	1.555277	1.269262
F	2.733289	0.0	0.0
