17

C	-0.271765	-0.035652	-1.505087
C	0.0	0.0	0.0
Cl	0.191969	-1.782416	-2.083108
H	1.096199	0.0	0.0
N	-1.616124	0.2429	-1.843658
H	-1.751159	0.128462	-2.840866
H	-2.213093	-0.398083	-1.33442
N	0.64551	0.825985	-2.198243
H	1.559833	0.616123	-1.771449
H	0.396349	1.750636	-1.851428
N	-0.714809	-1.061269	0.726936
H	-0.33895	-1.947938	0.405783
H	-0.424811	-0.977674	1.696897
N	-0.397673	1.317595	0.472983
H	0.194741	1.559986	1.257003
H	-1.367961	1.301346	0.767186
F	2.722182	0.0	0.0
