11
Coordinates from ORCA-job run
  C   -0.70434459571718     -0.13379610513726     -0.15929053219909
  C   0.74748536584257     -0.56956629705164     -0.45621082530524
  Cl  -1.79427515997061     -1.16911506514964     -1.13325055034376
  H   0.92847760362864     -0.45803925453076     -1.52849307944984
  H   0.85003873573583     -1.62656873251205     -0.19670043120462
  C   -0.90755325382102      1.26510093376219     -0.54174390440384
  N   -1.04325755213212      2.38673472843085     -0.86578766494415
  C   -1.01399742482822     -0.31838600031615      1.26004270430601
  N   -1.23034311569468     -0.48711608092258      2.40285985636685
  C   1.70285634006434      0.23154425068801      0.30312561872258
  N   2.46591305689245      0.87920762273902      0.91644880845511
