11
Coordinates from ORCA-job run
  C   -0.64177129828354     -0.03421637852721     -0.06141972019317
  C   0.81063680002735     -0.49033337781248      0.20362507808973
  Cl  -1.23897469224407     -0.79431788288823     -1.56614817539505
  H   0.81919637590542     -1.58113800927422      0.27374464170166
  H   1.13689131504964     -0.07829154003472      1.16363467167356
  C   -0.70573790241583      1.42250677174517     -0.19829117081319
  N   -0.72851003202847      2.59378890870333     -0.29258088597122
  C   -1.48199321652790     -0.46631768905337      1.05873677076566
  N   -2.11898436841983     -0.83156329633197      1.97626296722406
  C   1.71100387331970     -0.04835190468874     -0.85592115019524
  N   2.43924314561754      0.30923439816244     -1.70364302688680
