11
Coordinates from ORCA-job run
  C   -0.63639031015948     -0.02599957490452     -0.09831369057880
  C   0.86088043886192      0.22127684775330     -0.38878413195818
  Cl  -1.21271525052027     -1.40699299011513     -1.07746307083349
  H   1.18277661666994      1.10915680990134      0.16434602649468
  H   0.97486204630063      0.41852114199575     -1.45787433572359
  C   -1.39369071462716      1.17237197926230     -0.46970234766165
  N   -1.96684441092712      2.15094339925793     -0.77824910108265
  C   -0.84125892834703     -0.32252222977785      1.32134387787895
  N   -0.97826353597108     -0.54847189139957      2.46651758248679
  C   1.67554374875669     -0.92499613268424      0.00012259303220
  N   2.33410029996297     -1.84328735928931      0.31605659794575
