14

C	0.015507	-0.008813	0.016992
C	-0.569239	0.125585	-1.394659
Cl	1.829865	0.044868	-0.075832
H	-1.670969	0.123407	-1.285015
H	-0.26553	-0.72348	-2.012321
C	-0.47638	1.092662	0.940689
H	-0.065014	0.960057	1.94262
H	-1.569638	1.042451	0.965346
H	-0.162539	2.061499	0.547332
C	-0.318221	-1.33279	0.548947
N	-0.523581	-2.402415	0.989053
C	-0.147775	1.364865	-2.037047
N	0.188988	2.358198	-2.564623
Br	-3.887565	0.198918	-0.30096
