13

C	-0.460142	-0.140938	-1.434788
C	0.0	0.0	0.0
F	-1.828777	-0.483757	-1.465425
H	1.091333	0.0	0.0
H	-0.39615	0.900907	0.469353
H	-0.347417	-0.879516	0.548247
C	-0.362547	1.142161	-2.1612
N	-0.311688	2.165472	-2.734761
C	0.317244	-1.219614	-2.163149
H	1.381709	-0.978199	-2.136235
H	-0.029883	-1.317343	-3.193428
H	0.165702	-2.165968	-1.640202
Cl	3.518861	0.0	0.0
