14
Coordinates from ORCA-job run
  C   -0.73785160474721      0.36128078931879      0.21549402107511
  C   0.72353174377531      0.41234862342669     -0.30133671422130
  Cl  -1.00773234569466      1.70916155230302      1.35449396969443
  H   0.95043438897898      1.42527295381391     -0.63918046965536
  C   -1.61544040496801      0.60252517941856     -0.94683913768386
  N   -2.33179434049810      0.73355735555413     -1.87071668366557
  N   -0.96333012469708     -0.86998369277765      0.90847694539008
  H   -1.91680280553758     -0.92200919889360      1.24652956970031
  H   -0.76656015724558     -1.67076909176804      0.31662752889097
  C   0.91522066997169     -0.56150386803479     -1.36802273625971
  N   1.03194882507154     -1.34401623689110     -2.23679838183353
  N   1.68085751148906      0.10853690871631      0.83337602584701
  O   2.07743774383240      1.08216437255000      1.46138192684175
  O   1.95908090026923     -1.06756564673623      1.02451413587968
