14
Coordinates from ORCA-job run
  C   -0.69503067172035     -0.03614045750411      0.28963390954937
  C   0.71793569056517     -0.11830532600619     -0.33556103965084
  Cl  -0.57931607817308     -0.19794087412464      2.05571285140146
  H   0.61418231571194     -0.02842349593790     -1.42093576234973
  C   -1.31684684266591      1.26482452329716     -0.01017464776559
  N   -1.89942415815022      2.24778679391058     -0.28899849468959
  N   -1.43230694289166     -1.16585917505083     -0.22495701404567
  H   -1.69680496661826     -1.00060725903672     -1.19131003634241
  H   -2.27488201336289     -1.31061621615765      0.31987577201838
  C   1.37744456050397     -1.36612900825061      0.01370430585090
  N   1.94007841488380     -2.36830157903574      0.25369921680676
  N   1.55817400904076      1.06887669242051      0.08285178399218
  O   2.28405447138394      0.93612962164578      1.05900030358476
  O   1.40274221149280      2.07570575983038     -0.60154114835999
