14
Coordinates from ORCA-job run
  C   -0.72319741420819      0.38556787565143      0.21961907894808
  C   0.71235623998124      0.37833500904904     -0.36724679351354
  Cl  -0.92918644034091      1.82251958920411      1.25870593862028
  H   0.93039637532337      1.35793405311653     -0.79689955097918
  C   -1.65366836994493      0.54400002565050     -0.91550992176447
  N   -2.41607069654736      0.61083510667753     -1.80900105615272
  N   -0.92520168887423     -0.78427832380672      1.01830369193377
  H   -1.86262638237474     -0.79853968282923      1.40195854174428
  H   -0.76282186564861     -1.63136153500012      0.48316449647019
  C   0.84514273635879     -0.68110623510812     -1.35863507689222
  N   0.91469530290715     -1.53375660816102     -2.16415514481576
  N   1.72013803962061      0.15701948515731      0.74267903685830
  O   2.15076242330853      1.17423724128363      1.27117566242972
  O   1.99928174043927     -1.00240600088489      1.01584109711327
