14
Coordinates from ORCA-job run
  C   -0.84448058776521      0.35277101120827      0.06283941920537
  C   0.70402610894037      0.45647678085244     -0.02610862317346
  Cl  -1.39174879169438      2.05926216935082     -0.10329417985210
  H   1.04760768471299      1.18261324813192      0.71414438186318
  C   -1.38966651778847     -0.41199883872852     -1.06159186870053
  N   -1.84773519420239     -1.00671392512160     -1.96519683162194
  N   -1.34661107115851     -0.17155859795526      1.28998158444402
  H   -1.21576360615267     -1.17258686314331      1.35406986619784
  H   -0.97401205228692      0.30907994590281      2.09903951351543
  C   1.18566834055114      0.81540507669848     -1.35178632482519
  N   1.56915107855390      1.09838687787762     -2.42592061628308
  N   1.34479125758206     -0.85733087881411      0.37499030424508
  O   0.77685951207494     -1.88447298197466      0.02136359690292
  O   2.38291383863314     -0.76933302428491      1.01846977808246
