18

C	0.0	0.0	0.0
C	-0.365546	-0.080763	-1.533508
Br	2.004449	0.0	0.0
H	0.36389	0.623183	-1.946783
N	-0.529739	1.153442	0.582049
H	-1.545681	1.118238	0.455017
H	-0.327886	1.171322	1.574575
N	-0.296237	-1.25759	0.887937
O	-0.387594	-1.037951	2.092056
O	-0.377423	-2.358391	0.361747
N	-1.658063	0.421443	-1.913668
H	-2.438961	-0.014954	-1.421739
H	-1.719838	1.41632	-1.733293
C	-0.137913	-1.428355	-2.212461
H	-0.131659	-1.238568	-3.288289
H	0.798196	-1.905351	-1.921749
H	-0.958459	-2.108721	-1.991334
Cl	-4.094851	0.0	0.0
