18

C	0.0	0.0	0.0
C	-0.529284	-0.167218	-1.427778
Br	1.940022	0.0	0.0
H	-1.583132	-0.418971	-1.270472
N	-0.515432	1.075639	0.772844
H	-1.540289	0.989542	0.760372
H	-0.25278	1.954708	0.347207
N	-0.365008	-1.286729	0.799773
O	0.057703	-1.351082	1.947178
O	-1.066274	-2.123128	0.245713
N	0.145568	-1.270347	-2.105089
H	-0.542002	-1.834663	-2.585003
H	0.810196	-0.916239	-2.783061
C	-0.47627	1.148243	-2.196673
H	0.548208	1.532831	-2.262571
H	-1.122761	1.900563	-1.743352
H	-0.846021	0.972245	-3.209856
Cl	-3.665539	0.0	0.0
