18

C	0.0	0.0	0.0
C	-0.606776	-0.105084	-1.394618
Br	1.998776	0.0	0.0
H	-1.645865	-0.396067	-1.164384
N	-0.518971	1.063606	0.72594
H	-0.295672	1.963079	0.332161
H	-0.307722	1.004201	1.710926
N	-0.298654	-1.263672	0.82867
O	-0.29607	-1.139643	2.046298
O	-0.469111	-2.313642	0.222426
N	0.113688	-1.036808	-2.260058
H	0.007739	-1.967721	-1.875523
H	-0.365735	-1.034322	-3.153796
C	-0.65176	1.263095	-2.058497
H	0.341355	1.721713	-2.095213
H	-1.005083	1.145014	-3.086234
H	-1.370823	1.904285	-1.548636
Cl	-3.894257	0.0	0.0
