18

C	0.0	0.0	0.0
C	-0.607128	-0.011743	-1.398265
Br	1.992251	0.0	0.0
H	-1.657626	-0.269843	-1.181796
N	-0.512842	1.027351	0.788257
H	-0.307782	0.894286	1.768063
H	-0.244717	1.942131	0.461396
N	-0.319918	-1.301679	0.753054
O	-0.257432	-1.260808	1.975347
O	-0.573749	-2.296577	0.087393
N	0.075298	-0.931042	-2.306505
H	-0.115336	-1.876211	-1.997252
H	-0.362035	-0.825963	-3.21565
C	-0.585365	1.387519	-1.99498
H	-0.956694	1.338942	-3.02234
H	-1.260646	2.045246	-1.447519
H	0.431368	1.792168	-2.022514
Cl	-3.912328	0.0	0.0
