18

C	0.0	0.0	0.0
C	-0.538184	-0.145009	-1.424955
Br	1.948308	0.0	0.0
H	-1.582032	-0.438103	-1.279304
N	-0.536593	1.105986	0.675407
H	-0.267788	1.072075	1.652957
H	-1.563324	1.020664	0.607284
N	-0.307977	-1.320693	0.795711
O	-0.078055	-1.266904	2.001612
O	-0.772095	-2.284391	0.204967
N	0.180423	-1.189313	-2.150534
H	0.732144	-0.781884	-2.895656
H	-0.477796	-1.849094	-2.539966
C	-0.520962	1.195251	-2.145979
H	-1.141182	1.929	-1.635784
H	-0.915325	1.048982	-3.156016
H	0.49932	1.58553	-2.218511
Cl	-3.620488	0.0	0.0
