18

C	0.0	0.0	0.0
C	-0.529877	0.188386	-1.456654
Br	1.93414	0.0	0.0
H	-1.587192	-0.090981	-1.369096
N	-0.499841	0.88988	0.981783
H	-1.521244	0.770283	0.990183
H	-0.285284	1.837166	0.701138
N	-0.366944	-1.428065	0.486047
O	-0.879669	-1.541479	1.586443
O	-0.104205	-2.355648	-0.277268
N	0.073615	-0.598149	-2.518381
H	-0.022978	-1.578393	-2.287257
H	1.067695	-0.399367	-2.560885
C	-0.468563	1.662453	-1.841026
H	0.54855	2.062397	-1.746509
H	-1.158149	2.260892	-1.246316
H	-0.769974	1.738865	-2.886454
Cl	-3.627784	0.0	0.0
