15

C	-0.522427	0.006542	-1.427367
C	0.0	0.0	0.0
Cl	-2.309402	0.00057	-1.513959
H	1.094069	0.0	0.0
N	-0.000789	1.300213	-2.094085
O	-0.760909	2.246847	-2.198723
O	1.175226	1.249593	-2.425319
C	-0.02133	-1.121158	-2.205419
N	0.370819	-2.029312	-2.839143
C	-0.46834	-1.202485	0.674744
N	-0.846768	-2.143118	1.27293
N	-0.352078	1.238913	0.667983
H	-1.168456	1.156081	1.258254
H	0.45178	1.512111	1.220612
F	2.480971	0.0	0.0
