15

C	-0.413767	0.061739	-1.487061
C	0.0	0.0	0.0
Cl	0.502025	1.322859	-2.320593
H	1.094602	0.0	0.0
N	-0.108899	-1.290178	-2.145451
O	-1.071725	-2.045749	-2.26382
O	1.051166	-1.521955	-2.435631
C	-1.839226	0.339665	-1.652496
N	-2.976989	0.637575	-1.677819
C	-0.568206	-1.193408	0.608928
N	-1.005453	-2.158449	1.120522
N	-0.358342	1.183803	0.747197
H	0.383904	1.85969	0.628478
H	-1.257065	1.58024	0.499714
F	2.4892	0.0	0.0
