15

C	-0.515946	0.040607	-1.4401
C	0.0	0.0	0.0
Cl	0.4108	1.213024	-2.385987
H	1.092683	0.0	0.0
N	-0.318199	-1.337526	-2.087129
O	0.820566	-1.773378	-2.071827
O	-1.314108	-1.889177	-2.551559
C	-1.934722	0.3856	-1.508934
N	-3.070509	0.689739	-1.487681
C	-0.52949	-1.176553	0.67261
N	-0.970266	-2.106419	1.244875
N	-0.349729	1.256924	0.647967
H	-1.11913	1.164533	1.297313
H	0.480712	1.572412	1.133813
F	2.490566	0.0	0.0
