15

C	-0.392545	0.034719	-1.456358
C	0.0	0.0	0.0
Cl	-0.127091	-1.527913	-2.262798
H	1.095821	0.0	0.0
N	-1.896024	0.350058	-1.653182
O	-2.234782	0.807678	-2.737515
O	-2.636958	0.07963	-0.717466
C	0.350327	1.078424	-2.160018
N	0.901053	1.92787	-2.756
C	-0.504819	-1.159765	0.713318
N	-0.864647	-2.071142	1.364842
N	-0.362827	1.288798	0.57472
H	0.42746	1.609642	1.122331
H	-1.192949	1.235275	1.150769
F	2.487216	0.0	0.0
