15
Coordinates from ORCA-job run
  C   -0.60985423486765      0.27720077987529      0.26346375837200
  C   0.70044582022859     -0.52987691096268      0.34682326549410
  H   -0.65271588798501      0.88604339780478      1.17489871357476
  H   0.68791661990676     -1.19394409143967      1.21582578300530
  N   -1.69332648229169     -0.69021266437944      0.13290375263849
  H   -2.55816466987179     -0.19781957803007     -0.05720849233822
  H   -1.82004822676220     -1.21545923264884      0.99194867330723
  N   -0.50805228061237      1.17307596377423     -0.85556526149458
  H   -1.15595305713432      1.94490463598755     -0.77578119542208
  H   -0.68024862139896      0.67704657010949     -1.72322978319356
  N   1.82494679447083      0.44366883877707      0.60082141430503
  O   2.67353185884437      0.60437667724946     -0.26384768874864
  O   1.76439402804963      1.01370822475539      1.68598222795201
  C   0.93549448049087     -1.28733403615097     -0.87456148747892
  N   1.09063385893294     -1.90337857472158     -1.86147367997291
