15
Coordinates from ORCA-job run
  C   -0.75212672517284     -0.13462967468210     -0.14560587995042
  C   0.67941585962998     -0.63425561841781      0.09610771656996
  H   -1.23219174934041     -1.00255011058546     -0.62702923068509
  H   0.66030871446131     -1.44432984543612      0.82913688862257
  N   -0.78056200599370      0.93758187892191     -1.09041883436721
  H   -0.37961910522000      1.77572181692508     -0.69187358534536
  H   -1.71842803246218      1.13292456020487     -1.41689896464323
  N   -1.33872685062269      0.17703795152514      1.15982098688128
  H   -2.23325179617629      0.62491794506614      0.99924001092903
  H   -1.51836564322414     -0.67722792400317      1.67697804813927
  N   1.62706416017957      0.39016118849866      0.70040950766363
  O   1.46323003765838      1.57045252697132      0.41406785192824
  O   2.52486008747119     -0.06155378522448      1.39945933887477
  C   1.27869507557397     -1.12765131059811     -1.14450193754863
  N   1.71869797323784     -1.52459959916586     -2.15789191706879
