15
Coordinates from ORCA-job run
  C   -0.55544187946368      0.34491326435966      0.30090194052365
  C   0.68211281018481     -0.57378735074338      0.31316766838368
  H   -0.45786215596490      1.00076719233066      1.17470460519655
  H   0.69692768830964     -1.18694650591520      1.21876356890184
  N   -1.72606534059541     -0.52423982544135      0.32680846932267
  H   -2.55951656723438      0.03501861394437      0.18825424532617
  H   -1.81410356618613     -0.99265532549066      1.22279653222765
  N   -0.48381494748698      1.16907481026840     -0.87380254625207
  H   -0.78355913715775      0.64926396343803     -1.69132379198437
  H   -1.04725393033359      2.00283614445675     -0.78059591900833
  N   1.90576113906856      0.30488365968736      0.40247480884782
  O   1.99959406815801      0.93575468082737      1.45088276987610
  O   2.67730737825032      0.34035200612484     -0.54467144825820
  C   0.73138693436429     -1.41319139119861     -0.87576791837081
  N   0.73552750608717     -2.09304393664824     -1.83259298473235
