15
Coordinates from ORCA-job run
  C   -0.45348183471393      0.45770992476149     -0.22673959567673
  C   0.59012296401674     -0.65234429507991     -0.04775948239327
  H   0.07721805022230      1.37713844948758     -0.50172078159461
  H   0.08486019632027     -1.60725286014764      0.10905225386094
  N   -1.20563125065325      0.55775204458154      1.02053495728152
  H   -2.04820663598928      1.09341923371190      0.84882767066152
  H   -0.66762646650373      1.05837399455068      1.71964115507227
  N   -1.26920852542452      0.05480119043920     -1.34474997781726
  H   -1.96004355699197     -0.62165868303165     -1.04012559148917
  H   -1.74073731490853      0.84419651537894     -1.76454202548753
  N   1.40893982552121     -0.41937428923220      1.19859666843755
  O   1.75114500532839      0.74003219995911      1.41927919817162
  O   1.67669928694107     -1.40096804850515      1.88018185990365
  C   1.50370596819096     -0.72098961061571     -1.18253447610604
  N   2.25124428864429     -0.75883576625817     -2.08694183282447
