15

C	-0.533422	0.068248	-1.421161
C	0.0	0.0	0.0
Cl	-0.229173	-1.535847	-2.224206
H	1.091663	0.0	0.0
H	-0.376241	-0.882238	0.522333
H	-0.335842	0.893204	0.540321
C	-2.03713	0.289155	-1.463792
H	-2.557497	-0.494108	-0.907019
H	-2.275313	1.255956	-1.008083
H	-2.40595	0.286112	-2.492472
C	0.221888	1.118972	-2.217741
H	1.293673	0.919246	-2.170421
H	0.038906	2.103318	-1.773405
H	-0.105926	1.13728	-3.260448
Cl	3.658821	0.0	0.0
