14

C	0.0	0.0	0.0
C	-0.388519	-0.152792	-1.537745
Cl	1.760287	0.0	0.0
H	0.533462	-0.463015	-2.040252
H	-0.404773	0.882228	0.47563
N	-0.407948	-1.163943	0.849313
O	-0.354378	-2.280079	0.338223
O	-0.645076	-0.93023	2.025798
C	-0.645416	1.225716	-1.988203
N	-0.774005	2.332007	-2.357503
N	-1.450024	-1.017576	-1.98869
H	-2.213374	-0.763536	-1.319876
H	-1.159219	-1.965569	-1.786747
F	-2.467847	0.0	0.0
