14

C	0.0	0.0	0.0
C	-0.440084	-0.126398	-1.464827
Cl	1.755966	0.0	0.0
H	-0.052332	0.795224	-1.919898
H	-0.373207	0.906897	0.456269
N	-0.46389	-1.114737	0.890053
O	-0.625202	-2.225175	0.394724
O	-0.564583	-0.84605	2.080759
C	-1.913622	-0.136967	-1.729403
N	-2.67486	-0.214619	-2.640153
N	0.241395	-1.226263	-2.157828
H	-0.091626	-1.178496	-3.115223
H	-0.139504	-2.08526	-1.77602
F	-2.44864	0.0	0.0
