14

C	0.0	0.0	0.0
C	-0.444194	-0.06279	-1.498717
Cl	1.757226	0.0	0.0
H	0.465213	-0.196462	-2.091955
H	-0.378708	0.874217	0.510619
N	-0.398428	-1.161376	0.870323
O	-0.715404	-0.880066	2.020283
O	-0.257303	-2.291148	0.420759
C	-0.935846	1.298154	-1.825023
N	-1.272695	2.356448	-2.207732
N	-1.35849	-1.124738	-1.862095
H	-1.576502	-1.004345	-2.846227
H	-2.178524	-0.890207	-1.261414
F	-2.4932	0.0	0.0
