14

C	0.0	0.0	0.0
C	-0.417995	-0.071632	-1.533094
Cl	1.756555	0.0	0.0
H	0.505763	-0.278169	-2.083424
H	-0.395057	0.862517	0.518121
N	-0.410025	-1.188777	0.811543
O	-0.346448	-2.291455	0.272327
O	-0.657659	-0.990189	1.992669
C	-0.799979	1.305092	-1.88449
N	-1.053794	2.399416	-2.224752
N	-1.425985	-0.984748	-2.011225
H	-2.195545	-0.795623	-1.333654
H	-1.078373	-1.921195	-1.847542
F	-2.459404	0.0	0.0
