14

C	0.0	0.0	0.0
C	-0.46147	0.001732	-1.493413
Cl	1.756961	0.0	0.0
H	0.444897	-0.049895	-2.106969
H	-0.370947	0.860699	0.538702
N	-0.401628	-1.177378	0.847776
O	-0.683362	-0.914515	2.011596
O	-0.292575	-2.299342	0.372702
C	-1.029119	1.348657	-1.745247
N	-1.385104	2.415158	-2.087324
N	-1.32777	-1.088656	-1.898868
H	-2.144582	-0.91635	-1.27994
H	-1.581509	-0.916915	-2.866692
F	-2.477509	0.0	0.0
