14

C	0.0	0.0	0.0
C	-0.297359	-0.111455	-1.55386
Cl	1.757112	0.0	0.0
H	0.575753	-0.621615	-1.970745
H	-0.430391	0.870746	0.473809
N	-0.438475	-1.188263	0.797576
O	-0.686395	-0.977565	1.978095
O	-0.401352	-2.281827	0.248694
C	-0.199172	1.294546	-2.028873
N	-0.154316	2.384389	-2.4689
N	-1.483931	-0.798412	-2.018015
H	-2.209587	-0.541336	-1.287798
H	-1.730439	-0.405913	-2.919615
F	-2.548204	0.0	0.0
