16

C	0.0	0.0	0.0
C	-0.634534	0.057089	-1.373824
F	1.352279	0.0	0.0
H	-1.814556	0.088794	-0.948637
N	-0.548029	1.173288	0.70599
O	-1.676224	0.875353	1.260778
O	-0.211649	2.300936	0.299772
C	-0.401807	-1.279408	0.721301
H	-1.485243	-1.4483	0.610758
H	0.148101	-2.113708	0.286674
H	-0.164808	-1.187093	1.783097
C	-0.440463	-1.164419	-2.114318
N	-0.253501	-2.156256	-2.719902
C	-0.307796	1.194794	-2.196749
N	-0.054089	2.041002	-2.975855
H	-2.690419	0.0	0.0
