16

C	0.0	0.0	0.0
C	-0.471605	-0.005069	-1.473995
F	1.349482	0.0	0.0
H	-1.565305	0.110272	-1.445652
N	-0.321805	1.49201	0.406271
O	0.502101	1.969568	1.272148
O	-1.560442	1.738606	0.551692
C	-0.545303	-1.161426	0.835141
H	-0.111092	-0.996987	1.803579
H	-1.605237	-1.255951	0.874207
H	-0.158302	-2.120111	0.424649
C	-0.148684	-1.296434	-2.119303
N	0.058548	-2.331589	-2.603893
C	0.147247	1.140767	-2.197018
N	0.574955	2.04707	-2.762059
H	-1.977022	0.0	0.0
