16

C	0.0	0.0	0.0
C	-0.422641	0.007892	-1.508165
F	1.352313	0.0	0.0
H	-1.552046	0.102829	-1.41856
N	-0.372619	1.301248	0.461233
O	-1.78258	1.46618	0.704268
O	0.458931	2.124416	1.066601
C	-0.393066	-1.21898	0.841093
H	-0.076917	-1.032299	1.869729
H	-0.037879	-2.151771	0.484983
H	-1.52866	-1.261656	0.886605
C	-0.124491	-1.261904	-2.136085
N	0.100561	-2.332986	-2.592757
C	0.129917	1.129141	-2.207076
N	0.578875	2.054954	-2.794847
H	-2.085703	0.0	0.0
