15

C	-0.473431	0.009357	-1.428904
C	0.0	0.0	0.0
Cl	0.041926	1.490989	-2.264536
H	1.093264	0.0	0.0
H	-0.342979	0.933758	0.456801
C	-0.021383	-1.147267	-2.200317
N	0.339262	-2.073439	-2.826765
N	-2.014195	-0.014444	-1.428395
O	-2.551687	-1.095954	-1.660276
O	-2.585877	1.011502	-1.082652
C	-0.482546	-1.21786	0.775064
H	-0.179072	-2.142574	0.277738
H	0.006775	-1.205708	1.75232
H	-1.566279	-1.243972	0.927881
H	2.793191	0.0	0.0
