15

C	-0.45264	-0.01262	-1.442256
C	0.0	0.0	0.0
Cl	0.204089	1.346954	-2.366659
H	1.093097	0.0	0.0
H	-0.324624	-0.94968	0.439557
C	-0.103979	-1.25848	-2.124741
N	0.163641	-2.261301	-2.675997
N	-1.99516	0.074838	-1.457974
O	-2.52897	1.161434	-1.64266
O	-2.570003	-0.969987	-1.159453
C	-0.526096	1.181088	0.798389
H	-1.608553	1.146359	0.96022
H	-0.029669	1.176495	1.771814
H	-0.277954	2.125614	0.311125
H	2.799884	0.0	0.0
