15

C	-0.497096	-0.011478	-1.431869
C	0.0	0.0	0.0
Cl	0.066561	-1.426471	-2.330872
H	1.093985	0.0	0.0
H	-0.343163	0.944472	0.433833
C	-1.957895	0.038162	-1.527789
N	-3.133113	0.03569	-1.574418
N	0.013505	1.279359	-2.121437
O	-0.489564	2.303541	-1.670781
O	0.844835	1.199663	-3.006399
C	-0.50355	-1.181751	0.813784
H	-0.128519	-2.120442	0.402856
H	-0.099469	-1.091194	1.824547
H	-1.595352	-1.231436	0.878733
H	2.860178	0.0	0.0
