15

C	-0.477917	-0.017707	-1.432306
C	0.0	0.0	0.0
Cl	0.17564	1.327187	-2.379923
H	1.093075	0.0	0.0
H	-0.323259	-0.944923	0.450945
C	-0.157666	-1.271783	-2.113
N	0.085641	-2.277593	-2.669582
N	-2.019905	0.088557	-1.418693
O	-2.604641	-0.954333	-1.133796
O	-2.538289	1.186971	-1.566553
C	-0.504895	1.189047	0.801692
H	-1.579613	1.152721	1.006887
H	0.032155	1.19983	1.75333
H	-0.280836	2.128168	0.29265
H	2.795059	0.0	0.0
