16
Coordinates from ORCA-job run
  C   -0.77842929249866      0.40894043675124     -0.24553800245548
  C   0.46102171744577     -0.35788943410095     -0.69686959202900
  F   -1.57103975233409      0.68159086691450     -1.31541420569176
  H   0.08863465433298     -1.22791570831415     -1.24645543161814
  N   -0.50855281990865      1.59506464603462      0.43866069252966
  H   -0.00498870979965      1.43439603827589      1.29929717345010
  H   -1.36316044151403      2.09931998380686      0.63984372790448
  N   -1.62245089825466     -0.61692708280635      0.58633936296737
  O   -1.98905476921779     -1.62463593170155     -0.00592231346835
  O   -1.82831104316907     -0.34374241061024      1.76530369009421
  C   1.33212342798909     -0.82001090454059      0.47532368906498
  H   2.15933611525529     -1.42258477178574      0.09918542008204
  H   0.75758189300789     -1.43295509864753      1.17220895471456
  H   1.75974690419139      0.03075423205955      1.00867707704057
  C   1.22569551557082      0.47795046333440     -1.62211231183428
  N   1.88184749890339      1.11964467533004     -2.35352793075095
