16
Coordinates from ORCA-job run
  C   -0.74856950367102      0.35695412353913     -0.20238866380264
  C   0.46882652566073     -0.46839118674856     -0.61291404582669
  F   -1.51211012264286      0.58077440260576     -1.34476473645915
  H   0.09108480380282     -1.32299633856211     -1.17975836446277
  N   -0.42456808788474      1.50906211027464      0.50897713903623
  H   -1.24920115472323      1.98605543275400      0.84852697705465
  H   0.16125391622769      2.12858330740572     -0.03590317831040
  N   -1.69391576055743     -0.48645525376571      0.65755413074351
  O   -1.71190872721780     -1.69225182639601      0.43798037857928
  O   -2.41771147794564      0.12140445759625      1.43779126626057
  C   1.30390617919302     -0.94348839011101      0.57871348413361
  H   1.62920003258772     -0.09469839920700      1.17916437537847
  H   2.18193106992899     -1.48293215210417      0.22029303188221
  H   0.71779280606656     -1.62064683482144      1.19988770502244
  C   1.27274173997375      0.36592727991265     -1.50884699682630
  N   1.93224776120145      1.06409926762787     -2.18431250240300
