16
Coordinates from ORCA-job run
  C   -0.74265693633047      0.04565135984473      0.03921478905058
  C   0.76294508281481      0.00242435761678      0.27610744253384
  F   -1.19553946283225     -1.24509799999724     -0.17046745609603
  H   1.05729599669451      0.97626253597095      0.67401884859985
  N   -1.12271082688389      0.94318758729573     -0.96880933403906
  H   -2.13434025315512      0.98857423910914     -1.02298795003398
  H   -0.74698994034082      0.66706626309034     -1.86601625227596
  N   -1.48543253144031      0.50502575158108      1.29617171919065
  O   -2.70739707830489      0.49537935913134      1.20189860981630
  O   -0.82648611229284      0.85282105248696      2.26846979101152
  C   1.52181206997540     -0.28617603952684     -1.02512676459555
  H   1.14216633411144     -1.19219583357654     -1.50051346504753
  H   1.43994604928080      0.55702543322643     -1.71279677583892
  H   2.57972189547255     -0.43441717112978     -0.80743727009033
  C   1.07892788832473     -1.01824090222626      1.27817527814097
  N   1.37973782490635     -1.85928999289682      2.03909878967366
