16

C	0.0	0.0	0.0
C	-0.583306	0.02703	-1.428464
F	1.420452	0.0	0.0
H	0.248101	0.31671	-2.082344
C	-0.294359	1.248609	0.748642
N	-0.352893	2.19387	1.442794
N	-0.472442	-1.103423	0.730025
H	-0.071601	-1.135482	1.656936
H	-0.307778	-1.950308	0.201689
N	-1.621117	1.029601	-1.467311
H	-2.431849	0.704067	-0.873855
H	-1.977409	1.093046	-2.416559
N	-0.972167	-1.35187	-1.777793
H	-1.890099	-1.47852	-1.345987
H	-1.123058	-1.381786	-2.780454
H	-3.742873	0.0	0.0
