16

C	0.0	0.0	0.0
C	-0.467606	0.087939	-1.452558
F	1.378846	0.0	0.0
H	-1.552668	0.249918	-1.375089
C	-0.333149	1.270778	0.713872
N	-0.515068	2.241268	1.350011
N	-0.5465	-1.163081	0.613754
H	-0.320096	-1.156628	1.603826
H	-1.582613	-1.003989	0.526383
N	-0.114472	-1.172795	-2.121732
H	-0.848484	-1.385478	-2.789069
H	-0.1469	-1.90461	-1.416998
N	0.160353	1.243091	-2.069986
H	1.086366	0.95379	-2.364865
H	-0.362467	1.492989	-2.900134
H	-3.081797	0.0	0.0
