16

C	0.0	0.0	0.0
C	-0.389617	-0.056427	-1.480846
F	1.445458	0.0	0.0
H	-1.488482	-0.074128	-1.449392
C	-0.338781	1.325265	0.571119
N	-0.438556	2.404967	1.021988
N	-0.525848	-1.038889	0.800636
H	-1.547793	-0.795171	0.813211
H	-0.46276	-1.876964	0.225714
N	0.108294	-1.322082	-2.001619
H	-0.240442	-1.409091	-2.94944
H	1.121483	-1.264888	-2.055786
N	0.054329	1.096414	-2.266421
H	-0.559349	1.880244	-2.063246
H	0.987832	1.362162	-1.963589
H	-2.98285	0.0	0.0
