17

C	-0.31536	0.048258	-1.504146
C	0.0	0.0	0.0
Cl	-0.050155	-1.653735	-2.224287
H	1.104108	0.0	0.0
C	-1.727793	0.333203	-1.786416
N	-2.851315	0.587512	-2.018894
N	0.530031	1.012047	-2.099337
H	1.491619	0.857127	-1.791955
H	0.474285	0.996593	-3.109083
N	-0.623431	-1.152198	0.638617
H	-0.544868	-1.018471	1.640667
H	-0.077131	-1.977163	0.417777
C	-0.490156	1.273885	0.672383
H	-1.582655	1.279046	0.736277
H	-0.076402	1.319634	1.683987
H	-0.149835	2.155494	0.130677
Cl	3.446056	0.0	0.0
