17

C	-0.508224	-0.004009	-1.453515
C	0.0	0.0	0.0
Cl	0.117327	1.415704	-2.357298
H	1.099068	0.0	0.0
C	0.019402	-1.198907	-2.146195
N	0.332662	-2.199579	-2.678795
N	-1.950399	0.034756	-1.460159
H	-2.305197	-0.177657	-2.385419
H	-2.240602	-0.692311	-0.809969
N	-0.532288	-1.242693	0.598475
H	-0.574758	-1.112601	1.603091
H	0.151812	-1.977317	0.441243
C	-0.504942	1.202478	0.776697
H	-0.034776	1.197072	1.764125
H	-1.591538	1.179251	0.887831
H	-0.219858	2.130938	0.283333
Cl	3.446925	0.0	0.0
