17

C	-0.511534	-0.001671	-1.455484
C	0.0	0.0	0.0
Cl	0.126648	1.4126	-2.357587
H	1.099043	0.0	0.0
C	0.001545	-1.201376	-2.14571
N	0.344334	-2.206692	-2.65247
N	-1.954718	0.053137	-1.459395
H	-2.246535	-0.677572	-0.813867
H	-2.305033	-0.160314	-2.386593
N	-0.533013	-1.243306	0.597035
H	0.152168	-1.976313	0.44124
H	-0.578743	-1.112057	1.60106
C	-0.505547	1.202798	0.775737
H	-0.037715	1.197173	1.764309
H	-1.592487	1.180999	0.883952
H	-0.217644	2.130905	0.283589
Cl	3.432137	0.0	0.0
