17

C	-0.467901	0.007296	-1.456111
C	0.0	0.0	0.0
Cl	-2.417938	0.046302	-1.400143
H	1.095965	0.0	0.0
C	-0.171773	1.245826	-2.174163
N	0.046158	2.236202	-2.76669
N	-0.008942	-1.110717	-2.128508
H	-0.394356	-1.241737	-3.050927
H	-0.084317	-1.921022	-1.524702
N	-0.376622	-1.298734	0.560931
H	0.345557	-1.580821	1.212289
H	-1.261788	-1.23435	1.050195
C	-0.465353	1.203487	0.803127
H	-0.19637	2.1395	0.307118
H	-1.546265	1.190105	0.966306
H	0.044475	1.186318	1.76911
Cl	3.381111	0.0	0.0
