17

C	-0.270492	0.024495	-1.53371
C	0.0	0.0	0.0
Cl	0.034642	-1.684399	-2.223086
H	1.098095	0.0	0.0
C	-1.686487	0.266953	-1.841872
N	-2.835548	0.447722	-2.015563
N	0.566189	0.997911	-2.120054
H	1.521882	0.871143	-1.780639
H	0.543255	0.966433	-3.130546
N	-0.502264	-1.140681	0.728662
H	0.051281	-1.955808	0.50447
H	-1.467258	-1.330734	0.481764
C	-0.5173	1.284834	0.631537
H	-0.18466	2.163935	0.07969
H	-0.129381	1.332518	1.649726
H	-1.612068	1.285379	0.678728
Cl	3.419707	0.0	0.0
