18
Coordinates from ORCA-job run
  C   0.81991288286341     -0.07673503648691     -0.17183596141382
  C   -0.63085708607906      0.26237126734495     -0.53423134359947
  H   1.19953075765089     -0.74772552339183     -0.96067961032225
  H   -0.58320733541469      0.77906634182542     -1.51256276701371
  C   0.95467091614920     -0.77951644167035      1.17040623980702
  H   0.53136493523484     -0.16248426816672      1.96233104932854
  H   2.00942412791498     -0.97025713373748      1.39315856792465
  H   0.44260812520169     -1.74294206396170      1.16670117891670
  N   1.56530913986660      1.18889352346138     -0.12083567184040
  H   1.67796172926457      1.55441407318582     -1.06051567035094
  H   2.49449530411507      1.02739417821699      0.25023009190955
  N   -1.18549753399877      1.11183263631952      0.51487867222267
  H   -2.07332234171409      1.49697152249893      0.21459483368909
  H   -0.53875467238325      1.87977365528010      0.66184967111409
  C   -1.49932402886845     -0.97378100723198     -0.71029119950204
  H   -1.05392503497971     -1.67401359041826     -1.42306848361613
  H   -1.64229254141511     -1.47628186003371      0.24747815409282
  H   -2.48709734340812     -0.69598027303418     -1.08960775134638
