18
Coordinates from ORCA-job run
  C   0.71190882613753     -0.37721000360339      0.21495926963517
  C   -0.61736103848941      0.34566373582649     -0.06986598208603
  H   0.47999318388690     -1.44963315576052      0.30293071647193
  H   -0.41351246223747      1.42555221495997     -0.03665595265336
  C   1.32696303303596      0.09534222098571      1.52429952158903
  H   2.23125881088576     -0.47745461180478      1.73612183228916
  H   1.60755024561528      1.15174795877353      1.44248700243736
  H   0.61973198274761     -0.00206479432859      2.34602059320753
  N   1.72022515853682     -0.25914085974075     -0.83797791313605
  H   1.93578039228295      0.71994553372906     -0.99472285464580
  H   1.37972314962503     -0.64224170389594     -1.71059434116308
  N   -1.54695021685066      0.05791527215401      1.02716393886052
  H   -2.39044682719437      0.60916809079751      0.91408315010702
  H   -1.82580288438856     -0.91725186330982      0.97222075303528
  C   -1.18688733032419     -0.00150371761492     -1.44629161501770
  H   -0.54825869833948      0.34058358050155     -2.26391582351977
  H   -1.31725354153496     -1.08575497402861     -1.54034801076654
  H   -2.16666178339475      0.46533707635949     -1.57991428464464
