18
Coordinates from ORCA-job run
  C   0.69599105194627     -0.32032820053253      0.04381510238378
  C   -0.70794135753787      0.25305017786301     -0.16902002177652
  H   0.59780150665789     -1.41262950921040      0.02473598129910
  H   -0.58742551938504      1.33959381478866     -0.34167637571535
  C   1.28765291774189      0.09088433753437      1.39140195211037
  H   2.31322090430364     -0.27707538173543      1.48439678997325
  H   0.70961865693102     -0.31410177469301      2.22440448408162
  H   1.31739540046747      1.18384272095302      1.47869945696937
  N   1.52822753168520      0.06294703448616     -1.10146804796903
  H   1.76183772942881      1.04815933739394     -1.02388458665726
  H   2.40367866565046     -0.44705328715951     -1.06900253548807
  N   -1.53735949410237     -0.03329104460130      1.00570921674116
  H   -2.51023596288257      0.13014645739060      0.77229733192362
  H   -1.30833733252709      0.60367983995064      1.75969991776896
  C   -1.36624928314090     -0.35831557161738     -1.39513409200301
  H   -0.71120160716847     -0.26985692623510     -2.26019143685232
  H   -1.56874079412733     -1.41628350457925     -1.20502245214879
  H   -2.31693301394101      0.13663148000350     -1.61776068464089
