15
Coordinates from ORCA-job run
  C   0.38771074438818      0.10583282661767     -0.33935915362920
  C   -0.62142110842293     -0.60166344070755      0.57977886593412
  F   0.41552195905727     -0.68975842344958     -1.49015738951361
  H   -0.82843041675921      0.00588100757047      1.46128342281638
  H   -0.26611589331391     -1.59276209576350      0.85448473370941
  C   1.76817779765849      0.06617534012973      0.28246940222460
  H   2.46454866990977      0.56367532137459     -0.39373447223320
  H   1.78386057456677      0.57299465454512      1.25050065663622
  H   2.08870336631715     -0.96703747395619      0.41756775577875
  N   0.06005711849180      1.43218332739020     -0.73876810965324
  H   -0.93406297327595      1.55269603583712     -0.87969259262917
  H   0.40719265046548      2.12009729555526     -0.08693505223037
  N   -1.91625480588429     -0.80912044904005     -0.12449031136704
  O   -2.24473533530974     -1.95997464842616     -0.39064728225350
  O   -2.56475234788890      0.20178072232287     -0.40130047359014
