15
Coordinates from ORCA-job run
  C   0.29583285872797      0.16798721539608     -0.51134030348685
  C   -1.15481624929027     -0.19767886068150     -0.20699401848551
  F   0.78075488608557     -0.74321268011610     -1.43768278443508
  H   -1.64692512084040     -0.45557198693095     -1.14239844150231
  H   -1.66014349654015      0.62442838339424      0.29661981416295
  C   1.21418041723265      0.10936810728651      0.69394866595950
  H   1.28916876167893     -0.90835052547125      1.07959372121867
  H   0.84994761362268      0.75758912883553      1.49350710538841
  H   2.20996075460047      0.43812713749617      0.39055768690447
  N   0.24518676266656      1.44034035865167     -1.20352798083780
  H   0.15248569685655      2.19751327970117     -0.53633668977993
  H   1.11961614826473      1.56660067194068     -1.70101863781327
  N   -1.22996647641465     -1.37242491811022      0.69735374518634
  O   -1.11380235885956     -2.48311792209734      0.18514273531801
  O   -1.34948019779108     -1.14359738929469      1.90157538220240
