15
Coordinates from ORCA-job run
  C   0.37025322094799      0.18606284538666     -0.20879241556450
  C   -0.66600716856171     -0.64614509169545      0.54032465968642
  F   0.42556450061477     -0.38038402553443     -1.51084872490239
  H   -0.94277272105425     -0.15702137664310      1.47443318116492
  H   -0.29697861084257     -1.65407386937941      0.71390687956133
  C   1.74368389312102     -0.00327809990566      0.39952587319590
  H   2.04707892962244     -1.04841046840189      0.32955554057413
  H   1.74709870437156      0.31449146572545      1.44282156103158
  H   2.46920425680476      0.60007976304736     -0.15052719930757
  N   0.01707849097392      1.55465456653277     -0.24125009328551
  H   0.69009807882367      2.08035286973061     -0.78386202677638
  H   -0.91092651882093      1.68408193200296     -0.62338687955067
  N   -1.91467839887841     -0.80559988516165     -0.26091705919322
  O   -2.26551537871525     -1.94630343381916     -0.54212211460723
  O   -2.51218127840701      0.22249280811493     -0.57786118202682
