14
Coordinates from ORCA-job run
  C   0.50835614952554      0.93304746011564     -0.32860253078549
  C   -0.60652630690851     -0.12124939487351     -0.31312704830679
  Cl  0.51455005412116      1.95420205396897      1.08994762011066
  H   -0.52720606435799     -0.65187773263524     -1.26859037589741
  H   0.43870781805482      1.56178278745021     -1.21569035407509
  N   1.81521886784074      0.17236216339600     -0.48414419106805
  O   2.58396976039634      0.08261480823720      0.46010730662670
  O   1.94393447363759     -0.34101117653132     -1.59225235585575
  C   -1.90133303545196      0.55891472194166     -0.28878698665036
  N   -2.94740315374073      1.09106724215476     -0.25958745294369
  C   -0.47645741440550     -1.11979147141747      0.83897655668534
  H   -0.51189528367406     -0.61226216139897      1.80270779852161
  H   -1.29591253479046     -1.83794383124571      0.79390440187077
  H   0.46299666975303     -1.66985546916220      0.76413761176757
