14
Coordinates from ORCA-job run
  C   0.94649793759025      0.10203263753708     -0.25146877247813
  C   -0.56727476313217      0.00336447923185     -0.08968784402689
  Cl  1.44681953629149     -0.24361036128187     -1.90580393907900
  H   -1.01449450224409      0.71398380389748     -0.79149280779951
  H   1.48462105949684     -0.56192915701254      0.42353466529742
  N   1.39950150036890      1.49920452005108      0.09953815528718
  O   0.80027933205398      2.42181104167121     -0.43941638307560
  O   2.32522139727348      1.58389221214820      0.89959982195799
  C   -0.90645989628395      0.43041156719885      1.27088110062515
  N   -1.16171890813154      0.74833750276901      2.37219372832425
  C   -1.08754556859981     -1.41300063646341     -0.35004759328600
  H   -0.89595821976335     -1.70685156862669     -1.38152744868719
  H   -0.60723075568722     -2.12947002644212      0.31961561938151
  H   -2.16325814923281     -1.44817601467813     -0.17391830244119
