14
Coordinates from ORCA-job run
  C   0.69171361278898      0.49180239387916     -0.79136688506607
  C   -0.68608673011464     -0.03916655915294     -0.39548388741046
  Cl  0.59702950273325      2.03380626812253     -1.62195272731027
  H   -1.22520855754745     -0.18330595394735     -1.33899857261741
  H   1.20298879988840     -0.22469865939310     -1.43164607473367
  N   1.55309346151813      0.59940006979531      0.44336934742697
  O   2.35345730154439     -0.32066758730068      0.59945930107327
  O   1.34482461825951      1.53207586900036      1.20675544516540
  C   -1.44515220983136      0.93766095158632      0.38858606317954
  N   -2.10903824941336      1.68186067883618      1.00780370194024
  C   -0.58430270784048     -1.37691454502963      0.34613226655291
  H   -0.12893814969692     -1.24958074109349      1.32887730379911
  H   -1.58213598767452     -1.79489030731347      0.48446927200046
  H   0.01675529538609     -2.08638187798920     -0.22600455400003
