14
Coordinates from ORCA-job run
  C   0.70192181710505      0.45814658678023     -0.80363769409999
  C   -0.68862157281402     -0.02611116107494     -0.39381084709832
  Cl  0.64570163925319      1.98516016661983     -1.66526133680532
  H   -1.23498716757015     -0.17040294226230     -1.33313927614616
  H   1.19054870629988     -0.28503774450983     -1.43108406804103
  N   1.57146703817926      0.56762758571454      0.42573404246224
  O   2.34172350029799     -0.37433679161139      0.60131856612157
  O   1.39779981020646      1.52535512467628      1.16635876939673
  C   -1.41565219650738      0.98400732876739      0.37829681190659
  N   -2.04763162094818      1.74436133986289      1.01113379317946
  C   -0.62371635848418     -1.35397941265199      0.36975853806557
  H   -1.63315160598093     -1.73836390866258      0.52081333970086
  H   -0.15873661712028     -1.22436695767034      1.34762355160130
  H   -0.04866537191674     -2.09105921397779     -0.19410419024352
