14
Coordinates from ORCA-job run
  C   0.62065771049458      0.91930733461098      0.08477268393424
  C   -0.60679521965742      0.09361344470074     -0.32198710829992
  Cl  0.70011319547112      1.24254993978503      1.80064700408673
  H   -0.56052705259971      0.01035920022966     -1.41362792644578
  H   0.65133276604890      1.86556654869343     -0.45440551860845
  N   1.83666894906356      0.14697803196751     -0.40228063142141
  O   1.93848805006832      0.13198201779542     -1.62591696749253
  O   2.56168222086776     -0.41748718228816      0.40162722727118
  C   -1.81585519337788      0.84503274273707      0.01492108957528
  N   -2.79540679761005      1.43272516086395      0.28585466940735
  C   -0.62541552242515     -1.30527405552136      0.29741932996484
  H   -1.52385821856803     -1.83439303548008     -0.02223626769461
  H   -0.62281711019061     -1.25116002400803      1.38586008236461
  H   0.24273222241463     -1.87980012408618     -0.02964766664153
