15

C	0.0	0.0	0.0
C	-0.603108	-0.134952	-1.386041
F	1.349766	0.0	0.0
H	-1.693579	-0.198024	-1.200369
H	-0.371147	-0.788509	0.654463
N	-0.371617	1.287509	0.701162
O	-0.819144	1.188683	1.837799
O	-0.08881	2.335346	0.122938
C	-0.145814	-1.420038	-1.918198
N	0.228441	-2.430497	-2.386022
C	-0.297864	0.975661	-2.393217
H	0.775514	1.153928	-2.477982
H	-0.788915	1.897259	-2.091727
H	-0.68644	0.6747	-3.368198
Cl	-3.5489	0.0	0.0
