15

C	0.0	0.0	0.0
C	-0.550445	-0.116581	-1.412092
F	1.349766	0.0	0.0
H	-1.647676	-0.115289	-1.277876
H	-0.380015	-0.798969	0.634267
N	-0.378262	1.270974	0.723257
O	-0.262746	2.33217	0.114137
O	-0.634342	1.152528	1.916338
C	-0.14508	-1.440342	-1.888462
N	0.201635	-2.485698	-2.297028
C	-0.102672	0.951326	-2.413811
H	0.976592	1.108934	-2.369793
H	-0.364404	0.624139	-3.420943
H	-0.605677	1.891457	-2.207779
Cl	-3.473947	0.0	0.0
