15

C	0.0	0.0	0.0
C	-0.390306	-0.052311	-1.590182
F	1.349852	0.0	0.0
H	-1.500139	-0.030323	-1.756427
H	-0.203047	-0.93909	0.557535
N	-0.369544	1.303622	0.924523
O	-1.701321	1.545858	1.391932
O	0.520838	2.129774	1.441443
C	0.000969	-1.312768	-2.189502
N	0.251275	-2.36931	-2.648174
C	0.022416	1.212266	-2.29829
H	-0.433111	2.040097	-1.746297
H	1.103591	1.323784	-2.273532
H	-0.352674	1.185191	-3.325094
Cl	-2.277899	0.0	0.0
