15

C	0.0	0.0	0.0
C	-0.535499	-0.232486	-1.395772
F	1.352625	0.0	0.0
H	-0.182826	-1.241551	-1.647162
H	-0.371456	-0.744016	0.705782
N	-0.384479	1.340471	0.59081
O	-0.719571	2.242275	-0.169121
O	-0.249493	1.422133	1.809267
C	0.095186	0.667373	-2.366993
N	0.596796	1.343349	-3.184627
C	-2.064452	-0.210437	-1.455898
H	-2.39905	-0.487884	-2.455666
H	-2.508014	-0.906343	-0.745019
H	-2.473275	0.765929	-1.217613
Cl	-5.004134	0.0	0.0
