15

C	0.0	0.0	0.0
C	-0.21723	-0.026577	-1.535069
F	1.358924	0.0	0.0
H	0.544188	0.690077	-1.869163
H	-0.408939	-0.838994	0.553221
N	-0.389392	1.236765	0.744918
O	-0.331954	2.3042	0.139874
O	-0.580071	1.096042	1.948041
C	-1.440018	0.383492	-2.223977
N	-2.19705	0.698028	-3.067742
C	0.226004	-1.403261	-2.080892
H	1.230988	-1.643383	-1.72417
H	0.252606	-1.355789	-3.174345
H	-0.465715	-2.200311	-1.790877
Cl	-3.065097	0.0	0.0
