10
Coordinates from ORCA-job run
  C   -0.37318646022806     -0.62611216361718     -0.37768162763521
  C   0.66948036611404      0.15117899423529     -0.01237773761981
  H   -0.28551096950796     -1.43699421908144     -1.09046474141251
  N   -1.73107162716167     -0.40068223081333      0.09557930392957
  O   -2.61017542464750     -0.86936151208597     -0.62770230525832
  O   -1.89015510136876      0.21839254439913      1.14402690073823
  C   0.60105178073218      1.26695435749766      0.88224351164732
  N   0.64625311733747      2.20937205570666      1.58612314799004
  C   1.95834752608833     -0.13930706885208     -0.57067507551893
  N   3.01596679264191     -0.37444075738874     -1.03007137686037
