10
Coordinates from ORCA-job run
  C   -0.76772719892612      0.16226015773042     -0.22498580521003
  C   0.51594050712449      0.44401418409040      0.08873843610883
  H   -1.46719395926739      0.90959033482585     -0.57934691951091
  N   -1.32471337610494     -1.18157700724410     -0.17596303868575
  O   -0.71703237047651     -2.04636074390047      0.44896984487280
  O   -2.38345002677453     -1.31997446504338     -0.78946041139075
  C   0.95270613050013      1.80515741356752     -0.03400297687740
  N   1.30837267063021      2.92242318560505     -0.13453202590439
  C   1.49873282768767     -0.50195107311358      0.52412095545140
  N   2.38336479560700     -1.19458198651772      0.87546194114619
