10
Coordinates from ORCA-job run
  C   -0.36610103052225     -0.54682485668567     -0.48348998628092
  C   0.66480079731898      0.16751158081054      0.01912173308050
  H   -0.25993882093374     -1.22873031687487     -1.31837259343234
  N   -1.73130405614277     -0.43140016410449      0.00809605100720
  O   -2.58797866495517     -0.89903702857578     -0.74312436684622
  O   -1.91996221968249      0.10428992957254      1.09666361683832
  C   0.58621571566200      1.11106018030197      1.09301024296825
  N   0.63320661042435      1.91407002004090      1.95253792903887
  C   1.95962944167272     -0.01811083770372     -0.57020275048314
  N   3.02143222715839     -0.17382850678142     -1.05323987589050
