10
Coordinates from ORCA-job run
  C   -0.78182695844030      0.23288518602760     -0.04701233862975
  C   0.55628080970126      0.39958300703632      0.03840760392212
  H   -1.48352385524316      1.05713418407904     -0.00902553686204
  N   -1.41819667617681     -1.07352849961667     -0.13580791195934
  O   -2.62400560492149     -1.07406217991556      0.11480558967331
  O   -0.72911800602289     -2.04252826358366     -0.44144715172716
  C   1.06041760574838      1.73796244165569      0.15117118643343
  N   1.47207851129776      2.83675788160701      0.24117034900599
  C   1.53279359405059     -0.64758296669367      0.03320583693838
  N   2.41510058000666     -1.42662079059611      0.05253237320506
