10
Coordinates from ORCA-job run
  C   -0.40506852316364     -0.57822446304509     -0.41180374417839
  C   0.65513106994132      0.18859351176601     -0.07460772293654
  H   -0.34357385749132     -1.38870611027589     -1.12774924188848
  N   -1.71893031738736     -0.43419906834869      0.19847343597098
  O   -2.47088561943618     -1.39444821492426      0.02780169850907
  O   -1.96906222742103      0.59611692982390      0.81745835737555
  C   0.65062578924282      1.24686026932020      0.89000154443760
  N   0.76339555100018      2.12202615752849      1.66920065157930
  C   1.90649585351281     -0.07183073856407     -0.72604796378628
  N   2.93187228120241     -0.28518827328059     -1.26272701508281
