10
Coordinates from ORCA-job run
  C   -0.75239891322189      0.18223898876044     -0.26084337212083
  C   0.52326913384570      0.42921291813287      0.10943924950783
  H   -1.41355867302152      0.94801399342439     -0.64798065921798
  N   -1.34714428383366     -1.14604090208717     -0.23456821358992
  O   -0.79203090766784     -2.02475092862043      0.41893697405874
  O   -2.38097751135184     -1.25782388996924     -0.89431423177691
  C   1.00212865506705      1.77774539738329      0.00773055682794
  N   1.39180159598744      2.88497711060413     -0.07684818127890
  C   1.45901004198629     -0.54109463727936      0.59188956810426
  N   2.30990086221027     -1.25247805034891      0.98655830948578
