10
Coordinates from ORCA-job run
  C   -0.78278493008502      0.22360307093428      0.06885597829701
  C   0.55756192530591      0.39410705428789      0.06427415601256
  H   -1.48163437269608      1.04367742399214      0.18081541874537
  N   -1.42326836295980     -1.06735834251109     -0.13633715593348
  O   -0.74619662360468     -2.08430827606290     -0.01457307231562
  O   -2.61979607157540     -1.00645730562655     -0.42153787625977
  C   1.53287813446734     -0.63798174320193     -0.11858273666798
  N   2.41544215896681     -1.40175143862939     -0.27189721279816
  C   1.06554708291345      1.72310206453597      0.24793601761827
  N   1.48125105926748      2.81336749228157      0.40104648330180
