10
Coordinates from ORCA-job run
  C   -0.76918900429273      0.19597592714777     -0.19241041148804
  C   0.53430434409666      0.42264946799205      0.08194809169237
  H   -1.45387154637031      0.97874983853145     -0.49533829261234
  N   -1.37172460802134     -1.12902527330491     -0.16476004036348
  O   -0.76694560774053     -2.03742972944671      0.39757607365504
  O   -2.46357554137232     -1.20727682142189     -0.72919629175954
  C   1.01448223555672      1.77148510665995     -0.00890717331296
  N   1.40662407193070      2.87861299358733     -0.08278557600187
  C   1.49809672451480     -0.57047870052847      0.44937610285671
  N   2.37079893169836     -1.30326280921659      0.74449751733411
