10
Coordinates from ORCA-job run
  C   -0.42614443397922     -0.54343564889974     -0.43657892480617
  C   0.66203864590464      0.16646535617594     -0.06571662815015
  H   -0.39533061960835     -1.31994391037521     -1.19121713807704
  N   -1.73473579545898     -0.37687645509606      0.17891275663590
  O   -1.94436345786670      0.63016468989104      0.84921387890940
  O   -2.52552197157356     -1.29487350323114     -0.04181143504323
  C   1.90307490005245     -0.11176640301681     -0.72934329329739
  N   2.91995176594161     -0.34026258838256     -1.27588362738685
  C   0.69781688460166      1.17782137630828      0.94713962006461
  N   0.84321408198645      2.01170708662625      1.76528479115091
