10
Coordinates from ORCA-job run
  C   -0.77811765260568      0.23296562919940     -0.08506287721234
  C   0.55614747851777      0.39871008959821      0.04839285082911
  H   -1.47690843358554      1.06045775563704     -0.10257177129661
  N   -1.41621057412065     -1.07327779678119     -0.15938307299807
  O   -2.63181757467777     -1.06193185906653      0.03770620878144
  O   -0.71897288541798     -2.05400325956680     -0.40289528103221
  C   1.05975819839611      1.73892463539893      0.14002666352951
  N   1.47105223307129      2.83911578330028      0.21319945923413
  C   1.52830925440572     -0.65018462209878      0.11664822462131
  N   2.40675995601673     -1.42977635562057      0.19593959554372
