10
Coordinates from ORCA-job run
  C   -0.38926447178039     -0.48855399127901     -0.52816932812542
  C   0.66053740576253      0.19522623045401     -0.02142525974699
  H   -0.31558894088872     -1.16580535871262     -1.37088163343662
  N   -1.72668281262043     -0.42151146153401      0.04092997601371
  O   -2.01258252216821      0.52294087151557      0.77204771733415
  O   -2.45971007694630     -1.36104012382691     -0.27126249743122
  C   0.61286420663822      1.05407426787035      1.12135163655949
  N   0.69914875761006      1.74749466528578      2.06877385011419
  C   1.93661312745434      0.03308345130956     -0.65814185828029
  N   2.99366532693890     -0.11790855108272     -1.15222260300099
