10
Coordinates from ORCA-job run
  C   -0.78586557801946      0.22132501767462      0.02951505335500
  C   0.55233864140429      0.40698395388643      0.00030084344729
  H   -1.49316063915892      1.03290406247222      0.14921615679810
  N   -1.40992033079789     -1.09187226351858     -0.03773425315892
  O   -0.73683975458963     -2.04263865379275     -0.42574440488380
  O   -2.58969505000920     -1.11752405670509      0.31480500893512
  C   1.04594243589898      1.75033245566660      0.10062382767939
  N   1.44802220463033      2.85352210779215      0.17977355868695
  C   1.53875217796153     -0.62430054251646     -0.11558156003084
  N   2.43042589267997     -1.38873208095916     -0.19517423082828
