10
Coordinates from ORCA-job run
  C   -0.77558713901702      0.18849859900567     -0.17415857076867
  C   0.53423884570372      0.42625818334150      0.05671114492075
  H   -1.47180161241385      0.96165020503447     -0.47546117475761
  N   -1.37055679458652     -1.13792338253876     -0.09987505025168
  O   -2.47452733067770     -1.23541171587121     -0.63696660121831
  O   -0.74862679534698     -2.02897416274764      0.47162493286581
  C   1.00551159903612      1.77453534205787     -0.07819781727380
  N   1.39003765442234      2.88138946643643     -0.18785333185009
  C   1.51307570261457     -0.55385350058578      0.41898595974443
  N   2.39823587026532     -1.27516903413254      0.70519050858918
