10
Coordinates from ORCA-job run
  C   -0.78344538637036      0.22568293019646     -0.05422771476266
  C   0.55343010442297      0.40405930225179      0.02633236871539
  H   -1.49038156590037      1.04634578985831     -0.04470958996654
  N   -1.41132453447069     -1.08664780435801     -0.10444585387345
  O   -0.71459305947759     -2.06081225543015     -0.37436519400620
  O   -2.61852518680427     -1.08670966935271      0.13921937790115
  C   1.04800102286110      1.74875442705682      0.09952588004525
  N   1.45250289919603      2.85238782004658      0.15775435817305
  C   1.53759967904675     -0.63537617659789      0.05591993252274
  N   2.42673602749644     -1.40568436367121      0.09899643525127
