10
Coordinates from ORCA-job run
  C   -0.78351301637977      0.24130231473865     -0.02046275844730
  C   0.55759091289850      0.39961009262674      0.00987275568595
  H   -1.47901904516943      1.06875746656631      0.04905846011817
  N   -1.42472332902131     -1.06415056994827     -0.07671931183274
  O   -2.58667703215086     -1.08211549737286      0.32946315967723
  O   -0.77984858749887     -2.01510757184261     -0.50970797193801
  C   1.07788757507648      1.73317136483537      0.10137034928267
  N   1.50291710227854      2.82812667824569      0.17515502780471
  C   1.52207982005718     -0.65788844983807     -0.02671619625238
  N   2.39230559990954     -1.45070582801094     -0.03231351409830
