10
Coordinates from ORCA-job run
  C   -0.78383854719360      0.22968430917258      0.01105169106084
  C   0.55634503838912      0.40120190065814      0.00270465341860
  H   -1.48355456584926      1.05118698595827      0.10521221219627
  N   -1.42091886188751     -1.07788132562831     -0.04601077030447
  O   -0.75140044686685     -2.04167331373368     -0.40690741055406
  O   -2.60707026653210     -1.08516770682436      0.28523717944804
  C   1.06202406231350      1.74075768651346      0.09284731433208
  N   1.47497901821248      2.84037316790603      0.16563316911244
  C   1.53425344671550     -0.64136388418904     -0.07933829065110
  N   2.41918112269873     -1.41611781983308     -0.12842974805864
