10
Coordinates from ORCA-job run
  C   -0.79254919668311      0.19703744306196      0.03983964904740
  C   0.53772039316282      0.42546594273610     -0.02257891762432
  H   -1.52329951997724      0.98805304627179      0.15660303992940
  N   -1.37331934092824     -1.13761069799009      0.01560664701966
  O   -0.68553720195459     -2.06950215862602     -0.39170619089556
  O   -2.53503853647622     -1.19831863911167      0.41975770817975
  C   1.55418022785595     -0.57645458171635     -0.13564495741537
  N   2.46675814060497     -1.31589740715017     -0.21411189597137
  C   0.98990113321543      1.78546921405831      0.04103771086416
  N   1.35918390118023      2.90175783846615      0.09119720686624
