10
Coordinates from ORCA-job run
  C   -0.78932270202345      0.17560994361179     -0.12007098218115
  C   0.52250173026622      0.44000367292639      0.06553996179912
  H   -1.52389888515307      0.94472296779836     -0.32485280612223
  N   -1.33666649260398     -1.17327615379567     -0.12644442271438
  O   -0.66872811123449     -2.07973341995324      0.36317856343652
  O   -2.45187470074129     -1.27155639339177     -0.63951527181447
  C   0.94538391642126      1.80996928035480      0.01738500321010
  N   1.29032118589569      2.93444862110151     -0.02152905738466
  C   1.54717608203591     -0.53254253583620      0.29866515683044
  N   2.46410797713721     -1.24664598281596      0.48564385494071
