10
Coordinates from ORCA-job run
  C   -0.51976215670216     -0.35274775514294     -0.52349243581923
  C   0.67363041224726      0.09740951301878     -0.07758538147924
  H   -0.66072985206789     -0.77225405425646     -1.51213848454267
  N   -1.74523774765960     -0.27305319842035      0.25830804025793
  O   -2.77880742337997     -0.44977810746544     -0.38764799228642
  O   -1.65957090498694     -0.04221651236276      1.46125131981992
  C   0.92074113792086      0.69468021724853      1.20010547367205
  N   1.23582579783188      1.20767959401706      2.21173478341692
  C   1.80339215423245     -0.01229339686195     -0.95495500700136
  N   2.73051858256410     -0.09942629977446     -1.67458031603790
