10
Coordinates from ORCA-job run
  C   -0.52092975886219     -0.40090466784525     -0.48522629393986
  C   0.67891959194822      0.07887753183647     -0.09034416735433
  H   -0.68745363565464     -0.89849915828049     -1.43212470115227
  N   -1.72922938388710     -0.24671022844452      0.31727824090575
  O   -2.77568769092192     -0.36214726841738     -0.31939921351302
  O   -1.62005197517316     -0.03926633781447      1.51978868861221
  C   1.79479822387578     -0.10988748992747     -0.96912175473364
  N   2.69027840507811     -0.27167765182581     -1.71487407344056
  C   0.93364502516818      0.80211544367990      1.11846344322048
  N   1.23571119842872      1.44809982703901      2.05555983139523
