10
Coordinates from ORCA-job run
  C   -0.42331216508365     -0.51930904256315     -0.46620524774137
  C   0.65214691963258      0.19904907907987     -0.07514537251753
  H   -0.39417367396339     -1.22608436405997     -1.28660897865797
  N   -1.71099517650846     -0.46051504315583      0.20993386743292
  O   -2.47433077995471     -1.38877088241179     -0.05916526506575
  O   -1.93152868466732      0.47678069743606      0.97178764516967
  C   1.87404205031014      0.02884916397622     -0.80757810881259
  N   2.87445102507639     -0.10990062420282     -1.41163363672012
  C   0.69241718337749      1.11881117097475      1.02127996376764
  N   0.84028330178094      1.88308984492667      1.90433513314511
