10
Coordinates from ORCA-job run
  C   -0.49603797381561     -0.23429640997357     -0.60483135017592
  C   0.67802381728305      0.10025040384141     -0.02577175576092
  H   -0.59297556778229     -0.44891371779148     -1.66212124171339
  N   -1.75728746036166     -0.28512207895042      0.12023663594286
  O   -2.75970435654463     -0.30435049091095     -0.59490120916064
  O   -1.72812507303961     -0.30427223089522      1.34756017431989
  C   0.86819009756014      0.43080298491819      1.35424276557953
  N   1.13608734865381      0.72966296703503      2.46090771955073
  C   1.84727745948202      0.14141135751066     -0.85598317223029
  N   2.80555170856477      0.17382721521633     -1.53833856635186
