10
Coordinates from ORCA-job run
  C   -0.78429088916154      0.22375290626240     -0.02941513706258
  C   0.55405144640880      0.40475750860129      0.01477853452418
  H   -1.49240211986304      1.04243037026181      0.01022442766842
  N   -1.41088058722299     -1.08928459221742     -0.07675995591053
  O   -2.61230501461098     -1.09408238178232      0.19443357102437
  O   -0.71925109636988     -2.05970018340974     -0.37232524779186
  C   1.04612131495511      1.75027127434943      0.09074469984164
  N   1.44627732724721      2.85524813102857      0.15306933316099
  C   1.54120878719256     -0.63214400416308      0.00360289074467
  N   2.43147083142477     -1.40224902893094      0.01164688380070
