10
Coordinates from ORCA-job run
  C   -0.77875657260650      0.24218489060275     -0.04770681836936
  C   0.56194740589503      0.39187107864005      0.02723076187569
  H   -1.46816928714288      1.07734248524861     -0.02505923258416
  N   -1.43414446353429     -1.05622195718220     -0.10761676043727
  O   -0.75989160282655     -2.04125247873749     -0.39464861433238
  O   -2.63920142290205     -1.03434472792120      0.14524596752202
  C   1.52445493595011     -0.66799501281621      0.04090507404371
  N   2.39697014030928     -1.45760846782086      0.07257032798413
  C   1.08460700534143      1.72533826049179      0.11138478256741
  N   1.51218386151641      2.81968592949474      0.17869451173021
