10
Coordinates from ORCA-job run
  C   -0.73397278746984      0.17951088119510     -0.31038626891603
  C   0.52669959251754      0.42552093193708      0.10887608779233
  H   -1.35882462403133      0.93197032156172     -0.77581830963391
  N   -1.35860757983907     -1.13296002255314     -0.23227545280107
  O   -2.36702937399870     -1.26290956855126     -0.92724752504965
  O   -0.85067405016342     -1.98251090826206      0.49412436460740
  C   1.41655269728424     -0.53039853526829      0.69573274515113
  N   2.23103105619621     -1.23332967769152      1.17352909553484
  C   1.03885312528655      1.75629196171667     -0.04894326972060
  N   1.45697194421782      2.84881461591568     -0.17759146696443
