10
Coordinates from ORCA-job run
  C   -0.75309323362019      0.18916348446848     -0.25374340070222
  C   0.52698248481222      0.42419434551310      0.10887057162106
  H   -1.41448119947568      0.96485075487338     -0.62038854846859
  N   -1.35560713755027     -1.13591489707656     -0.24126432912404
  O   -2.40667913427666     -1.22744768916198     -0.87658842158714
  O   -0.79012582886882     -2.03180026957233      0.37915825593339
  C   1.01037704332734      1.77272841938385      0.02973916108527
  N   1.40464142290689      2.87992460377720     -0.02956621178708
  C   1.46320091156495     -0.55819393563704      0.56557917912852
  N   2.31478467118023     -1.27950481656808      0.94020374390082
