10
Coordinates from ORCA-job run
  C   -0.78988064072313      0.20197390690999     -0.05288013382077
  C   0.54364109249545      0.41667885584427     -0.02195570968794
  H   -1.51581734840487      1.00458782651591     -0.10109964662713
  N   -1.38702360953394     -1.12293383135112      0.03116605652391
  O   -2.59006503807782     -1.12749191895062      0.29477667825717
  O   -0.67146507371160     -2.10221549847151     -0.15943433207058
  C   1.55364032360421     -0.59325388319807      0.07818708142224
  N   2.46305401069026     -1.33524378024519      0.16887415349390
  C   1.00704672652120      1.77287383668094     -0.08845073948759
  N   1.38686955714023      2.88502448626541     -0.14918340800322
