16

C	-0.424562	0.048914	-1.457266
C	0.0	0.0	0.0
Br	-2.364584	0.157382	-1.68791
H	1.096028	0.0	0.0
H	-0.014286	0.937471	-1.927231
N	0.058583	-1.111968	-2.280732
O	-0.35436	-2.235458	-2.005472
O	0.842758	-0.837025	-3.185672
C	-0.492644	-1.191218	0.804808
H	-0.096287	-1.094658	1.818574
H	-1.586507	-1.214507	0.851499
H	-0.142644	-2.136057	0.391608
N	-0.387892	1.298318	0.562199
H	-1.216121	1.19919	1.136675
H	0.372809	1.622829	1.146718
Br	3.510561	0.0	0.0
