16

C	-0.593484	-0.024181	-1.394558
C	0.0	0.0	0.0
Br	0.16944	-1.382383	-2.547639
H	1.092856	0.0	0.0
H	-1.670184	-0.188048	-1.36108
N	-0.437816	1.294407	-2.103435
O	0.576429	1.94718	-1.890135
O	-1.354795	1.610493	-2.861743
C	-0.470757	-1.227108	0.766631
H	-0.002837	-1.225205	1.754595
H	-1.560659	-1.216808	0.887954
H	-0.171768	-2.148258	0.265927
N	-0.549191	1.21684	0.625059
H	0.148782	1.949964	0.524548
H	-0.652891	1.047838	1.619784
Br	3.631519	0.0	0.0
