16

C	-0.520661	-0.007335	-1.439314
C	0.0	0.0	0.0
Br	0.26024	-1.375269	-2.561294
H	1.093537	0.0	0.0
H	-1.602148	-0.144082	-1.477151
N	-0.293589	1.333702	-2.081273
O	-1.314142	1.977639	-2.3485
O	0.858123	1.714279	-2.237788
C	-0.500879	-1.234639	0.7332
H	-0.142416	-2.153332	0.26669
H	-1.597675	-1.255244	0.768197
H	-0.123881	-1.191678	1.755135
N	-0.439098	1.203148	0.698975
H	-1.39983	1.444356	0.477249
H	0.163714	1.980633	0.457089
Br	3.615006	0.0	0.0
