16

C	-0.419239	-0.008659	-1.460742
C	0.0	0.0	0.0
Br	0.29372	1.488109	-2.455944
H	1.101998	0.0	0.0
H	-0.064997	-0.911312	-1.954394
N	-1.923318	-0.03522	-1.586272
O	-2.554216	1.011866	-1.635396
O	-2.413005	-1.168372	-1.568823
C	-0.459699	-1.263997	0.71382
H	0.01824	-1.292057	1.696907
H	-1.543666	-1.281135	0.844095
H	-0.146049	-2.159071	0.173264
N	-0.566862	1.16915	0.679401
H	-0.232702	1.133192	1.637075
H	-0.143534	2.000668	0.277703
Br	3.586923	0.0	0.0
