14

C	0.0	0.0	0.0
C	-0.59682	0.042497	-1.395517
Cl	1.782768	0.0	0.0
H	-1.72579	0.11031	-1.037443
H	-0.338709	0.880893	0.549509
C	-0.432824	-1.188654	0.748692
N	-0.576527	-2.152056	1.408048
C	-0.359247	-1.22293	-2.206885
H	-0.764684	-1.105248	-3.214208
H	-0.878093	-2.056676	-1.725381
H	0.704629	-1.468452	-2.290855
C	-0.179621	1.237338	-2.091
N	0.119649	2.2058	-2.691553
H	-2.766965	0.0	0.0
