14

C	0.0	0.0	0.0
C	-0.62519	0.061263	-1.374036
Cl	1.782672	0.0	0.0
H	-1.787863	0.11755	-0.941036
H	-0.330548	0.867105	0.574864
C	-0.414587	-1.201478	0.742496
N	-0.610324	-2.164971	1.391285
C	-0.423727	-1.194484	-2.20959
H	0.631802	-1.457456	-2.319352
H	-0.946743	-2.024575	-1.729833
H	-0.846138	-1.054858	-3.204191
C	-0.230355	1.254736	-2.066567
N	0.052542	2.24314	-2.650371
H	-2.763431	0.0	0.0
