14

C	0.0	0.0	0.0
C	-0.543952	-0.012159	-1.42814
Cl	1.782655	0.0	0.0
H	-1.658963	0.066323	-1.158303
H	-0.352374	0.901717	0.503107
C	-0.448654	-1.162813	0.775759
N	-0.588451	-2.099009	1.474295
C	-0.244228	-1.298663	-2.185624
H	-0.729514	-2.13473	-1.675491
H	0.829602	-1.49732	-2.2509
H	-0.644533	-1.237759	-3.199967
C	-0.095997	1.161993	-2.151601
N	0.242336	2.107066	-2.766727
H	-2.743109	0.0	0.0
