16

C	0.0	0.0	0.0
C	-0.514272	0.075541	-1.461737
Cl	1.793184	0.0	0.0
H	-1.614678	0.097533	-1.245517
N	-0.516743	1.024944	0.855969
H	-0.280112	1.92372	0.442555
H	-1.548669	0.852375	0.742365
C	-0.391088	-1.310238	0.558286
N	-0.613852	-2.360322	1.03427
C	-0.136862	-1.106674	-2.348208
H	0.945666	-1.199298	-2.464175
H	-0.584033	-0.985537	-3.33799
H	-0.528714	-2.02663	-1.909866
C	-0.098175	1.340418	-2.050949
N	0.222909	2.358209	-2.545035
F	-2.747203	0.0	0.0
