16

C	0.0	0.0	0.0
C	-0.405997	-0.146829	-1.50449
Cl	1.849601	0.0	0.0
H	0.484809	-0.52142	-2.020369
N	-0.502882	1.182299	0.599358
H	-0.268783	1.15303	1.587321
H	-1.547099	0.957991	0.495292
C	-0.31256	-1.241249	0.742414
N	-0.453806	-2.200778	1.407188
C	-0.799324	1.193022	-2.122828
H	-0.926292	1.066579	-3.201572
H	-1.739668	1.505403	-1.67507
H	-0.026507	1.939354	-1.932332
C	-1.431417	-1.161544	-1.783079
N	-2.085628	-2.017177	-2.253284
F	-2.615376	0.0	0.0
