16

C	0.0	0.0	0.0
C	-0.221086	-0.171079	-1.560281
Cl	1.834273	0.0	0.0
H	0.506298	0.532746	-1.976729
N	-0.601924	1.202501	0.427235
H	-1.649578	0.905332	0.314851
H	-0.416287	1.31955	1.42047
C	-0.369758	-1.208883	0.763124
N	-0.589295	-2.18058	1.387799
C	-1.556623	0.156573	-2.228042
H	-2.363635	-0.449502	-1.834441
H	-1.410521	0.028173	-3.307043
H	-1.81143	1.195434	-2.022421
C	0.222248	-1.508099	-1.97412
N	0.548028	-2.561514	-2.379104
F	-2.789857	0.0	0.0
