16

C	0.0	0.0	0.0
C	-0.437535	-0.032363	-1.508597
Cl	1.791462	0.0	0.0
H	0.457604	-0.307575	-2.077371
N	-0.514616	1.138985	0.684769
H	-0.23873	1.068347	1.660248
H	-1.554119	0.9141	0.595056
C	-0.338706	-1.28777	0.654461
N	-0.506575	-2.295156	1.23687
C	-0.93228	1.326318	-2.002076
H	-1.082368	1.277351	-3.084259
H	-0.208882	2.108412	-1.769517
H	-1.877257	1.52652	-1.503714
C	-1.418186	-1.069719	-1.852228
N	-2.065025	-1.892418	-2.389805
F	-2.641574	0.0	0.0
