14

C	0.0	0.0	0.0
C	-0.571664	0.106188	-1.398068
Cl	1.791692	0.0	0.0
H	-0.019396	0.868925	-1.959115
H	-0.295986	-0.96117	0.422902
H	-1.616513	0.416296	-1.24988
C	-0.50848	1.121888	0.881577
H	-0.097973	1.050052	1.891799
H	-1.602544	1.026401	0.904515
H	-0.228656	2.093045	0.461346
N	-0.487071	-1.183572	-2.100368
H	-0.663202	-1.017562	-3.085344
H	-1.287	-1.720125	-1.769054
H	-3.39369	0.0	0.0
