14

C	0.0	0.0	0.0
C	-0.541645	-0.031389	-1.406738
Cl	1.803267	0.0	0.0
H	-0.275408	0.912012	-1.912461
H	-0.282627	-0.937363	0.4809
H	-1.635032	-0.062112	-1.258553
C	-0.540318	1.176566	0.776408
H	-0.250144	2.119877	0.303844
H	-1.636208	1.066815	0.759987
H	-0.17613	1.173923	1.807114
N	-0.109847	-1.23049	-2.127495
H	0.844961	-1.109525	-2.448095
H	-0.699331	-1.346335	-2.943248
H	-3.425679	0.0	0.0
