11

C	0.0	0.0	0.0
C	-0.471957	0.461212	-1.402093
Br	1.949905	0.0	0.0
H	0.375708	0.816042	-1.998391
H	-0.326457	-1.010132	0.217951
H	-1.214482	1.243469	-1.272352
C	-0.445827	0.887969	1.069275
N	-0.564733	1.62785	1.976217
C	-1.115483	-0.629073	-2.127633
N	-1.522537	-1.487407	-2.817296
F	-2.338891	0.0	0.0
