15

C	-0.290752	-0.117607	-1.490222
C	0.0	0.0	0.0
F	-1.635642	-0.434767	-1.724075
H	1.092158	0.0	0.0
H	-0.139178	0.88972	-1.886701
C	0.625629	-1.074845	-2.21677
H	0.326068	-2.102231	-2.028271
H	0.598035	-0.877881	-3.292889
H	1.628344	-0.90968	-1.812986
N	-0.433061	-1.181625	0.780161
O	-0.968065	-0.998621	1.873912
O	-0.17573	-2.289479	0.31256
C	-0.567535	1.204481	0.568695
N	-0.971375	2.226599	0.984464
F	2.509929	0.0	0.0
