15

C	-0.286825	-0.110206	-1.491365
C	0.0	0.0	0.0
F	-1.633744	-0.423589	-1.730372
H	1.092128	0.0	0.0
H	-0.132829	0.900941	-1.881051
C	0.632652	-1.066827	-2.218647
H	0.327865	-2.095778	-2.041645
H	0.617274	-0.857238	-3.291424
H	1.632477	-0.909067	-1.806838
N	-0.444468	-1.184925	0.771938
O	-0.207581	-2.290255	0.291133
O	-0.979878	-1.006223	1.866521
C	-0.563939	1.202562	0.578663
N	-0.963797	2.216481	1.01786
F	2.511993	0.0	0.0
