15

C	-0.397197	0.075192	-1.471428
C	0.0	0.0	0.0
F	-0.083827	-1.160769	-2.038899
H	1.091911	0.0	0.0
H	-1.476176	0.204489	-1.601839
C	0.438202	1.146164	-2.135503
H	1.472595	0.986104	-1.819189
H	0.11135	2.138748	-1.81466
H	0.340475	1.075155	-3.220584
N	-0.604977	-1.226431	0.611138
O	-1.828596	-1.351193	0.515234
O	0.141209	-2.027363	1.161765
C	-0.521133	1.152145	0.710828
N	-0.937591	2.104786	1.260226
F	2.542385	0.0	0.0
