15

C	-0.370047	0.0903	-1.480751
C	0.0	0.0	0.0
F	-0.068553	-1.151469	-2.043067
H	1.091864	0.0	0.0
H	-1.443672	0.238673	-1.633458
C	0.502321	1.141276	-2.128579
H	0.427568	1.071779	-3.217853
H	1.52669	0.957774	-1.785787
H	0.190789	2.141093	-1.816556
N	-0.607059	-1.243618	0.572704
O	0.13357	-2.047158	1.125614
O	-1.8254	-1.381915	0.439177
C	-0.537463	1.138593	0.718243
N	-0.965582	2.082981	1.272722
F	2.545191	0.0	0.0
