15

C	-0.43003	0.067451	-1.460656
C	0.0	0.0	0.0
F	-0.104294	-1.155693	-2.047386
H	1.091895	0.0	0.0
H	-1.514869	0.17479	-1.566955
C	0.361504	1.166255	-2.134938
H	1.406166	1.039157	-1.840022
H	0.008426	2.146921	-1.805858
H	0.247595	1.095356	-3.218374
N	-0.605336	-1.201959	0.66047
O	0.145319	-2.004398	1.202385
O	-1.835099	-1.297189	0.624878
C	-0.509	1.162592	0.708598
N	-0.916616	2.117157	1.261051
F	2.538711	0.0	0.0
