15

C	-0.277449	-0.088797	-1.494975
C	0.0	0.0	0.0
F	-1.635537	-0.335306	-1.751809
H	1.09212	0.0	0.0
H	-0.067653	0.916669	-1.873914
C	0.597451	-1.085176	-2.221267
H	1.604831	-0.965986	-1.813722
H	0.250646	-2.100413	-2.042491
H	0.580954	-0.87795	-3.294458
N	-0.460656	-1.188412	0.752511
O	-0.145804	-2.290131	0.306849
O	-1.088935	-1.018655	1.799168
C	-0.561911	1.204768	0.578148
N	-0.95053	2.228239	1.005623
F	2.507885	0.0	0.0
