16

C	-0.305102	0.062632	-1.510341
C	0.0	0.0	0.0
Cl	0.10549	-1.536508	-2.222979
H	1.092191	0.0	0.0
C	-1.704834	0.331035	-1.842951
N	-2.803345	0.60264	-2.1599
C	0.639789	1.110338	-2.096713
H	1.636181	0.866986	-1.706862
H	0.345928	2.103037	-1.745969
H	0.599065	1.087632	-3.186445
N	-0.612177	-1.212797	0.624981
O	-1.844475	-1.268955	0.639368
O	0.145236	-2.072193	1.062294
C	-0.525103	1.177491	0.662544
N	-0.922113	2.155262	1.18121
F	2.526951	0.0	0.0
