16

C	-0.390626	-0.069933	-1.486013
C	0.0	0.0	0.0
Cl	0.054241	1.527104	-2.199132
H	1.090419	0.0	0.0
C	0.402388	-1.069454	-2.209271
N	0.929702	-1.856921	-2.904434
C	-1.876171	-0.290252	-1.7374
H	-2.084793	-0.247833	-2.807651
H	-2.167848	-1.268542	-1.355126
H	-2.444114	0.49301	-1.23218
N	-0.384148	-1.226146	0.730143
O	-0.459045	-2.274729	0.082207
O	-0.519356	-1.146182	1.951195
C	-0.562801	1.150925	0.665459
N	-1.011567	2.103348	1.190745
F	2.418336	0.0	0.0
