16

C	-0.395623	-0.086695	-1.483449
C	0.0	0.0	0.0
Cl	0.055868	1.499573	-2.216038
H	1.091175	0.0	0.0
C	0.391944	-1.099122	-2.195291
N	0.924294	-1.882177	-2.890658
C	-1.883694	-0.301952	-1.729415
H	-2.095566	-0.269219	-2.799671
H	-2.180103	-1.27472	-1.336369
H	-2.447137	0.489562	-1.231869
N	-0.375798	-1.219735	0.743936
O	-0.473209	-2.271508	0.105601
O	-0.482563	-1.131346	1.965316
C	-0.566624	1.154564	0.656113
N	-1.027191	2.106204	1.171862
F	2.41787	0.0	0.0
