15

C	-0.415484	-0.107749	-1.450964
C	0.0	0.0	0.0
F	-0.031012	1.072784	-2.119451
H	1.094686	0.0	0.0
H	0.159205	-0.910517	-1.920551
N	-1.815508	-0.342428	-1.634822
H	-2.033014	-0.317835	-2.624385
H	-2.328661	0.407652	-1.18325
C	-0.371032	-1.261604	0.782175
H	0.037498	-1.185772	1.792277
H	-1.447154	-1.448827	0.830146
H	0.117156	-2.113963	0.301522
C	-0.584802	1.183705	0.598887
N	-1.101039	2.127247	1.077269
F	2.577068	0.0	0.0
