15

C	-0.180956	-0.103673	-1.516747
C	0.0	0.0	0.0
F	-1.416092	-0.69775	-1.863348
H	1.097677	0.0	0.0
H	-0.245249	0.897559	-1.965259
N	0.892101	-0.907829	-2.011833
H	1.736428	-0.691791	-1.451143
H	1.067345	-0.711371	-2.988055
C	-0.475601	-1.255831	0.72502
H	0.012614	-2.116781	0.26811
H	-0.181415	-1.211449	1.776409
H	-1.558699	-1.384903	0.659535
C	-0.581293	1.210058	0.541878
N	-1.066387	2.183817	0.989402
F	2.659184	0.0	0.0
