15

C	-0.181577	0.082968	-1.536533
C	0.0	0.0	0.0
F	-0.263646	-1.236301	-2.01375
H	1.09617	0.0	0.0
H	-1.119915	0.564168	-1.841534
N	0.936883	0.727845	-2.14856
H	0.759536	1.719846	-2.233731
H	1.76369	0.569402	-1.545175
C	-0.609211	-1.213163	0.686171
H	-0.43545	-1.162256	1.76378
H	-0.124861	-2.110153	0.304809
H	-1.687719	-1.294426	0.511468
C	-0.470588	1.251766	0.563396
N	-0.880223	2.268533	0.991214
F	2.658009	0.0	0.0
