15

C	-0.182866	-0.09642	-1.516972
C	0.0	0.0	0.0
F	-1.416126	-0.69471	-1.863897
H	1.096743	0.0	0.0
H	-0.25336	0.906742	-1.960632
N	0.89311	-0.892239	-2.01785
H	1.066034	-0.688568	-2.992875
H	1.736418	-0.679142	-1.455007
C	-0.475025	-1.25974	0.718818
H	-0.174811	-1.223195	1.768726
H	-1.559065	-1.385216	0.658345
H	0.007666	-2.119227	0.252469
C	-0.581136	1.206704	0.549131
N	-1.065829	2.177334	1.003698
F	2.658965	0.0	0.0
