15

C	-0.450316	0.018894	-1.451565
C	0.0	0.0	0.0
F	-0.100352	1.242351	-2.002754
H	1.094904	0.0	0.0
H	0.108037	-0.758079	-1.986675
N	-1.866275	-0.163022	-1.721552
H	-2.113203	-1.122911	-1.510502
H	-2.387366	0.434054	-1.085245
C	-0.3569	-1.327528	0.671017
H	0.087658	-1.353724	1.667768
H	-1.43404	-1.507334	0.761419
H	0.099258	-2.139787	0.097644
C	-0.583677	1.114569	0.719139
N	-1.107312	1.99516	1.297425
F	2.571853	0.0	0.0
