15

C	-0.182232	0.052643	-1.53709
C	0.0	0.0	0.0
F	-0.239104	-1.275456	-1.990989
H	1.097804	0.0	0.0
H	-1.127881	0.514789	-1.850916
N	0.928225	0.69977	-2.165808
H	0.758195	1.694665	-2.224154
H	1.758919	0.536276	-1.569623
C	-0.607981	-1.200574	0.707903
H	-0.427684	-1.134487	1.783705
H	-0.128021	-2.105145	0.336716
H	-1.687507	-1.282258	0.540139
C	-0.474019	1.259919	0.542424
N	-0.883229	2.275127	0.974562
F	2.658002	0.0	0.0
