15

C	-0.432192	-0.010913	-1.45824
C	0.0	0.0	0.0
F	-0.125807	1.221143	-2.013486
H	1.094965	0.0	0.0
H	0.169838	-0.764553	-1.975922
N	-1.830443	-0.255519	-1.750584
H	-2.394481	0.305482	-1.1191
H	-2.039446	-1.228973	-1.567978
C	-0.348566	-1.321969	0.686622
H	-1.424728	-1.510085	0.780597
H	0.113307	-2.137367	0.121706
H	0.099788	-1.333509	1.681437
C	-0.599166	1.117957	0.698095
N	-1.136554	1.99933	1.263206
F	2.573019	0.0	0.0
