15

C	-0.177446	-0.125631	-1.514864
C	0.0	0.0	0.0
F	-1.412933	-0.719937	-1.856733
H	1.096616	0.0	0.0
H	-0.234025	0.869673	-1.979097
N	0.894358	-0.942507	-1.993803
H	1.070866	-0.762755	-2.973308
H	1.737914	-0.717886	-1.435846
C	-0.478919	-1.244806	0.74183
H	0.003028	-2.11445	0.29342
H	-1.563219	-1.369023	0.68001
H	-0.182461	-1.188942	1.791876
C	-0.58088	1.21779	0.523728
N	-1.065724	2.197208	0.958485
F	2.658521	0.0	0.0
