15

C	-0.453756	-0.012988	-1.451451
C	0.0	0.0	0.0
F	-0.082398	1.186416	-2.036264
H	1.094915	0.0	0.0
H	0.087005	-0.814062	-1.966143
N	-1.871516	-0.171528	-1.714131
H	-2.139543	-1.125528	-1.512291
H	-2.382062	0.436261	-1.0805
C	-0.359771	-1.309703	0.703143
H	0.080246	-1.309811	1.702191
H	0.102269	-2.135079	0.153432
H	-1.437839	-1.490285	0.7925
C	-0.582049	1.133054	0.691109
N	-1.106635	2.026916	1.248937
F	2.57102	0.0	0.0
