15
Coordinates from ORCA-job run
  C   0.55288420800276     -0.68294001403292     -0.09780132132520
  C   -0.55421403169405      0.35454579529605     -0.18733319512603
  F   0.38277706685928     -1.56112818244604     -1.16420802278521
  H   -0.46933076340897      0.92830444618092     -1.11115950416425
  H   0.41490154224781     -1.26586999114720      0.81907787789368
  C   1.92693868880510     -0.06627969631140     -0.17128679473903
  H   2.07906704671345      0.62418278230601      0.65744392247265
  H   2.68380395856303     -0.85118332442961     -0.13217554383033
  H   2.04147878833889      0.47741013128434     -1.11148248520123
  N   -0.54242775094460      1.20306567262049      0.95520916775402
  H   -1.19035541723191      1.97312499205897      0.85436264477656
  H   -0.78487086952315      0.67483752801951      1.78504466243189
  N   -1.86249516282770     -0.41533003953559     -0.33792099814043
  O   -2.45410866102000     -0.34218172174036     -1.40964477849762
  O   -2.22504864287994     -1.05055837812317      0.65087436848053
