13

C	0.0	0.0	0.0
C	-0.483321	-0.021053	-1.448609
Br	1.937593	0.0	0.0
H	-1.600212	-0.006943	-1.258312
H	-0.134171	0.885309	-1.945549
N	-0.437405	1.294396	0.676801
O	-0.514695	2.283183	-0.037161
O	-0.565324	1.260766	1.889848
C	-0.454989	-1.142313	0.782115
N	-0.600792	-2.136028	1.393919
C	-0.036451	-1.200539	-2.161207
N	0.294002	-2.14461	-2.778626
F	-2.499166	0.0	0.0
