13

C	0.0	0.0	0.0
C	-0.431941	-0.194482	-1.457308
Br	1.93743	0.0	0.0
H	-1.539176	-0.102758	-1.361078
H	0.007923	0.605845	-2.053481
N	-0.451894	1.365023	0.496105
O	-0.533976	2.245634	-0.348052
O	-0.570689	1.499262	1.702234
C	-0.42643	-1.049813	0.914508
N	-0.70317	-1.867012	1.712867
C	-0.013024	-1.483886	-1.977611
N	0.323032	-2.507944	-2.446092
F	-2.436776	0.0	0.0
