13

C	0.0	0.0	0.0
C	-0.294793	0.111624	-1.512258
Br	1.939266	0.0	0.0
H	0.336434	0.924522	-1.884435
H	0.09673	-0.798972	-1.972238
N	-0.396809	1.236013	0.765096
O	-0.476169	2.263353	0.110991
O	-0.474102	1.121777	1.983423
C	-0.47007	-1.192192	0.661712
N	-0.749703	-2.196961	1.20208
C	-1.649165	0.347047	-2.002335
N	-2.484299	0.585994	-2.802514
F	-2.257752	0.0	0.0
