13

C	0.0	0.0	0.0
C	-0.295617	-0.01632	-1.51514
Br	1.939764	0.0	0.0
H	0.33763	0.747882	-1.971453
H	0.068874	-0.98248	-1.880437
N	-0.41006	1.302287	0.65314
O	-0.526492	1.293236	1.868644
O	-0.470553	2.278364	-0.080151
C	-0.479312	-1.147944	0.748962
N	-0.582569	-2.162154	1.337456
C	-1.659004	0.19052	-2.012766
N	-2.480783	0.366437	-2.840253
F	-2.26662	0.0	0.0
