14
Coordinates from ORCA-job run
  C   0.77981186923523      0.51016352406711     -0.22603083881246
  C   -0.33585363181535     -0.41186627876421      0.33429063343995
  Br  0.50692895683546      0.79754720899265     -2.15221918013189
  H   -0.20014518997133     -0.46649571250769      1.41768658542726
  C   2.06080843425032     -0.16969079252003     -0.04303288038718
  N   3.10051377293825     -0.68947518437363      0.13188629741223
  C   0.83314779062368      1.81815774927398      0.42314963338028
  N   0.94272885330081      2.86840114964064      0.94126021007513
  N   -0.27695505648920     -1.68650614429995     -0.25458582060847
  H   -0.80892620839325     -2.36584176715995      0.27165878517580
  H   -0.60351001868053     -1.67241094487704     -1.21237279270750
  N   -1.68107811518638      0.31616991075400      0.16025976688485
  O   -1.87651898197229      1.26920166721351      0.90746510311236
  O   -2.44095247467542     -0.11635438543938     -0.69841550226037
