14
Coordinates from ORCA-job run
  C   0.98108539877349      0.27611047445608      0.17855785007035
  C   -0.21972036748018     -0.70673757995203      0.09247343362693
  Br  2.62694044703943     -0.77771375945358      0.03792379014457
  H   -0.08982464288418     -1.48029562967047      0.84955988161996
  C   1.01149035454783      0.98732226860113      1.45382371194017
  N   1.03675807846407      1.55652989519253      2.48292695736079
  C   0.94333895599612      1.22223415533630     -0.93422703478534
  N   0.89616118619967      1.96246141855458     -1.84639652234117
  N   -0.33507233129866     -1.24109920719111     -1.20483021993420
  H   -0.92026472541813     -2.06508178361104     -1.22374452976124
  H   -0.68472104725348     -0.55272651606003     -1.86260797516518
  N   -1.45510333494187      0.08312471251049      0.55118833592619
  O   -1.80461887393002     -0.06530896330584      1.71845953646238
  O   -1.98444909781410      0.80118051459299     -0.29310721516420
