14
Coordinates from ORCA-job run
  C   0.67518431226228      0.68155456651439     -0.04619694144607
  C   -0.21989370306662     -0.58605378595490     -0.01002902566194
  Br  -0.36930244750748      2.22272724243655     -0.67793966140684
  H   0.37405006436534     -1.39084301560529      0.43123993260603
  C   1.75701016900391      0.44134267901920     -0.99953609377733
  N   2.65255485039180      0.24384836508087     -1.73507712620983
  C   1.24772822208080      1.02331189953783      1.25409813618356
  N   1.76226983864114      1.31049066162557      2.27188235022960
  N   -0.66377725507799     -0.92489415129723     -1.29995911481806
  H   -1.01280749262197     -1.87273238304731     -1.33686861728029
  H   -1.38017234347830     -0.28930155315391     -1.62777551384070
  N   -1.34340553754645     -0.34195585805348      1.01323108805273
  O   -2.47043465431944     -0.15691740822966      0.56854082006960
  O   -1.00900402312704     -0.36157725887264      2.19338976729954
