14
Coordinates from ORCA-job run
  C   0.92142267251079      0.40575123290979     -0.02975351827036
  C   -0.22534605576619     -0.59744026191680      0.20499164455203
  Br  2.52364215286746     -0.66556404345556     -0.46541177408819
  H   0.04118629783027     -1.22266775590490      1.06969275666756
  C   1.23481538969590      1.14283427665465      1.19145723783801
  N   1.51428236320870      1.68959434120866      2.19389861908771
  C   0.65402014170179      1.29550788539908     -1.15456265173163
  N   0.47732095601100      2.01439324501877     -2.06736800627539
  N   -0.57868217276285     -1.27731715489988     -1.00641066354222
  H   -1.39516872515539     -1.85333394099643     -0.83669140436038
  H   0.18073370683571     -1.87043664030067     -1.31548037271996
  N   -1.47443176975001      0.14649043539792      0.63475256428425
  O   -1.44071863934881      1.36981396922057      0.70496775548175
  O   -2.43407631787838     -0.57662558833518      0.87591781307683
