15

C	-0.52198	0.011303	-1.474662
C	0.0	0.0	0.0
Br	0.197889	1.572239	-2.42828
H	1.115556	0.0	0.0
N	-0.047797	-1.17903	-2.249653
O	-0.561218	-1.197589	-3.451098
O	1.273932	-1.252619	-2.244476
C	-2.067276	0.00157	-1.491179
N	-2.673105	-1.000754	-1.121236
N	-0.415611	-1.202052	0.755069
O	0.16859	-2.281032	0.249144
O	-0.143699	-1.047611	2.044848
C	-0.381485	1.328625	0.705947
N	0.427897	2.258216	0.693606
H	2.485291	0.0	0.0
