15

C	-0.455613	0.001978	-1.440284
C	0.0	0.0	0.0
Br	-2.401785	0.093648	-1.597068
H	1.115077	0.0	0.0
N	0.132598	1.125913	-2.251226
O	1.473636	1.096814	-2.146515
O	-0.414362	1.303736	-3.405622
C	-0.073672	-1.2376	-2.298775
N	-0.356352	-1.529532	-3.387494
N	-0.482969	-1.126148	0.849597
O	-1.73409	-1.090162	1.133126
O	0.391529	-1.52409	1.72936
C	-0.305305	1.231346	0.863413
N	0.142172	1.529245	1.896053
H	2.481527	0.0	0.0
