15

C	-0.580497	0.181165	-1.384444
C	0.0	0.0	0.0
Br	0.113473	1.851539	-2.142785
H	1.114236	0.0	0.0
N	-0.11946	-0.92132	-2.358688
O	-0.923093	-1.23902	-3.224671
O	1.023082	-1.317888	-2.221603
C	-2.033531	0.24461	-1.400581
N	-3.204247	0.355537	-1.355288
N	-0.388574	-1.265714	0.562936
O	-0.861178	-2.129761	-0.205319
O	-0.083662	-1.455661	1.750341
C	-0.370061	1.082734	0.878616
N	-0.627628	1.996638	1.573598
H	2.279245	0.0	0.0
