15

C	-0.584842	-0.135412	-1.375514
C	0.0	0.0	0.0
Br	-2.549436	-0.381697	-1.366338
H	1.116026	0.0	0.0
N	-0.268517	1.175654	-2.164746
O	0.850325	1.619251	-1.948189
O	-1.092573	1.598198	-2.95714
C	-0.013867	-1.201834	-2.189285
N	0.412976	-1.978853	-2.963194
N	-0.270309	-1.147534	0.825019
O	-0.403748	-2.240569	0.248179
O	-0.1615	-0.995104	2.050415
C	-0.406487	1.226608	0.637771
N	-0.675425	2.271137	1.109249
H	2.25908	0.0	0.0
