17

C	-0.235322	-0.039763	-1.508078
C	0.0	0.0	0.0
Cl	-1.994371	0.139898	-1.939253
H	1.092251	0.0	0.0
N	0.488791	1.006505	-2.189918
H	0.13056	1.904478	-1.883012
H	1.452575	0.927451	-1.845922
N	0.20673	-1.339115	-1.928084
H	0.342843	-1.279385	-2.932112
H	1.11759	-1.504968	-1.495387
N	-0.531018	-1.185185	0.707614
O	0.226117	-2.145731	0.826982
O	-1.696173	-1.14092	1.101467
N	-0.421457	1.196031	0.723556
O	-0.696739	2.22212	0.092268
O	-0.341286	1.133398	1.95182
H	2.5349	0.0	0.0
