17

C	-0.22791	0.021133	-1.510054
C	0.0	0.0	0.0
Cl	-1.980574	-0.172516	-1.949177
H	1.092235	0.0	0.0
N	0.204171	1.323482	-1.937364
H	0.324776	1.261334	-2.94385
H	1.123846	1.486501	-1.520997
N	0.508417	-1.026733	-2.177442
H	0.149505	-1.925266	-1.870838
H	1.465276	-0.946707	-1.819348
N	-0.410596	-1.191946	0.735978
O	-0.346115	-1.116157	1.96667
O	-0.655544	-2.229258	0.112563
N	-0.535863	1.192088	0.69161
O	-1.708032	1.15635	1.062874
O	0.224046	2.1471	0.822478
H	2.528567	0.0	0.0
