17

C	-0.374529	-0.021203	-1.497245
C	0.0	0.0	0.0
Cl	-0.207664	-1.848924	-1.979483
H	1.086996	0.0	0.0
N	-1.699038	0.326648	-1.918647
H	-1.836347	1.291792	-1.6385
H	-2.364694	-0.256656	-1.425886
N	0.573642	0.78282	-2.126891
H	1.516015	0.602179	-1.762088
H	0.515081	0.706127	-3.13271
N	-0.573173	-1.134717	0.761232
O	0.184331	-1.924008	1.309299
O	-1.807013	-1.194147	0.784204
N	-0.443405	1.201939	0.714994
O	-0.363266	1.145365	1.946777
O	-0.779314	2.207823	0.079531
H	2.567169	0.0	0.0
