17

C	-0.367194	-0.014383	-1.495263
C	0.0	0.0	0.0
Cl	0.129677	-1.723511	-2.052347
H	1.087331	0.0	0.0
N	-1.732672	0.270677	-1.728421
H	-2.313142	-0.387948	-1.223048
H	-1.91205	0.223829	-2.725095
N	0.450862	0.868133	-2.275078
H	0.241273	1.802946	-1.937557
H	1.42325	0.676647	-2.013622
N	-0.537926	-1.133336	0.787458
O	0.159513	-1.536002	1.714886
O	-1.645963	-1.591051	0.484715
N	-0.446725	1.219707	0.659351
O	-0.090508	2.287094	0.142606
O	-1.071903	1.133732	1.723434
H	2.50657	0.0	0.0
