17

C	-0.432903	-0.057683	-1.466219
C	0.0	0.0	0.0
Cl	0.230504	1.506463	-2.226792
H	1.086848	0.0	0.0
N	0.188658	-1.207856	-1.997176
H	0.076956	-1.211444	-3.002518
H	1.176408	-1.213091	-1.741374
N	-1.833533	-0.076093	-1.790877
H	-2.259852	0.746486	-1.381209
H	-2.231692	-0.898265	-1.347754
N	-0.428592	-1.247161	0.682749
O	0.346081	-2.198129	0.66899
O	-1.55537	-1.254069	1.194942
N	-0.528861	1.099506	0.799348
O	-0.073022	1.171523	1.945442
O	-1.33427	1.903013	0.309681
H	2.517971	0.0	0.0
