17

C	-0.535208	-0.037577	-1.428485
C	0.0	0.0	0.0
Cl	0.335395	-1.305863	-2.361672
H	1.086347	0.0	0.0
N	-1.931693	-0.425015	-1.430857
H	-2.422641	0.250434	-0.854382
H	-2.290071	-0.377605	-2.376199
N	-0.168764	1.213043	-2.073789
H	-0.152093	1.095585	-3.077407
H	-0.833375	1.926972	-1.801539
N	-0.414229	-1.183308	0.777141
O	-1.301938	-1.062888	1.63933
O	0.162207	-2.242117	0.497369
N	-0.447866	1.163755	0.735018
O	-1.338616	1.918911	0.27169
O	0.150866	1.38139	1.79724
H	2.437362	0.0	0.0
