17

C	-0.534254	0.028006	-1.434214
C	0.0	0.0	0.0
Cl	0.338039	1.290568	-2.37849
H	1.086347	0.0	0.0
N	-0.164406	-1.223465	-2.072552
H	-0.198553	-1.115069	-3.078039
H	-0.80476	-1.943623	-1.763627
N	-1.928777	0.418585	-1.427328
H	-2.42546	-0.262552	-0.861108
H	-2.286085	0.382538	-2.37673
N	-0.435261	-1.162695	0.741214
O	-1.295125	-1.944792	0.271941
O	0.151649	-1.34733	1.816727
N	-0.414547	1.195178	0.766892
O	0.150179	2.244009	0.465383
O	-1.282498	1.080117	1.636694
H	2.419823	0.0	0.0
