17

C	-0.533457	0.015746	-1.435997
C	0.0	0.0	0.0
Cl	0.208785	1.415999	-2.302287
H	1.087483	0.0	0.0
N	-0.097976	-1.149062	-2.181663
H	-0.472295	-1.958397	-1.700097
H	0.918443	-1.193256	-2.131531
N	-1.954339	0.21476	-1.443508
H	-2.280395	0.089382	-2.396127
H	-2.372418	-0.497458	-0.855481
N	-0.393473	-1.170134	0.764925
O	0.154848	-1.276831	1.868299
O	-1.150324	-2.036862	0.277544
N	-0.415981	1.188696	0.792309
O	-1.349589	1.071893	1.588916
O	0.209457	2.2237	0.581148
H	2.459008	0.0	0.0
