17

C	-0.519448	-0.015399	-1.441138
C	0.0	0.0	0.0
Cl	0.190923	-1.454407	-2.271049
H	1.087483	0.0	0.0
N	-1.944951	-0.16755	-1.470188
H	-2.250948	-0.031066	-2.427564
H	-2.349952	0.555999	-0.886807
N	-0.03112	1.125503	-2.189597
H	-0.394548	1.951673	-1.726325
H	0.98522	1.142653	-2.110601
N	-0.442561	-1.173749	0.797637
O	0.20018	-2.208747	0.649772
O	-1.421467	-1.042992	1.535195
N	-0.386392	1.180357	0.755627
O	0.137892	1.274726	1.871977
O	-1.100651	2.070893	0.245447
H	2.464963	0.0	0.0
