12

C	-0.355616	-0.034811	-1.481502
C	0.0	0.0	0.0
F	-0.547641	-1.381641	-1.846249
H	1.09031	0.0	0.0
H	-0.434163	-0.843645	0.536336
H	-0.331772	0.941556	0.446601
C	-1.655435	0.621748	-1.781747
N	-2.683288	1.144857	-2.005089
N	0.666877	0.523813	-2.301435
H	0.451737	1.446676	-2.645024
H	1.563338	0.508133	-1.803966
H	3.002139	0.0	0.0
