12

C	-0.36633	-0.079351	-1.477631
C	0.0	0.0	0.0
F	-0.628401	-1.432584	-1.788708
H	1.090366	0.0	0.0
H	-0.331379	0.953513	0.420806
H	-0.430735	-0.827491	0.56372
C	-1.636727	0.620487	-1.794877
N	-2.63953	1.183149	-2.030253
N	0.673489	0.401626	-2.316215
H	1.567086	0.424924	-1.817211
H	0.469024	1.268121	-2.784514
H	3.005789	0.0	0.0
