18

C	-0.582941	-0.049421	-1.527753
C	0.149767	0.002783	-0.197504
Cl	-2.370236	-0.330753	-1.222125
H	1.213426	-0.017693	-0.440321
N	-0.356004	1.072735	-2.358561
H	-0.962042	1.042674	-3.169658
H	-0.515216	1.92272	-1.836212
N	-0.122322	-1.232858	-2.394872
O	-0.838278	-1.525305	-3.350817
O	0.971206	-1.718329	-2.15248
N	-0.107756	-1.189536	0.589385
H	0.605902	-1.059883	1.356994
H	-1.012661	-1.064606	1.036517
C	-0.106961	1.30028	0.573363
H	0.264308	2.200044	0.065769
H	-1.171437	1.421402	0.802274
H	0.476921	1.135157	1.490598
F	1.628436	-0.212835	2.266383
