16

C	-0.605454	-0.105582	-1.431797
C	-0.014118	-0.28619	-0.033129
Cl	-0.198197	-1.549894	-2.424279
H	1.073694	-0.291575	-0.140067
H	-0.361708	-1.271941	0.303231
C	-2.101942	0.082482	-1.432159
H	-2.476963	0.25312	-2.442482
H	-2.561845	-0.820655	-1.024317
H	-2.333002	0.924875	-0.785964
N	0.067777	1.092537	-2.108208
O	1.18619	0.93671	-2.568261
O	-0.586371	2.130555	-2.131869
N	-0.474796	0.786825	0.828239
H	-0.445653	0.443546	1.781931
H	0.328214	1.489944	0.699899
F	1.609583	1.98253	0.122947
