16

C	-0.178336	-0.032544	-1.45588
C	0.038964	0.030099	0.041949
Cl	0.172214	1.567837	-2.167716
H	1.115409	0.178077	0.156407
H	-0.195476	-0.965642	0.426663
C	0.702249	-1.071897	-2.108835
H	0.37978	-2.060943	-1.774574
H	0.635559	-1.006893	-3.198159
H	1.719649	-0.869339	-1.700274
N	-1.656211	-0.34986	-1.713891
O	-2.36028	0.393719	-2.385427
O	-2.037789	-1.405481	-1.211801
N	-0.883155	0.996552	0.65795
H	-0.881777	0.829889	1.657148
H	-0.497663	1.924562	0.524124
F	2.758948	-0.3877	-0.373647
