16

C	-0.597465	0.061164	-1.548201
C	0.145037	0.046884	-0.202386
Cl	0.092734	-1.140572	-2.667854
H	1.224877	0.068439	-0.377978
H	-0.134548	0.998159	0.28563
C	-2.074417	-0.198269	-1.403166
H	-2.518032	0.53767	-0.730823
H	-2.161781	-1.190086	-0.9618
H	-2.586431	-0.157586	-2.365349
N	-0.352133	1.428603	-2.16547
O	-1.2977	2.220085	-2.187215
O	0.790237	1.696894	-2.520208
N	-0.160301	-1.142957	0.551222
H	-0.79492	-0.898847	1.302689
H	0.810942	-1.361706	0.985099
F	2.222425	-1.181329	1.343787
