16

C	-0.618498	0.06502	-1.555555
C	0.129373	0.057763	-0.21241
Cl	0.082874	-1.125952	-2.679664
H	1.208099	0.092806	-0.392712
H	-0.160032	1.00476	0.2782
C	-2.091402	-0.2135	-1.405184
H	-2.607816	-0.177308	-2.365222
H	-2.164439	-1.207324	-0.965769
H	-2.541598	0.515184	-0.729336
N	-0.392992	1.43647	-2.17079
O	0.744184	1.719414	-2.530892
O	-1.348006	2.216752	-2.185091
N	-0.158402	-1.136899	0.540294
H	-0.791614	-0.901668	1.295747
H	0.817722	-1.346071	0.968698
F	2.228384	-1.154124	1.320971
