16

C	-0.184771	-0.013236	-1.457038
C	0.041534	0.034402	0.040169
Cl	0.159367	1.594022	-2.15582
H	1.125861	0.178696	0.147517
H	-0.193682	-0.964667	0.416159
C	0.693607	-1.044718	-2.125025
H	0.61751	-0.971912	-3.213236
H	1.713778	-0.839627	-1.724871
H	0.377581	-2.037422	-1.795653
N	-1.664352	-0.329675	-1.708656
O	-2.376494	0.424938	-2.358969
O	-2.039332	-1.394793	-1.221701
N	-0.873638	0.996182	0.672259
H	-0.492013	1.925673	0.53791
H	-0.859713	0.824817	1.670537
F	2.765297	-0.347861	-0.406315
