17

C	-0.416372	0.093208	-1.487937
C	0.0	0.0	0.0
Cl	0.205291	1.566519	-2.221309
H	1.095697	0.0	0.0
C	0.033939	-1.055709	-2.26895
N	0.391566	-1.977729	-2.903101
N	-1.953125	0.105243	-1.557792
O	-2.533407	1.178975	-1.531387
O	-2.482182	-1.006297	-1.534213
C	-0.460091	-1.29781	0.65041
H	-1.544302	-1.31928	0.801011
H	0.035904	-1.363998	1.621065
H	-0.175405	-2.17609	0.069364
N	-0.468756	1.18542	0.692612
H	0.321747	1.657281	1.113259
H	-1.147648	0.956717	1.406653
Br	3.467362	0.0	0.0
