17

C	-0.436088	-0.060958	-1.473318
C	0.0	0.0	0.0
Cl	0.401685	1.174446	-2.415578
H	1.10158	0.0	0.0
C	-0.206246	-1.364554	-2.085856
N	-0.035507	-2.416147	-2.58171
N	-1.957763	0.194418	-1.540086
O	-2.639191	-0.760344	-1.177038
O	-2.365242	1.289461	-1.880395
C	-0.476171	-1.183688	0.824389
H	-0.207295	-2.133024	0.35997
H	0.038823	-1.138238	1.787974
H	-1.555143	-1.153969	0.987674
N	-0.538293	1.245634	0.556033
H	-0.468406	1.177812	1.565036
H	0.081383	2.002756	0.285711
Br	3.510668	0.0	0.0
