17

C	-0.519672	0.00797	-1.436208
C	0.0	0.0	0.0
Cl	0.245692	-1.246422	-2.43361
H	1.094625	0.0	0.0
C	-1.972097	-0.153076	-1.482101
N	-3.129691	-0.353518	-1.456174
N	-0.194657	1.345008	-2.119901
O	0.783755	1.950095	-1.717021
O	-0.926373	1.663281	-3.052698
C	-0.45595	-1.251966	0.734192
H	-1.542366	-1.263229	0.872942
H	0.031591	-1.263401	1.71174
H	-0.154283	-2.157644	0.207209
N	-0.545032	1.210329	0.616895
H	0.210929	1.87177	0.747519
H	-0.940649	0.994334	1.522758
Br	3.545781	0.0	0.0
