17

C	-0.418492	0.193946	-1.477452
C	0.0	0.0	0.0
Cl	0.304478	1.655332	-2.133158
H	1.093166	0.0	0.0
C	-0.060671	-0.940234	-2.322821
N	0.222432	-1.848743	-3.0123
N	-1.952005	0.313053	-1.530528
O	-2.463465	1.419174	-1.56967
O	-2.547042	-0.761133	-1.449832
C	-0.46069	-1.328837	0.579729
H	-0.179762	-2.172135	-0.052597
H	0.042771	-1.45201	1.541351
H	-1.543418	-1.356676	0.733648
N	-0.479072	1.143307	0.759687
H	0.314384	1.638589	1.145929
H	-1.078928	0.846297	1.517341
Br	3.474946	0.0	0.0
