17

C	-0.49236	-0.004894	-1.455454
C	0.0	0.0	0.0
Cl	-2.278366	-0.011147	-1.537187
H	1.094709	0.0	0.0
C	-0.023919	1.166975	-2.188124
N	0.287254	2.122525	-2.79604
N	0.018674	-1.256452	-2.18516
O	1.040322	-1.110533	-2.843532
O	-0.59943	-2.299024	-2.008334
C	-0.450892	-1.209269	0.805669
H	-0.027017	-1.101214	1.806515
H	-0.079234	-2.145101	0.389247
H	-1.540608	-1.266536	0.882221
N	-0.42282	1.278055	0.559391
H	0.364287	1.696795	1.039493
H	-1.186817	1.156265	1.211556
Br	3.462424	0.0	0.0
