17

C	-0.425684	-0.017269	-1.474797
C	0.0	0.0	0.0
Cl	-0.071266	1.508174	-2.297421
H	1.098053	0.0	0.0
C	0.215886	-1.109374	-2.203213
N	0.739131	-1.990031	-2.781835
N	-1.948783	-0.233701	-1.60899
O	-2.65619	0.336527	-0.78801
O	-2.346964	-0.933969	-2.533933
C	-0.445001	-1.288147	0.692346
H	0.047115	-1.329037	1.666182
H	-0.142394	-2.181077	0.138771
H	-1.52868	-1.310699	0.846384
N	-0.411135	1.223654	0.654819
H	-1.251057	1.092631	1.200844
H	0.3482	1.535275	1.247694
Br	3.481137	0.0	0.0
