17

C	-0.459721	0.056036	-1.488438
C	0.0	0.0	0.0
Cl	0.286801	-1.213485	-2.457952
H	1.094298	0.0	0.0
C	-1.913536	-0.046055	-1.596751
N	-3.081045	-0.18372	-1.618182
N	-0.061935	1.421993	-2.066553
O	-0.893591	2.313936	-1.902281
O	1.043935	1.536392	-2.563024
C	-0.502729	-1.279042	0.65232
H	-1.593235	-1.271756	0.754084
H	-0.061382	-1.32033	1.648118
H	-0.198201	-2.168972	0.10108
N	-0.432421	1.147624	0.76596
H	-1.398573	1.398148	0.59398
H	0.161478	1.945863	0.585815
Br	3.524509	0.0	0.0
