15

C	0.0	0.0	0.0
C	-0.621772	-0.220411	-1.35571
F	1.355549	0.0	0.0
H	-0.344822	-1.241627	-1.638945
H	-1.708671	-0.210952	-1.183925
N	-0.366978	1.37922	0.569046
O	0.194417	2.322583	0.020516
O	-1.14423	1.429335	1.50959
C	-0.428987	-1.022608	0.96939
N	-0.662997	-1.927615	1.679221
C	-0.200264	0.76691	-2.43542
H	-0.56959	0.408104	-3.398471
H	-0.626557	1.751813	-2.261236
H	0.884279	0.866874	-2.49455
Cl	-3.812983	0.0	0.0
