15

C	0.0	0.0	0.0
C	-0.611856	-0.188201	-1.363302
F	1.355196	0.0	0.0
H	-1.698896	-0.198354	-1.193927
H	-0.316027	-1.19973	-1.666342
N	-0.348128	1.359274	0.628363
O	0.101097	2.329278	0.024754
O	-0.962296	1.376667	1.684404
C	-0.420762	-1.059112	0.936551
N	-0.618588	-1.988732	1.626007
C	-0.199377	0.825886	-2.4242
H	-0.527321	0.457844	-3.398937
H	0.88263	0.969221	-2.454915
H	-0.670371	1.791988	-2.252985
Cl	-3.733214	0.0	0.0
