15

C	0.0	0.0	0.0
C	-0.558607	-0.196186	-1.382103
F	1.355749	0.0	0.0
H	-0.066251	0.549702	-2.013024
H	-1.631104	0.023743	-1.313967
N	-0.373267	1.385279	0.533398
O	-0.910077	1.459569	1.629209
O	-0.035486	2.3176	-0.188168
C	-0.42619	-1.016665	0.975062
N	-0.592478	-1.929566	1.69465
C	-0.328701	-1.620028	-1.881525
H	-0.953605	-2.320349	-1.323004
H	-0.606972	-1.689564	-2.935153
H	0.719401	-1.92276	-1.784497
Cl	-3.649832	0.0	0.0
