15

C	0.0	0.0	0.0
C	-0.541819	-0.119599	-1.405534
F	1.355384	0.0	0.0
H	-1.63263	-0.05839	-1.314216
H	-0.301392	-1.147339	-1.698976
N	-0.367271	1.305767	0.711159
O	-0.519433	1.255168	1.924485
O	-0.354754	2.318987	0.02447
C	-0.43073	-1.123671	0.85078
N	-0.574912	-2.103388	1.481855
C	0.027542	0.852773	-2.433368
H	-0.427197	1.834324	-2.34051
H	1.110322	0.961271	-2.337963
H	-0.188002	0.464939	-3.432091
Cl	-3.567223	0.0	0.0
