15

C	0.0	0.0	0.0
C	-0.553164	-0.208169	-1.382677
F	1.358985	0.0	0.0
H	-0.137926	0.588559	-2.004683
H	-0.13136	-1.15809	-1.729599
N	-0.365008	1.389973	0.54654
O	-0.527706	1.48798	1.75753
O	-0.358754	2.302446	-0.269975
C	-0.448428	-1.014086	0.964543
N	-0.7518	-1.90243	1.669881
C	-2.076843	-0.227181	-1.413224
H	-2.525955	0.698523	-1.057293
H	-2.509065	-1.016748	-0.799515
H	-2.423706	-0.380906	-2.435652
Cl	-5.150907	0.0	0.0
