15

C	0.0	0.0	0.0
C	-0.525762	-0.410432	-1.348666
F	1.358978	0.0	0.0
H	0.010826	-1.335791	-1.58771
H	-0.196958	0.35506	-2.055012
N	-0.36649	1.447075	0.368579
O	-0.620518	2.210555	-0.553254
O	-0.263619	1.733231	1.555425
C	-0.451979	-0.876997	1.089186
N	-0.781834	-1.65839	1.901067
C	-2.03349	-0.622694	-1.398012
H	-2.616855	0.236125	-1.069487
H	-2.357301	-1.45527	-0.772769
H	-2.330683	-0.8412	-2.426226
Cl	-5.087008	0.0	0.0
