16

C	-0.320424	0.07208	-1.483521
C	0.0	0.0	0.0
Cl	-2.034012	0.556739	-1.796471
H	1.096322	0.0	0.0
H	-0.309344	0.969611	0.40038
N	0.548765	0.967653	-2.104759
H	1.496885	0.832818	-1.759168
H	0.528278	0.890939	-3.110485
N	-0.235014	-1.366271	-2.116247
O	0.704847	-1.560881	-2.882374
O	-1.075855	-2.198144	-1.788127
C	-0.586924	-1.137448	0.813387
H	-0.154696	-2.097652	0.533207
H	-1.671153	-1.204049	0.704629
H	-0.349759	-0.964484	1.865714
Br	3.559813	0.0	0.0
