11
Coordinates from ORCA-job run
  C   0.58342755115826     -0.14060912584222     -0.38953096861818
  C   -0.91886836017396     -0.45414320813472     -0.20867152362713
  Br  1.23415388373497     -1.18991282806183     -1.91594566902512
  H   -1.03251209714583     -1.52756531266124     -0.03657030636417
  H   -1.44194600342628     -0.19557616107168     -1.13298564452952
  C   1.34260264989650     -0.53191164482513      0.79622525023804
  N   1.92735422730902     -0.86176605711643      1.76157043942536
  C   0.78660827132943      1.27645247867709     -0.68307048256256
  N   0.92019862775067      2.42086611345327     -0.91721596003445
  C   -1.47666383641302      0.29798681919810      0.91268482205057
  N   -1.92335491401978      0.90417892638479      1.81351004304718
