11
Coordinates from ORCA-job run
  C   0.54500041427059     -0.05565427135149     -0.32647890966560
  C   -0.93123462382918      0.28249422126912     -0.01551429869642
  Br  0.62716655221976     -1.63509584062408     -1.48427682139011
  H   -0.95474266393882      1.20290167722463      0.57756324091905
  H   -1.45128907460047      0.46742992620789     -0.95910667293492
  C   1.28242860303278     -0.33830205186510      0.90321523597323
  N   1.84982347507816     -0.55017956994970      1.91093086735343
  C   1.15284095242743      1.06856588443309     -1.03686338297638
  N   1.59996239394210      1.99620412519724     -1.60400315525989
  C   -1.59027506198792     -0.79248510139239      0.71857471810173
  N   -2.12768096661443     -1.64787899914921      1.31595917857588
