11
Coordinates from ORCA-job run
  C   0.55223195277767     -0.17973792601968     -0.26346618424824
  C   -0.70944907494062     -0.21741071893486      0.62915127919416
  Br  0.35977605510304     -1.46760727574757     -1.72837406789798
  H   -0.82765670120062     -1.23159287572279      1.01956274256095
  H   -0.55188471403077      0.46103793521734      1.47425176688282
  C   1.71343764260947     -0.56310027517925      0.53825432089571
  N   2.61558368198171     -0.87559860362882      1.22431456482281
  C   0.74585236027484      1.15168402804597     -0.83420371964161
  N   0.88135373864690      2.23461119777299     -1.27153023588862
  C   -1.90601594601473      0.18056380633935     -0.10446283593334
  N   -2.87322899520689      0.50715070785731     -0.68349763074665
