11
Coordinates from ORCA-job run
  C   0.56358237259138     -0.18699719654963     -0.22957450519349
  C   -0.73977489584162     -0.19650374527129      0.60157475972597
  Br  0.44240446473783     -1.52368380704186     -1.65817013175777
  H   -0.87489925730050     -1.19634249804745      1.02242734637084
  H   -0.62459196656106      0.51277382113037      1.42802196730711
  C   1.68479284883408     -0.54173490331454      0.63938002072370
  N   2.55395101550149     -0.82844782935343      1.37734632684180
  C   0.78618150439993      1.12444150022308     -0.83487623199906
  N   0.94654131966804      2.19255892107353     -1.29953037668423
  C   -1.89984006621362      0.17048835748485     -0.20347411491627
  N   -2.83634733981596      0.47244737966637     -0.84312506041859
