15

C	-0.319977	-0.029919	-1.504274
C	0.0	0.0	0.0
Br	0.198521	1.608505	-2.460705
H	1.094996	0.0	0.0
H	0.30043	-0.807157	-1.953755
C	-1.733159	-0.272889	-1.789402
N	-2.885737	-0.456209	-1.936844
N	-0.375246	-1.286271	0.589917
H	0.371788	-1.943806	0.403841
H	-1.254537	-1.653954	0.239681
C	-0.655589	1.141207	0.74368
H	-1.752667	1.084625	0.707953
H	-0.346186	1.077234	1.788412
H	-0.34072	2.108928	0.348964
F	2.637989	0.0	0.0
