15

C	-0.197864	0.027163	-1.497846
C	0.0	0.0	0.0
Br	-2.114386	0.25038	-2.098652
H	1.09839	0.0	0.0
H	0.319283	0.884756	-1.930193
C	0.269771	-1.197857	-2.134998
N	0.632036	-2.193841	-2.642537
N	-0.48668	-1.197153	0.66263
H	-1.39204	-1.483528	0.300483
H	0.178398	-1.943197	0.501036
C	-0.505506	1.258012	0.672181
H	-1.600833	1.308552	0.695202
H	-0.123474	2.150589	0.166513
H	-0.133863	1.261699	1.698292
F	2.59835	0.0	0.0
