15

C	-0.196487	0.077229	-1.496206
C	0.0	0.0	0.0
Br	-2.108297	0.336738	-2.092039
H	1.098511	0.0	0.0
H	0.330766	0.942618	-1.899568
C	0.261354	-1.131506	-2.173673
N	0.597694	-2.111901	-2.726823
N	-0.490988	-1.214094	0.626132
H	0.167272	-1.96098	0.436629
H	-1.400349	-1.480929	0.261708
C	-0.498805	1.23872	0.712178
H	-0.10989	2.143873	0.235145
H	-0.127327	1.207515	1.737838
H	-1.594011	1.296557	0.736909
F	2.601022	0.0	0.0
