15

C	-0.462252	-0.075633	-1.455073
C	0.0	0.0	0.0
Br	0.020792	1.5068	-2.517509
H	1.094997	0.0	0.0
H	0.069149	-0.905212	-1.919919
C	-1.904218	-0.273875	-1.57992
N	-3.067306	-0.438747	-1.630038
N	-0.376178	-1.309178	0.557321
H	-1.167055	-1.231617	1.18638
H	0.427584	-1.643411	1.07638
C	-0.572248	1.171047	0.772019
H	-0.288345	2.124878	0.322788
H	-0.159547	1.147336	1.784456
H	-1.669208	1.129408	0.840215
F	2.644181	0.0	0.0
