15

C	-0.503341	0.000653	-1.445591
C	0.0	0.0	0.0
Br	0.206704	-1.522119	-2.474605
H	1.095316	0.0	0.0
H	-1.591124	-0.14451	-1.485118
C	-0.193547	1.218022	-2.186202
N	-0.005805	2.215294	-2.778503
N	-0.412494	-1.207126	0.71381
H	-1.276588	-1.595492	0.349074
H	0.320394	-1.892732	0.580643
C	-0.53061	1.236844	0.71113
H	-0.164067	1.199139	1.73791
H	-0.161885	2.156026	0.249759
H	-1.630175	1.267289	0.741245
F	2.634995	0.0	0.0
