12
Coordinates from ORCA-job run
  C   -1.29012640093795     -0.28317305753668      0.19314186808555
  C   0.03698690800731      0.09915896582294     -0.45589703506211
  F   -1.39437950360453     -1.66459761785102      0.20217223486191
  H   0.03056631432367     -0.29648619030110     -1.47769868069317
  H   -2.13508924534395      0.11875917799825     -0.36955336514079
  H   -1.33120370751449      0.07035095807501      1.22656577185346
  C   1.23313658548563     -0.47524764689548      0.30658542549876
  H   1.14535331258189     -1.56059871015321      0.35601086778399
  H   2.16942300015407     -0.22012982498021     -0.19147139461697
  H   1.26391974766384     -0.07884695428124      1.32389000624160
  C   0.11111101954277      1.55921148519865     -0.53900779326152
  N   0.15930196964175      2.73159941490408     -0.57473790555072
