12
Coordinates from ORCA-job run
  C   -1.28796256516570     -0.37093866076020      0.13825413215331
  C   0.03670671122241      0.06733467407969     -0.47294764392990
  F   -1.37154935414164      0.08043612443841      1.44317234968588
  H   0.06855771924418     -0.33672580057211     -1.49263919843061
  H   -2.13612689449242      0.03629675539304     -0.41635309510449
  H   -1.34349180538548     -1.46306701640320      0.15249358996240
  C   1.23379902666153     -0.45952010185894      0.32397404294830
  H   2.17322800505391     -0.15223011838038     -0.13697015403601
  H   1.20359302382709     -0.07819796179454      1.34424625456486
  H   1.20434666237419     -1.55113798979636      0.35828592643997
  C   0.08615110906610      1.52893850773524     -0.57987912828497
  N   0.13274836173582      2.69881158791935     -0.66063707596874
