12
Coordinates from ORCA-job run
  C   -1.26163477589006     -0.36151174514818      0.19960782541204
  C   0.04397708469510      0.08593143832766     -0.44228962627689
  F   -2.33366753493184      0.10012903793129     -0.53986378946241
  H   0.04551115622355     -0.27735450134183     -1.47563774077768
  H   -1.35038934564716      0.03179210469531      1.21552330101070
  H   -1.30549558150358     -1.45369423832320      0.22001772795036
  C   1.24775253709475     -0.49012745990962      0.31002046308372
  H   2.18135653251920     -0.17636616573257     -0.15768180425344
  H   1.20962600590237     -1.58170832500770      0.30201567090038
  H   1.25549380694353     -0.14837850927073      1.34707560436072
  C   0.10840884381295      1.54891380526028     -0.48652467110318
  N   0.16006127078118      2.72137455851929     -0.49126296084431
