12
Coordinates from ORCA-job run
  C   -1.29332332508009     -0.36785751650863      0.09127191781920
  C   0.04994487834191      0.07999003572763     -0.47039384128578
  F   -1.41191420370628      0.04937848240758      1.40460514510189
  H   0.10857729962208     -0.29537399656102     -1.49975106194451
  H   -1.35346900180914     -1.45952944481290      0.07513976822127
  H   -2.12385860259157      0.05753747885100     -0.47591966492721
  C   1.22179672441529     -0.47494227014141      0.34501169798772
  H   1.18460264494838     -1.56696930651358      0.35229274318305
  H   2.17522922158187     -0.16310790632389     -0.08318347198543
  H   1.16653363859025     -0.11778887152721      1.37310611370286
  C   0.10975492929123      1.54370026533197     -0.53384605886460
  N   0.16512579639606      2.71496305007047     -0.57933328700847
