15

C	-0.230262	-0.168929	-1.502208
C	0.0	0.0	0.0
F	-1.40087	-0.954699	-1.747537
H	1.087193	0.0	0.0
H	-0.4507	0.906182	0.39173
N	-0.483449	1.140526	-2.057262
H	-1.40071	1.4447	-1.748052
H	-0.517326	1.059043	-3.068425
N	0.891211	-0.823085	-2.065073
H	1.025203	-0.568477	-3.035609
H	1.727311	-0.597936	-1.498235
N	-0.505902	-1.120635	0.79922
O	-0.180422	-2.262445	0.485037
O	-1.209571	-0.845878	1.779665
F	2.639955	0.0	0.0
