15

C	-0.212916	-0.027967	-1.516351
C	0.0	0.0	0.0
F	-0.250115	1.388429	-1.861286
H	1.088255	0.0	0.0
H	-0.476974	0.863043	0.451252
N	0.898724	-0.641044	-2.135046
H	1.023543	-0.260613	-3.064487
H	1.737644	-0.46175	-1.553234
N	-1.453269	-0.601362	-1.936977
H	-2.202522	0.057525	-1.768326
H	-1.410459	-0.818905	-2.923466
N	-0.532922	-1.20313	0.64633
O	-1.424885	-1.05027	1.493694
O	-0.065795	-2.29392	0.331042
F	2.650573	0.0	0.0
