15

C	-0.214027	-0.115341	-1.511071
C	0.0	0.0	0.0
F	-0.246608	1.27908	-1.935621
H	1.088581	0.0	0.0
H	-0.474781	0.888585	0.401936
N	0.894927	-0.765359	-2.09383
H	1.734634	-0.560512	-1.521694
H	1.02137	-0.432508	-3.04177
N	-1.455322	-0.707105	-1.904449
H	-2.197765	-0.02516	-1.812292
H	-1.393168	-1.018174	-2.865323
N	-0.52892	-1.162084	0.720693
O	-0.088185	-2.273068	0.441927
O	-1.386129	-0.955342	1.590677
F	2.651279	0.0	0.0
