15

C	-0.18452	0.067823	-1.520091
C	0.0	0.0	0.0
F	-1.384969	-0.593093	-1.901152
H	1.089068	0.0	0.0
H	-0.470261	0.811595	0.548574
N	-0.235629	1.439133	-1.894925
H	-0.160537	1.48164	-2.903357
H	-1.108466	1.848598	-1.588111
N	0.892084	-0.56055	-2.239617
H	0.769214	-1.556618	-2.089997
H	1.738211	-0.324734	-1.69152
N	-0.481465	-1.260609	0.566758
O	-1.162752	-1.214356	1.597438
O	-0.158422	-2.31288	0.011562
F	2.623512	0.0	0.0
