15

C	-0.229439	0.008898	-1.510612
C	0.0	0.0	0.0
F	-0.158389	-1.38824	-1.915044
H	1.086812	0.0	0.0
H	-0.441403	0.890382	0.44536
N	-1.507276	0.500308	-1.923759
H	-1.590123	0.391425	-2.929308
H	-2.209214	-0.082463	-1.481687
N	0.854866	0.723042	-2.06242
H	1.718591	0.476125	-1.542971
H	0.948338	0.529584	-3.051066
N	-0.652059	-1.171218	0.613252
O	0.034658	-2.046292	1.129844
O	-1.891587	-1.202749	0.573586
F	2.675244	0.0	0.0
