15

C	-0.18149	0.044643	-1.520122
C	0.0	0.0	0.0
F	-1.383614	-0.617747	-1.892726
H	1.089067	0.0	0.0
H	-0.471054	0.819804	0.535393
N	-0.229053	1.410333	-1.915553
H	-1.103352	1.826574	-1.620713
H	-0.147247	1.438137	-2.924054
N	0.895041	-0.596955	-2.227555
H	0.773216	-1.590739	-2.061043
H	1.741224	-0.350084	-1.683068
N	-0.482594	-1.251375	0.583614
O	-0.157626	-2.31133	0.045018
O	-1.168379	-1.189941	1.609632
F	2.624121	0.0	0.0
