15

C	-0.229467	0.137202	-1.504408
C	0.0	0.0	0.0
F	-0.127876	-1.217839	-2.028584
H	1.086807	0.0	0.0
H	-0.451247	0.838635	0.527647
N	-1.514909	0.635728	-1.875914
H	-1.606892	0.582133	-2.884735
H	-2.204683	0.018473	-1.462396
N	0.843537	0.915815	-1.994543
H	1.71332	0.623832	-1.505347
H	0.93737	0.800118	-2.995915
N	-0.631132	-1.236263	0.500691
O	0.073219	-2.13166	0.956224
O	-1.867302	-1.300546	0.432711
F	2.672515	0.0	0.0
