15

C	-0.356995	-0.165909	-1.4591
C	0.0	0.0	0.0
F	-0.126779	1.155342	-2.011267
H	1.086005	0.0	0.0
H	-0.438357	0.920342	0.380329
N	0.530916	-1.096424	-2.024643
H	1.471205	-0.895641	-1.67147
H	0.495183	-1.096138	-3.032689
N	-1.745461	-0.461079	-1.68778
H	-2.019079	-0.077994	-2.585585
H	-2.288895	0.024241	-0.983077
N	-0.561614	-1.096729	0.806658
O	-0.057454	-2.213943	0.734157
O	-1.525108	-0.818195	1.540141
F	2.619231	0.0	0.0
