18
Coordinates from ORCA-job run
  C   -0.82140527201725      0.00827295479030     -0.35332530772228
  C   0.72120953218285     -0.03863262365340     -0.41798524872990
  F   -1.21691075127596     -0.42645346328031     -1.62624871078462
  H   1.05284343207619      0.64388036783706     -1.20142724327646
  N   -1.44780485664092     -0.83615819093488      0.60344045414754
  H   -0.96778678940934     -1.71900081240181      0.71368214925337
  H   -1.58266944445125     -0.38389500378382      1.49449753685250
  C   -1.31322824239980      1.43339705030509     -0.19962526871125
  H   -0.92042480310327      2.05595472536770     -1.00420951144089
  H   -2.40175290003365      1.42048597286419     -0.26777775462967
  H   -1.02373886071505      1.86561163176966      0.75992515707325
  N   1.14244103500266     -1.38794720538550     -0.91416501733205
  O   1.69051672988686     -1.44789950055168     -2.00960834020782
  O   0.91668610954353     -2.35020659142712     -0.17719344641585
  C   1.40991828626703      0.23596598239439      0.90365529644843
  H   1.07331716836232     -0.46760788584766      1.66445684335743
  H   2.49207598947658      0.13793063493901      0.79592553409602
  H   1.19771363724846      1.25330195699877      1.23598287802227
