18
Coordinates from ORCA-job run
  C   -0.83005414172595     -0.04411957680174     -0.32940883945143
  C   0.71050983794760     -0.01455037422144     -0.43768671554353
  F   -1.23767042649614     -0.53778937252144     -1.57680427249881
  H   0.98419800305572      0.65874950702641     -1.25093317320847
  N   -1.38525474899467     -0.88970407145737      0.66962522303266
  H   -1.51793873281406     -0.41775073637887      1.55086264690260
  H   -0.85725494154688     -1.74323746008892      0.79151309267532
  C   -1.39081754634951      1.35803101741965     -0.20341972745940
  H   -2.47860380534206      1.28743242112857     -0.24118294754108
  H   -1.05206041396566      1.97533295582734     -1.03617381448695
  H   -1.09920217616665      1.83317064815160      0.73499440446798
  N   1.18686780431970     -1.35564141365209     -0.90531507120571
  O   1.70652531510936     -1.42200156538818     -2.01415314678590
  O   1.03175038270543     -2.30443470971967     -0.13351827008144
  C   1.42030289747361      0.33601575064144      0.85454593259435
  H   1.16259623582223      1.35011875123510      1.16392453146046
  H   2.50271622841067      0.29268476112647      0.71749496091933
  H   1.14339022855724     -0.36130653232686      1.64463518621002
