18
Coordinates from ORCA-job run
  C   -0.85019487986120     -0.05136044578235     -0.27159927910567
  C   0.68021975786012     -0.05429794275347     -0.48064270555957
  F   -1.34487160997461     -0.61766765352646     -1.45517517801057
  H   0.90894766347249      0.55987378899875     -1.35244068767060
  N   -1.34858971752685     -0.82180255283804      0.81434616102075
  H   -0.82284789229212     -1.67315539226034      0.95889561589597
  H   -1.42050611775523     -0.29128403958563      1.66891807011132
  C   -1.38453983584232      1.36496180323862     -0.20178049340416
  H   -1.02594042139784      1.89524228115549      0.68229820496019
  H   -1.09416359477379      1.92126099873375     -1.09370089177710
  H   -2.47321291023163      1.30980297723906     -0.16390558135371
  N   1.10777573672124     -1.43098696414236     -0.88866426339135
  O   0.99423608604889     -2.32434851870786     -0.04668992060545
  O   1.55025376858373     -1.57848987759344     -2.02286823200428
  C   1.47721299407564      0.36707834739693      0.73740742029332
  H   1.25051115978378      1.40217546362831      0.99765630376901
  H   1.24601544095172     -0.27478699153972      1.58692819081675
  H   2.54769437215797      0.29978471833879      0.53301726601521
