18
Coordinates from ORCA-job run
  C   -0.66921541768621      0.46417889482193     -0.08230063719553
  C   0.57013259056598     -0.46253271976893     -0.09820500629217
  F   -0.18923636186370      1.76875648652270     -0.08181589624674
  H   0.21722506846210     -1.48400703147034     -0.25066859921954
  N   -1.47737998393959      0.32773045091601     -1.26202602010525
  H   -0.92303821206527      0.35389388346863     -2.10771374645921
  H   -2.02485202909692     -0.52188633434259     -1.23825205766612
  C   -1.52975521302053      0.28113249251495      1.14898529422030
  H   -1.82647133167050     -0.76169915138671      1.27902617200167
  H   -0.98671361572482      0.59896179101092      2.03861958543784
  H   -2.41684271644939      0.90438836225956      1.03579276102438
  N   1.18384094201723     -0.48670062060777      1.26868266198382
  O   1.91478941056726      0.44977624410634      1.58172325255396
  O   0.87788301372032     -1.43069485785961      1.99819740228999
  C   1.62273048838446     -0.06814519335319     -1.11569609852850
  H   1.22189377616819     -0.14794384367527     -2.12792344943385
  H   1.95461031329150      0.95217735142450     -0.93950532038983
  H   2.48239927833988     -0.73738620458106     -1.04792029797520
