18
Coordinates from ORCA-job run
  C   -0.75046129789186      0.20735565324876     -0.47141662205551
  C   0.72238059855263     -0.25416383605885     -0.45290986272314
  F   -0.73824723587060      1.17946533228238     -1.50120917642558
  H   0.92864020789269     -0.65794305797164     -1.44663427730048
  N   -1.62523458617192     -0.84130285473597     -0.82991404695996
  H   -2.33766382645914     -1.05058900640320     -0.15102706243988
  H   -1.18832812189706     -1.67602113486971     -1.18804841995321
  C   -1.21651488207992      0.92097611469551      0.77849904535974
  H   -0.64829945156407      1.83697857506987      0.93261130360866
  H   -2.26480265888618      1.19657375464052      0.64320186098568
  H   -1.11629796330244      0.28500540227279      1.65827307295819
  N   0.83832487994119     -1.43108458749901      0.46501384135867
  O   0.76234975977998     -2.54911923940574     -0.04705607409280
  O   0.96914547263394     -1.21211830123533      1.66800600465152
  C   1.72715275996601      0.81298130718356     -0.07737689443337
  H   2.74402336104599      0.43040423408500     -0.18634687786283
  H   1.59247620453680      1.13637264047466      0.95339160451056
  H   1.60135677977397      1.66422900422642     -0.74605741918627
