18
Coordinates from ORCA-job run
  C   -0.78276232376631      0.22521552967489     -0.41923791952013
  C   0.69604345114453     -0.21692041932159     -0.50247328900689
  F   -0.84446652219719      1.22106016747582     -1.41563429127940
  H   0.85590339436546     -0.55350591784180     -1.52920572177814
  N   -1.68860882719321     -0.81071561779132     -0.76251695479587
  H   -1.28620817771898     -1.54692083268390     -1.32424109152752
  H   -2.18474139113699     -1.19326852552116      0.02662487325314
  C   -1.18203754035445      0.88117766537353      0.88346529572934
  H   -2.24295038042403      1.13187516080456      0.82758053490845
  H   -0.62285754280018      1.80383370989736      1.03073477410808
  H   -1.00409634960039      0.21979330218756      1.73200041576988
  N   0.86521932821853     -1.44965671596970      0.32860434999149
  O   0.79215165510833     -2.53220107395653     -0.25420712698858
  O   1.03227308414861     -1.30793592734802      1.53915788376512
  C   1.70914186614558      0.83528554170724     -0.10695881792608
  H   1.53858489160859      1.72968261781679     -0.70639024452660
  H   2.72292695896520      0.47677013009388     -0.29698662754520
  H   1.62648442548689      1.08443120540239      0.94968395736891
