14

C	0.0	0.0	0.0
C	-0.420848	0.37675	-1.460217
Br	2.051358	0.0	0.0
H	-0.535524	1.469063	-1.486287
H	0.39736	0.107611	-2.12911
C	-0.285103	1.0817	0.946318
N	-0.491433	1.965002	1.694312
N	-0.507047	-1.239304	0.389765
H	-1.155968	-1.567689	-0.324272
H	-0.917227	-1.248533	1.311034
N	-1.590482	-0.387006	-1.837841
H	-1.748054	-0.320084	-2.833869
H	-2.438721	-0.087712	-1.341297
Cl	-4.174943	0.0	0.0
