14

C	0.0	0.0	0.0
C	-0.562347	-0.077606	-1.417525
Br	2.06659	0.0	0.0
H	-0.059179	0.660421	-2.048448
H	-1.618305	0.192551	-1.278932
C	-0.252627	1.315851	0.596504
N	-0.417711	2.377024	1.072747
N	-0.502313	-1.026724	0.76173
H	-0.216418	-1.073054	1.724855
H	-0.528388	-1.899814	0.254666
N	-0.475901	-1.445887	-1.907918
H	-1.372381	-1.723186	-2.283362
H	0.236353	-1.541786	-2.617239
Cl	-3.845079	0.0	0.0
