14

C	0.0	0.0	0.0
C	-0.488224	-0.589659	-1.322446
Br	1.954061	0.0	0.0
H	-0.024189	-0.035339	-2.142707
H	-1.569965	-0.411134	-1.32509
C	-0.323065	1.442195	0.045327
N	-0.528662	2.599158	0.088635
N	-0.53894	-0.760145	1.092642
H	-0.284727	-0.329656	1.974827
H	-1.562694	-0.69323	0.987573
N	-0.118495	-2.004587	-1.406463
H	-0.740225	-2.438039	-2.080166
H	-0.342703	-2.413897	-0.505016
Cl	-3.61355	0.0	0.0
