14

C	0.0	0.0	0.0
C	-0.319796	-0.111948	-1.533645
Br	1.958789	0.0	0.0
H	-0.046401	-1.141792	-1.805617
H	0.371533	0.551177	-2.061698
C	-0.370572	1.34222	0.467348
N	-0.635924	2.444468	0.776764
N	-0.583193	-0.986278	0.851846
H	-0.497422	-1.896576	0.411709
H	-1.582072	-0.77486	0.944939
N	-1.652408	0.178859	-1.968572
H	-1.868173	1.156619	-1.810962
H	-2.371036	-0.319608	-1.446504
Cl	-4.0808	0.0	0.0
