14

C	0.0	0.0	0.0
C	-0.501093	0.287792	-1.413825
Br	1.94469	0.0	0.0
H	-0.047439	1.220447	-1.761029
H	-1.582863	0.427323	-1.300007
C	-0.329693	1.141955	0.880392
N	-0.536236	2.03609	1.615547
N	-0.534031	-1.257612	0.449018
H	-1.557994	-1.143854	0.414127
H	-0.268428	-1.42138	1.413774
N	-0.132088	-0.810489	-2.310563
H	-0.743692	-0.754937	-3.117193
H	-0.37401	-1.669513	-1.825666
Cl	-3.620965	0.0	0.0
