14

C	0.0	0.0	0.0
C	-0.5862	0.378584	-1.356639
Br	1.987629	0.0	0.0
H	-1.659409	0.164276	-1.240499
H	-0.147743	-0.291325	-2.10367
C	-0.317456	1.026783	1.004004
N	-0.518762	1.857585	1.809552
N	-0.506781	-1.247741	0.409154
H	-0.478965	-1.943994	-0.320858
H	-0.117447	-1.588794	1.274298
N	-0.289781	1.764838	-1.694203
H	-0.333163	1.878319	-2.698392
H	-1.025995	2.342414	-1.301947
Cl	-3.923656	0.0	0.0
