14

C	0.0	0.0	0.0
C	-0.311163	-0.130863	-1.531608
Br	1.966417	0.0	0.0
H	0.099629	-1.105176	-1.812019
H	0.285864	0.637664	-2.02982
C	-0.352344	1.348062	0.475419
N	-0.625307	2.427495	0.854603
N	-0.591477	-1.071601	0.735605
H	-1.595786	-1.030599	0.529001
H	-0.494236	-0.909186	1.73149
N	-1.667992	-0.035076	-1.975941
H	-2.250045	-0.792774	-1.644201
H	-2.129745	0.798081	-1.632735
Cl	-4.104091	0.0	0.0
