14

C	0.0	0.0	0.0
C	-0.48649	0.122385	-1.435753
Br	2.051976	0.0	0.0
H	-0.229032	-0.816781	-1.950103
H	-1.578675	0.172272	-1.324149
C	-0.291367	1.20977	0.775584
N	-0.488054	2.150815	1.449852
N	-0.517531	-1.121079	0.615278
H	-0.440031	-1.988098	0.111356
H	-0.426561	-1.19487	1.613272
N	0.022463	1.321505	-2.070821
H	-0.648104	1.662614	-2.74466
H	0.903577	1.145996	-2.533452
Cl	-3.847414	0.0	0.0
