14

C	0.0	0.0	0.0
C	-0.414422	0.04512	-1.473527
Br	2.053764	0.0	0.0
H	0.024431	0.92599	-1.956687
H	-1.503157	0.155712	-1.424633
C	-0.31582	1.265057	0.668835
N	-0.505256	2.29808	1.195783
N	-0.476993	-1.116445	0.730102
H	-0.427737	-1.905229	0.089822
H	-1.471334	-0.9301	0.906194
N	-0.082983	-1.222192	-2.108612
H	0.808739	-1.163089	-2.579613
H	-0.79608	-1.458974	-2.784221
Cl	-3.546145	0.0	0.0
