17

C	-0.481521	-0.01496	-1.443879
C	0.0	0.0	0.0
F	-1.846227	-0.12457	-1.489774
H	1.09356	0.0	0.0
N	-0.12767	1.305677	-2.128015
O	-1.026226	2.132051	-2.237303
O	1.042598	1.432375	-2.459695
C	0.092213	-1.099412	-2.24691
N	0.475456	-1.969005	-2.935915
N	-0.444953	-1.2705	0.558283
H	-1.344439	-1.173252	1.012565
H	0.239824	-1.589958	1.230977
C	-0.503109	1.237564	0.734968
H	-0.205347	1.151995	1.781844
H	-1.592699	1.324757	0.678301
H	-0.055403	2.152845	0.342449
Cl	3.364865	0.0	0.0
