17

C	-0.527614	0.006802	-1.4319
C	0.0	0.0	0.0
F	-0.09881	1.106136	-2.112746
H	1.094167	0.0	0.0
N	-0.029494	-1.212542	-2.20431
O	-0.7725	-2.187589	-2.237159
O	1.077339	-1.105467	-2.707792
C	-2.000603	-0.019539	-1.466505
N	-3.171735	0.067691	-1.444831
N	-0.452379	-1.234227	0.62435
H	0.32701	-1.671724	1.097952
H	-1.195454	-1.065471	1.290184
C	-0.456867	1.264654	0.717718
H	-0.149578	2.160513	0.176059
H	-1.545049	1.282745	0.850869
H	0.020789	1.286592	1.699285
Cl	3.358592	0.0	0.0
