17

C	-0.517214	-0.02446	-1.435472
C	0.0	0.0	0.0
F	-1.875691	0.137986	-1.469745
H	1.097365	0.0	0.0
N	0.076709	1.133364	-2.242359
O	1.1606	0.930955	-2.768688
O	-0.574853	2.172001	-2.25845
C	-0.185798	-1.267955	-2.140448
N	0.069648	-2.25713	-2.718862
N	-0.485799	-1.244724	0.608533
H	-0.953878	-1.045976	1.482625
H	0.314496	-1.830032	0.809502
C	-0.497568	1.232177	0.738315
H	-0.195874	2.155191	0.243437
H	-0.052027	1.229219	1.735365
H	-1.587787	1.223967	0.826408
Cl	3.357489	0.0	0.0
