17

C	-0.51495	0.011237	-1.437452
C	0.0	0.0	0.0
F	-0.075353	1.110472	-2.111382
H	1.094114	0.0	0.0
N	-0.013175	-1.208415	-2.208023
O	-0.768158	-2.172358	-2.268207
O	1.106719	-1.113782	-2.681809
C	-1.988127	-0.009855	-1.488468
N	-3.158671	0.088308	-1.480607
N	-0.454363	-1.237623	0.615152
H	-1.216842	-1.076669	1.25985
H	0.316607	-1.664922	1.110116
C	-0.462683	1.262716	0.716658
H	-0.147354	2.159691	0.181309
H	-1.552553	1.282262	0.83669
H	0.002715	1.280936	1.70438
Cl	3.350262	0.0	0.0
