17

C	-0.406779	0.006775	-1.46443
C	0.0	0.0	0.0
F	0.18421	-1.028906	-2.114
H	1.102829	0.0	0.0
N	-1.921542	-0.220048	-1.586926
O	-2.303459	-1.314627	-1.964628
O	-2.621619	0.733559	-1.262075
C	-0.112593	1.261032	-2.167372
N	0.106268	2.263196	-2.739262
N	-0.545437	-1.238802	0.570366
H	-0.382466	-1.197957	1.570544
H	0.024722	-2.008031	0.231631
C	-0.488974	1.202645	0.785453
H	-1.572571	1.185212	0.914939
H	-0.196548	2.138063	0.305683
H	-0.006623	1.178971	1.766334
Cl	3.371989	0.0	0.0
