17

C	-0.40249	0.003026	-1.468734
C	0.0	0.0	0.0
F	0.200792	-1.025609	-2.113231
H	1.097778	0.0	0.0
N	-1.913179	-0.23849	-1.598554
O	-2.623941	0.693139	-1.236279
O	-2.282692	-1.321048	-2.021368
C	-0.12239	1.260581	-2.172314
N	0.082305	2.268355	-2.740094
N	-0.537559	-1.246059	0.563428
H	0.12379	-1.986275	0.358241
H	-0.547704	-1.148016	1.569434
C	-0.490278	1.202343	0.785053
H	-1.571542	1.17454	0.930219
H	0.009228	1.190035	1.756784
H	-0.219366	2.138435	0.294541
Cl	3.366699	0.0	0.0
