17

C	-0.422998	0.013864	-1.480799
C	0.0	0.0	0.0
F	0.10329	1.083844	-2.127714
H	1.094579	0.0	0.0
N	0.073468	-1.237957	-2.202826
O	-0.572129	-2.261043	-1.973655
O	1.058999	-1.129798	-2.910677
C	-1.887114	0.039	-1.645619
N	-3.056146	0.123669	-1.728331
N	-0.451428	-1.161275	0.737469
H	0.149746	-1.950096	0.546199
H	-1.402803	-1.418607	0.512262
C	-0.49799	1.277654	0.660783
H	-0.189556	2.163435	0.103432
H	-1.588717	1.27519	0.765844
H	-0.05413	1.320972	1.655423
Cl	3.35738	0.0	0.0
