17

C	-0.34814	0.007664	-1.502935
C	0.0	0.0	0.0
F	0.097601	-1.135292	-2.085453
H	1.097117	0.0	0.0
N	-1.869037	0.003316	-1.66491
O	-2.431244	1.09438	-1.639037
O	-2.415713	-1.09402	-1.712959
C	0.153042	1.169279	-2.241428
N	0.539191	2.099515	-2.845673
N	-0.440946	-1.207144	0.663326
H	-1.434867	-1.373397	0.534591
H	0.071582	-2.00339	0.300742
C	-0.500845	1.239211	0.717654
H	-0.073873	1.222315	1.720348
H	-0.174018	2.153766	0.219163
H	-1.592229	1.257066	0.800112
Cl	3.355005	0.0	0.0
