17

C	-0.500998	-0.018927	-1.436955
C	0.0	0.0	0.0
F	-1.86567	-0.132803	-1.461025
H	1.093548	0.0	0.0
N	-0.162541	1.301567	-2.129578
O	-1.072355	2.115698	-2.252479
O	1.008847	1.439856	-2.453794
C	0.064209	-1.10213	-2.247102
N	0.43841	-1.970369	-2.942968
N	-0.43579	-1.271665	0.564921
H	-1.328604	-1.175266	1.033095
H	0.259673	-1.587379	1.22926
C	-0.497421	1.236012	0.740979
H	-0.184633	1.149432	1.783618
H	-1.587926	1.320992	0.700669
H	-0.055578	2.152442	0.34391
Cl	3.365951	0.0	0.0
