18

C	0.0	0.0	0.0
C	-0.340307	0.37212	-1.456743
Br	2.047147	0.0	0.0
H	0.206227	1.305132	-1.654478
N	-0.473704	0.986471	0.88985
H	-0.14386	1.911784	0.643085
H	-0.243866	0.780853	1.853802
N	-0.441444	-1.32905	0.313154
H	-0.185472	-1.565309	1.265768
H	-1.461922	-1.299419	0.272099
C	-1.827808	0.63496	-1.661489
H	-2.2262	1.397674	-0.995362
H	-2.449605	-0.245459	-1.503031
H	-1.96345	0.967658	-2.697532
N	0.18708	-0.659315	-2.35685
H	-0.436246	-0.725197	-3.153577
H	0.138259	-1.54598	-1.865533
Cl	-4.719556	0.0	0.0
