18

C	0.0	0.0	0.0
C	-0.364127	-0.178522	-1.505673
Br	2.03274	0.0	0.0
H	0.243914	-1.0299	-1.843777
N	-0.496186	1.228853	0.526398
H	-1.51271	1.187625	0.419691
H	-0.297835	1.294069	1.519244
N	-0.43343	-1.147029	0.721763
H	0.039518	-1.987739	0.415273
H	-0.320145	-1.036903	1.720889
C	-0.004193	1.040671	-2.34133
H	-0.583327	1.903521	-2.005158
H	1.054188	1.291963	-2.274569
H	-0.263447	0.830224	-3.381531
N	-1.752243	-0.50756	-1.735819
H	-2.102203	-1.152648	-1.036352
H	-2.361	0.297838	-1.638008
Cl	-4.402368	0.0	0.0
