18

C	0.0	0.0	0.0
C	-0.445028	0.032671	-1.459193
Br	2.115777	0.0	0.0
H	-1.539506	0.029968	-1.349413
N	-0.404511	1.167063	0.632009
H	-0.106235	1.257957	1.589962
H	-0.224188	1.981993	0.062015
N	-0.404234	-1.216927	0.630103
H	-1.431316	-1.174828	0.601742
H	-0.125079	-1.199676	1.605476
C	-0.007828	-1.180871	-2.264885
H	-0.509847	-1.168194	-3.23747
H	-0.264837	-2.104366	-1.746344
H	1.07375	-1.16636	-2.427358
N	-0.069938	1.320594	-2.048022
H	-0.734532	1.556881	-2.773143
H	0.850114	1.241725	-2.466132
Cl	-3.717016	0.0	0.0
