18

C	0.0	0.0	0.0
C	-0.301359	-0.061186	-1.511286
Br	2.11048	0.0	0.0
H	0.272832	0.755378	-1.974122
N	-0.356788	1.183706	0.707446
H	-1.369631	1.183792	0.807522
H	-0.054521	2.010035	0.207531
N	-0.514657	-1.099759	0.63844
H	-0.382414	-1.954738	0.118695
H	-0.334178	-1.146918	1.628368
C	-1.783478	0.14973	-1.781266
H	-1.95951	0.112659	-2.862612
H	-2.413875	-0.590964	-1.290981
H	-2.133533	1.118688	-1.429282
N	0.100957	-1.379441	-2.005559
H	-0.377654	-1.571831	-2.875951
H	1.100069	-1.39531	-2.169075
Cl	-4.773262	0.0	0.0
