18

C	0.0	0.0	0.0
C	-0.554735	0.032155	-1.414945
F	1.37549	0.0	0.0
H	-1.645284	-0.031041	-1.307818
N	-0.484032	1.06545	0.778924
H	-0.253425	0.905933	1.754309
H	-1.500362	1.114026	0.671779
N	-0.302936	-1.357106	0.690827
O	-0.998319	-2.190582	0.122584
O	0.184711	-1.484971	1.814392
N	0.014365	-1.063147	-2.209179
H	-0.135005	-0.840106	-3.186243
H	-0.520169	-1.899188	-2.009326
C	-0.178822	1.361451	-2.057948
H	0.908189	1.470503	-2.086252
H	-0.607648	2.199179	-1.51021
H	-0.56367	1.390023	-3.081485
Cl	-3.760256	0.0	0.0
