18

C	0.0	0.0	0.0
C	-0.485969	-0.163491	-1.436528
F	1.361289	0.0	0.0
H	-1.53336	-0.461429	-1.354396
N	-0.519173	1.063844	0.774729
H	-1.541656	0.966174	0.761213
H	-0.27682	1.940297	0.329056
N	-0.321015	-1.303307	0.781213
O	0.219369	-1.392803	1.879647
O	-1.033518	-2.152142	0.262707
N	0.289338	-1.227665	-2.076563
H	-0.316308	-1.764188	-2.681657
H	1.035374	-0.831312	-2.634949
C	-0.419107	1.169137	-2.179583
H	-1.136953	1.886094	-1.778106
H	-0.67385	1.003465	-3.229288
H	0.59044	1.59595	-2.135433
Cl	-3.649669	0.0	0.0
