18

C	0.0	0.0	0.0
C	-0.513864	-0.129779	-1.42638
F	1.360164	0.0	0.0
H	-1.559485	-0.431494	-1.339363
N	-0.525117	1.091372	0.698176
H	-1.546604	1.048334	0.604932
H	-0.27862	1.007324	1.678238
N	-0.284984	-1.330957	0.776761
O	0.114874	-1.325023	1.944504
O	-0.859517	-2.261698	0.23036
N	0.263149	-1.171698	-2.103409
H	-0.363889	-1.752975	-2.643982
H	0.933599	-0.74703	-2.732943
C	-0.444882	1.217814	-2.137037
H	-1.082414	1.957693	-1.654875
H	0.583778	1.594946	-2.141919
H	-0.778767	1.088762	-3.170621
Cl	-3.638433	0.0	0.0
