18

C	0.0	0.0	0.0
C	-0.262272	-0.211215	-1.518908
F	1.382895	0.0	0.0
H	0.433928	-1.017501	-1.765017
N	-0.590448	1.117166	0.571455
H	-0.458665	1.107425	1.576479
H	-1.599163	1.057417	0.390796
N	-0.259128	-1.299004	0.817863
O	-0.444765	-1.155803	2.023947
O	-0.172634	-2.374039	0.234173
N	0.180986	0.977227	-2.253004
H	-0.485126	1.721426	-2.070652
H	1.069631	1.287552	-1.875518
C	-1.63182	-0.609744	-2.017651
H	-2.028209	-1.475965	-1.495532
H	-2.365294	0.181413	-1.892172
H	-1.522477	-0.835444	-3.082248
Cl	-4.011941	0.0	0.0
