18

C	0.0	0.0	0.0
C	-0.521635	0.040466	-1.466696
F	1.362775	0.0	0.0
H	0.334966	0.438974	-2.022035
N	-0.502112	1.017851	0.802868
H	-0.833894	0.66384	1.689608
H	-1.245127	1.501029	0.307779
N	-0.256054	-1.390165	0.691889
O	-1.023984	-1.432145	1.646817
O	0.385877	-2.343323	0.261415
N	-1.600824	1.013668	-1.565657
H	-2.485054	0.622143	-1.216537
H	-1.732209	1.272044	-2.535072
C	-0.893457	-1.323773	-2.051975
H	-1.739981	-1.746518	-1.505049
H	-0.063646	-2.030523	-2.045398
H	-1.214223	-1.166655	-3.085516
Cl	-4.252565	0.0	0.0
