15
Coordinates from ORCA-job run
  C   -0.77650209787800      0.59136948578758      0.39679339125828
  C   0.32317759530513     -0.07438567572796     -0.42082129939905
  F   -0.68323695799562      1.97933002279059      0.11808052186751
  H   0.24785221786129      0.36698426642958     -1.42306076347701
  H   -0.57849857984235      0.51868419424498      1.47167240106489
  N   -2.05452698566766      0.06095674652112      0.12370287810589
  H   -2.78271712340045      0.61405318517938      0.55459495821109
  H   -2.22020263519879     -0.03134704554552     -0.86908795463295
  N   0.05866601137410     -1.50659192427289     -0.54571250009446
  H   -0.24349891678612     -1.88883102844587      0.34216711205467
  H   0.90600275292763     -1.98734983212854     -0.82352446027727
  C   1.69054989954721      0.27740000373977      0.15986889265690
  H   1.80486109986278     -0.16756425176934      1.15316165715869
  H   2.48849905987545     -0.11162169723534     -0.47850200567046
  H   1.81757466001541      1.35891355043246      0.24166717117326
