15
Coordinates from ORCA-job run
  C   -0.78333762992007      0.83031227549740     -0.16038315283044
  C   0.45752278860951      0.01195891632954     -0.47781426785469
  F   -1.58916304798534      0.79021160772169     -1.33855605338975
  H   0.90122915690639      0.46253657929120     -1.37857670981150
  H   -0.54259993967250      1.88801629124494     -0.02634040756490
  N   -1.45702518237004      0.32702685528659      0.96839817284033
  H   -2.33426766439466      0.80216311636932      1.12719232086370
  H   -1.59998046370381     -0.66910900365359      0.85812506033478
  N   0.02053691393467     -1.36808309445481     -0.69758672304067
  H   0.82644734964347     -1.97115420122588     -0.80723700744731
  H   -0.51776227796061     -1.41149700914856     -1.55490174020495
  C   1.46362928220361      0.06602144859538      0.65860436827089
  H   1.73785463580736      1.09880887584852      0.88682894695036
  H   1.03907984853977     -0.38533703777635      1.55497679186132
  H   2.37783623036225     -0.46987561992540      0.38727040102284
