15
Coordinates from ORCA-job run
  C   -0.78716909077115      0.47561267595244      0.35400703268669
  C   0.41489553840153     -0.11511248251746     -0.37426436026514
  F   -0.64181104446450      1.88031522320186      0.38621407504267
  H   0.35818966498628      0.23866374765666     -1.41333385058160
  H   -0.79931852512900      0.15008388224657      1.39956350505294
  N   -2.00338435939724      0.08828490783498     -0.26884199256526
  H   -2.04807654269434      0.46812530757590     -1.20714297228106
  H   -2.80444299878111      0.41935080694066      0.25264301442549
  N   0.38619114738943     -1.57345157255552     -0.40140577050601
  H   -0.54970566232475     -1.87843732760977     -0.64343457555493
  H   0.58505142493109     -1.92752747670010      0.52854447939438
  C   1.72497536350369      0.36091988749598      0.22979599469831
  H   1.80910904142466      1.44612288470860      0.18835960389522
  H   2.55989691151016     -0.08703991673950     -0.31092287497529
  H   1.79459913141524      0.05408945250872      1.27921869153360
