15
Coordinates from ORCA-job run
  C   -1.10170818479503      0.15018944378752     -0.03687383760295
  C   0.34493700347532      0.03194534251029     -0.48815327370629
  F   -1.46310727232389     -1.05237568116221      0.58057314350601
  H   0.59815615263452      0.97425656404598     -0.99205593147909
  H   -1.74964139161856      0.21147131687943     -0.91950459457797
  N   -1.27756450599847      1.19746944336530      0.92530153118995
  H   -0.79490206966555      2.03638601837235      0.63224647504491
  H   -2.25868310807962      1.41279297480436      1.04491554209227
  N   0.38815698969208     -1.01833587226588     -1.50401780395820
  H   0.11783509831880     -1.89356920040766     -1.06882811251310
  H   1.33808046324499     -1.13046871906164     -1.83811178025136
  C   1.28664586775788     -0.18233414825482      0.69470633726770
  H   1.02050015865742     -1.10408429707724      1.21553472897406
  H   2.31742416528939     -0.26910794656501      0.34027595899756
  H   1.23287063341072      0.63576476102923      1.41499161701649
