15
Coordinates from ORCA-job run
  C   -1.04925702053477      0.06096037440283     -0.03806941821220
  C   0.41943419228262      0.02349496147902     -0.45570638617656
  F   -1.34083914956871     -1.15213668981353      0.60349466128923
  H   0.62517872560961      0.95663630903369     -0.99651863313389
  H   -1.68872035772863      0.04617622612046     -0.93176083418254
  N   -1.33487067547689      1.13195630214043      0.85668791704749
  H   -2.29487553428644      1.43866706633963      0.80593708258359
  H   -0.71368245952409      1.91710196085238      0.73324285084995
  N   0.71916563318024     -1.07752729274067     -1.36591578689775
  H   0.16556742829128     -0.99265321311379     -2.21143275039564
  H   0.44413944144347     -1.94459172902517     -0.91714069777292
  C   1.33923527684814     -0.07443834395252      0.75425938299440
  H   1.12221768311294     -0.98843690791967      1.31052566209458
  H   1.21406400211329      0.76418173105157      1.44022080999871
  H   2.37424281423794     -0.11039075485465      0.41317613991355
