15
Coordinates from ORCA-job run
  C   -1.07871400852437      0.18958932297869     -0.12752212818336
  C   0.38929667771677     -0.06940210510444     -0.44295848945749
  F   -1.55265520579137     -0.83426198407662      0.70899779422278
  H   0.72084373061828      0.80369049016956     -1.02548238644466
  H   -1.67566556488860      0.11848950643051     -1.04296280137730
  N   -1.27902842863174      1.47645199999347      0.44166414017466
  H   -0.82402571660786      1.53813959618413      1.34342360932946
  H   -2.26649694161559      1.65045332481795      0.57623196464587
  N   0.49345004741152     -1.32742389455984     -1.18101576981067
  H   1.46658806277880     -1.51146321272187     -1.39446445440278
  H   0.00479800157438     -1.25186835997986     -2.06634193239957
  C   1.23318018385020     -0.17294169023981      0.81910604546616
  H   1.24912301496851      0.76638422382193      1.37661781547065
  H   2.26939817624378     -0.40617680662200      0.56014857930607
  H   0.84890797089730     -0.97066041109179      1.45455801346020
