15
Coordinates from ORCA-job run
  C   -0.76062300963052      0.71871606081644      0.23955146302273
  C   0.38848507316927     -0.07621438018330     -0.35496733637212
  F   -0.59747399829406      2.05599035004719     -0.09937004952013
  H   0.45701063600005      0.24664854288704     -1.40350804806844
  H   -0.71799747153262      0.67833979570371      1.33852441805290
  N   -2.01580443064175      0.28389446604460     -0.32074963881625
  H   -2.74934664697656      0.90407538553337      0.00319464202344
  H   -2.20986847975862     -0.64066182335334      0.04661407183007
  N   0.05493353714645     -1.49772776544269     -0.22006428889729
  H   -0.48619965966242     -1.79219589540725     -1.02398213068416
  H   0.90091704549675     -2.05349077389128     -0.20878640182332
  C   1.68856485579198      0.23551804756758      0.36413897932535
  H   1.64574966992152     -0.13676109363157      1.39170998710399
  H   1.86588148346768      1.31159567240828      0.38730163716194
  H   2.53577139550287     -0.23872658909880     -0.13860730433870
