15
Coordinates from ORCA-job run
  C   -0.74501488419775      0.56553369085180      0.27183998464986
  C   0.47218682707001     -0.05451128084046     -0.39642867422300
  F   -0.65960867253183      1.94819582426637      0.16596146428732
  H   0.48482207217995      0.36163212711167     -1.40990402260783
  H   -0.74980665409308      0.33493883743394      1.34928145944681
  N   -1.96796691928667      0.16309938502269     -0.40676814538412
  H   -2.60039663154836      0.95473888305919     -0.38580317391752
  H   -2.41455308581758     -0.58297809198817      0.11199544918738
  N   0.35982893787299     -1.50219579730643     -0.52765553422736
  H   -0.48954122298406     -1.72625303300818     -1.03250783869217
  H   0.31412577009012     -1.93719229085750      0.38800703333710
  C   1.75596811251064      0.30576993258004      0.32946072734690
  H   1.76857086636671     -0.13244188719705      1.33353158210551
  H   2.61334788426797     -0.08667951907039     -0.21862592817752
  H   1.85903760010096      1.38734321994247      0.42861561686862
