15
Coordinates from ORCA-job run
  C   -0.85649028090211      0.73064838001488     -0.24216044023003
  C   0.44459336199423      0.04562271972162     -0.62757675056295
  F   -1.70817719442333      0.77198442303732     -1.32695320047914
  H   0.85521191776769      0.61741305905034     -1.46870969410503
  H   -0.65593555413575      1.77799158173057      0.02884894629169
  N   -1.54489227931649     -0.01650613236078      0.79641911892664
  H   -2.52831941262405      0.22325676852879      0.75419555855514
  H   -1.20090414309335      0.26166316531806      1.70738213447845
  N   0.14501035415222     -1.29947031352999     -1.09448713191949
  H   -0.42330297012719     -1.75692827447131     -0.39063456515988
  H   1.00272499870405     -1.82555910348306     -1.20781787208272
  C   1.42535667566979      0.11295803277359      0.54647819389087
  H   1.06210907520461     -0.49279459746916      1.38100773281576
  H   2.39680301992444     -0.28808165450104      0.24718090607370
  H   1.58621243120525      1.13880194564018      0.89582706350699
