15
Coordinates from ORCA-job run
  C   -1.08221570987196      0.26606804245774     -0.17734247183736
  C   0.37115655100750      0.02998167517172     -0.54771240558758
  F   -1.54377201145133     -0.92460340101870      0.45284708110554
  H   0.68209446129083      0.90934711967734     -1.12102078882659
  H   -1.67890935876429      0.35906691572233     -1.08604465441992
  N   -1.27097171994794      1.40261581139264      0.64378810082582
  H   -0.83075304234103      1.27533706297589      1.54556603703144
  H   -2.25588077993045      1.57992456548618      0.78942420650718
  N   0.40001985138605     -1.11819330181402     -1.45069834142316
  H   0.09275878859885     -1.94041706237347     -0.94433201658812
  H   1.34857290822533     -1.28603826098400     -1.76342602690374
  C   1.26519398438404     -0.10732145284290      0.68548645450786
  H   2.28391223144040     -0.35668716057635      0.37889455776335
  H   0.89905843607684     -0.90823887438731      1.33222853170670
  H   1.31973540989716      0.82015832111293      1.26234173613859
