15
Coordinates from ORCA-job run
  C   -1.05851104676485      0.25759930736723     -0.03905120287353
  C   0.38358713613517     -0.12255055330180     -0.35714156224421
  F   -1.60660383357853     -0.65208419950590      0.84912049215155
  H   0.83661772895137      0.75921885762487     -0.84487919818991
  H   -1.67462052275497      0.17130498175175     -0.94719171941481
  N   -1.11335949475317      1.54664424375767      0.60097272984123
  H   -2.07744286292849      1.80649893965101      0.76831004330965
  H   -0.69347156628865      2.24942354589229      0.00615326241590
  N   0.37533655565806     -1.29919863907241     -1.22335691931501
  H   0.14336890765211     -1.03932547295953     -2.17493998212323
  H   1.29816789116466     -1.71575156607677     -1.24137239918400
  C   1.15464289631835     -0.42839758442147      0.91552265170129
  H   0.76258434358823     -1.34346076857433      1.36064819926566
  H   2.21600759701913     -0.57211465757062      0.69400171156479
  H   1.05269627058157      0.38419356543800      1.63420389309462
