15
Coordinates from ORCA-job run
  C   -0.82838361289227      0.82689077478989     -0.25828110179553
  C   0.43134853556711      0.00447639231707     -0.50458435132667
  F   -1.49470758436267      0.87262971753221     -1.50393092829462
  H   0.92550696753632      0.44142928432039     -1.38532199573489
  H   -0.57457251079108      1.86530760030078     -0.02621548756620
  N   -1.68520714902901      0.28345526414466      0.72247967394763
  H   -1.49111126121018     -0.69182789706477      0.89753807641442
  H   -1.76729842142640      0.83089718313755      1.56126878589994
  N   0.00751848902348     -1.37879465804656     -0.71705495495366
  H   0.81508449663187     -1.97037461729976     -0.86942688534582
  H   -0.57008777522329     -1.42329170789615     -1.54898493698358
  C   1.37549954780289      0.07391069844452      0.68324168614239
  H   2.28589167274201     -0.49909812314745      0.48728968963025
  H   1.67239331829762      1.10563800418210      0.88947594320353
  H   0.89812528733359     -0.34124791571448      1.57250678676281
