15
Coordinates from ORCA-job run
  C   -1.07059714458310      0.28460987848778     -0.10237341616196
  C   0.37086819897938     -0.02841152870458     -0.46910147699886
  F   -1.61182151284357     -0.84084771342270      0.52893505317610
  H   0.76644839878242      0.85675801104302     -0.98482651245799
  H   -1.65941753217780      0.39415492957636     -1.02104052776250
  N   -1.16269299781108      1.37952269284336      0.81714709555586
  H   -0.56202080977970      2.14036503384370      0.52953189781066
  H   -2.11339134231513      1.71992635643582      0.87542868563515
  N   0.33392501094052     -1.11131660153453     -1.45038790484490
  H   -0.06823641126294     -1.92967473684157     -1.00650201161571
  H   1.27829677840573     -1.35339981689529     -1.72622281654377
  C   1.21603101779966     -0.31603993035648      0.76988691181249
  H   2.24475729310511     -0.54200203818147      0.47612062338011
  H   1.22806419083688      0.52732505073101      1.46244239407293
  H   0.80978686192363     -1.17896958702446      1.30096200494240
