16

C	0.0	0.0	0.0
C	-0.612874	-0.039017	-1.384398
Cl	1.785383	0.0	0.0
H	-1.655246	-0.348032	-1.176379
H	-0.101492	-0.786213	-1.992642
C	-0.542458	1.119731	0.837494
H	-0.13579	1.087189	1.847158
H	-0.281173	2.057966	0.348455
H	-1.637023	0.986284	0.843923
N	-0.319337	-1.344911	0.673286
O	-0.474248	-1.361368	1.888397
O	-0.319652	-2.336535	-0.050175
N	-0.580502	1.288857	-2.002721
H	-0.357542	1.199111	-2.984342
H	-1.522387	1.663155	-1.935598
H	-3.325	0.0	0.0
