16

C	0.0	0.0	0.0
C	-0.50569	0.083586	-1.427608
Cl	1.785606	0.0	0.0
H	-0.164115	-0.801121	-1.976122
H	-1.60441	0.052664	-1.316853
C	-0.516431	1.103372	0.879137
H	-0.230817	2.049365	0.420363
H	-1.61356	0.99603	0.882068
H	-0.102852	1.021008	1.884005
N	-0.372191	-1.359415	0.592162
O	-0.321329	-1.465355	1.812054
O	-0.625403	-2.27176	-0.185445
N	-0.074478	1.347282	-2.026054
H	-0.729151	1.599118	-2.754709
H	0.838219	1.230563	-2.449109
H	-3.27464	0.0	0.0
