16

C	0.0	0.0	0.0
C	-0.601503	0.004489	-1.391444
Cl	1.774778	0.0	0.0
H	-0.184454	-0.818259	-1.973871
H	-1.676113	-0.177794	-1.192297
C	-0.54337	1.111161	0.851098
H	-0.288171	2.053277	0.366685
H	-1.637512	0.974856	0.860998
H	-0.13112	1.073884	1.858236
N	-0.340052	-1.349758	0.649535
O	-0.40623	-2.32548	-0.092314
O	-0.448091	-1.385377	1.869386
N	-0.399895	1.30709	-2.026046
H	-1.307991	1.707393	-2.222714
H	0.094376	1.199422	-2.899454
H	-3.330573	0.0	0.0
