16

C	0.0	0.0	0.0
C	-0.599018	0.070944	-1.389541
Cl	1.775582	0.0	0.0
H	-1.688832	-0.029536	-1.199323
H	-0.411387	1.093503	-1.73418
C	-0.563455	1.103562	0.859243
H	-1.66032	0.969875	0.84102
H	-0.176023	1.04331	1.875082
H	-0.295593	2.066279	0.41832
N	-0.361002	-1.338589	0.661875
O	-0.303004	-1.391341	1.884831
O	-0.627794	-2.288258	-0.066817
N	-0.027871	-0.851324	-2.373715
H	-0.326646	-0.532039	-3.287952
H	-0.454917	-1.75628	-2.220657
H	-3.34537	0.0	0.0
