17

C	-0.391896	-0.020459	-1.456266
C	0.0	0.0	0.0
F	0.278975	-0.891487	-2.199286
H	1.091906	0.0	0.0
N	-1.88262	-0.23622	-1.725654
O	-2.186057	-0.672152	-2.829182
O	-2.651541	0.083551	-0.826211
N	-0.118565	1.365127	-2.059521
O	0.964079	1.508209	-2.606851
O	-0.99683	2.212475	-1.924344
N	-0.477028	-1.273551	0.624288
O	-0.861487	-2.174192	-0.132078
O	-0.404624	-1.37122	1.840913
N	-0.370769	1.132773	0.758202
H	0.422942	1.740935	0.883061
H	-1.206692	1.611691	0.46958
F	2.47726	0.0	0.0
