17

C	-0.312663	0.023975	-1.476352
C	0.0	0.0	0.0
F	0.083905	1.201627	-1.983059
H	1.091374	0.0	0.0
N	0.412807	-1.074431	-2.228717
O	0.48922	-2.15347	-1.66013
O	0.821203	-0.792474	-3.346836
N	-1.781547	-0.093462	-1.890024
O	-2.13249	-1.020347	-2.606295
O	-2.487705	0.819361	-1.47393
N	-0.586939	-1.200779	0.65933
O	-1.682812	-1.605084	0.249883
O	0.01514	-1.666884	1.617204
N	-0.420614	1.159459	0.724487
H	0.373109	1.779336	0.806325
H	-1.214965	1.629579	0.315788
F	2.501463	0.0	0.0
