17

C	-0.508896	0.009125	-1.412731
C	0.0	0.0	0.0
F	0.200963	-0.714889	-2.272912
H	1.093931	0.0	0.0
N	-1.972042	-0.423809	-1.547856
O	-2.323694	-0.858681	-2.636673
O	-2.679175	-0.262319	-0.560193
N	-0.500311	1.449694	-1.932579
O	-1.558234	2.065833	-1.914663
O	0.583488	1.848886	-2.327579
N	-0.386477	-1.296008	0.626998
O	-0.490851	-1.325576	1.851693
O	-0.517325	-2.273422	-0.113345
N	-0.392644	1.150479	0.731599
H	-1.289792	1.038173	1.184771
H	0.326473	1.350234	1.412338
F	2.466042	0.0	0.0
