17

C	-0.714589	0.012624	-1.319408
C	0.0	0.0	0.0
F	-2.046144	-0.114445	-1.186318
H	1.089926	0.0	0.0
N	-0.459989	1.358974	-1.998204
O	0.697085	1.580711	-2.319405
O	-1.432422	2.082359	-2.160891
N	-0.257987	-1.013421	-2.348658
O	-1.129817	-1.421757	-3.110246
O	0.929297	-1.288594	-2.363044
N	-0.40804	-1.255704	0.701614
O	-0.521201	-1.217941	1.926647
O	-0.558602	-2.270449	0.017356
N	-0.34919	1.186992	0.715821
H	-1.175506	1.072512	1.287841
H	0.43963	1.429315	1.301767
F	2.463996	0.0	0.0
