17

C	-0.507704	0.01573	-1.413114
C	0.0	0.0	0.0
F	0.203071	-0.705115	-2.275376
H	1.093966	0.0	0.0
N	-1.969728	-0.41884	-1.550957
O	-2.678435	-0.262683	-0.563735
O	-2.319178	-0.851394	-2.641082
N	-0.497517	1.458186	-1.927974
O	0.586411	1.857756	-2.322306
O	-1.554528	2.075677	-1.905515
N	-0.384753	-1.299529	0.619953
O	-0.489192	-1.335554	1.844672
O	-0.512975	-2.273926	-0.125001
N	-0.391785	1.147648	0.736988
H	-1.289909	1.035445	1.187307
H	0.32555	1.342704	1.420896
F	2.466023	0.0	0.0
