17

C	-0.715753	0.013424	-1.319316
C	0.0	0.0	0.0
F	-2.04862	-0.105032	-1.181624
H	1.089919	0.0	0.0
N	-0.453589	1.358023	-2.001334
O	-1.42466	2.078852	-2.178824
O	0.706191	1.580613	-2.309841
N	-0.265252	-1.014332	-2.349537
O	-1.144804	-1.438559	-3.093891
O	0.925427	-1.275625	-2.381465
N	-0.410205	-1.256155	0.700722
O	-0.555829	-2.271947	0.017054
O	-0.530046	-1.217501	1.924704
N	-0.350551	1.184579	0.717593
H	0.430083	1.421811	1.313011
H	-1.185395	1.073632	1.276186
F	2.464334	0.0	0.0
