17

C	-0.699619	0.015311	-1.327974
C	0.0	0.0	0.0
F	-2.032553	-0.109031	-1.21169
H	1.08989	0.0	0.0
N	-0.433462	1.362036	-2.002884
O	-1.404618	2.081191	-2.189316
O	0.72957	1.588777	-2.297699
N	-0.232176	-1.012202	-2.352335
O	0.958691	-1.271448	-2.366629
O	-1.099768	-1.438019	-3.108958
N	-0.412817	-1.257433	0.693981
O	-0.546444	-1.221334	1.9167
O	-0.547812	-2.271586	0.006386
N	-0.35624	1.184605	0.715143
H	0.425354	1.425528	1.309848
H	-1.188974	1.069479	1.277075
F	2.464194	0.0	0.0
