17

C	-0.495841	-0.082954	-1.4172
C	0.0	0.0	0.0
F	0.111594	0.837258	-2.167033
H	1.092217	0.0	0.0
N	-0.300581	-1.416452	-2.135715
O	0.832775	-1.630957	-2.528066
O	-1.288294	-2.125491	-2.283899
N	-1.99822	0.191584	-1.515114
O	-2.403884	0.748526	-2.526032
O	-2.673201	-0.188668	-0.565516
N	-0.420265	-1.175975	0.804236
O	-0.216095	-2.290272	0.322256
O	-0.878726	-0.97568	1.927981
N	-0.422147	1.253057	0.53623
H	0.34621	1.614777	1.084504
H	-1.229675	1.134898	1.134601
F	2.470353	0.0	0.0
