17

C	-0.419158	0.005434	-1.443229
C	0.0	0.0	0.0
F	0.345225	-0.72313	-2.250192
H	1.093933	0.0	0.0
N	-1.868624	-0.425207	-1.679656
O	-2.144572	-0.863948	-2.788157
O	-2.64161	-0.262881	-0.742715
N	-0.36352	1.44437	-1.963405
O	0.749454	1.839594	-2.267982
O	-1.418058	2.06492	-2.02968
N	-0.403155	-1.300994	0.602366
O	-0.54005	-1.337725	1.824281
O	-0.511915	-2.274639	-0.146625
N	-0.447868	1.145446	0.704096
H	0.190733	1.328669	1.466863
H	-1.392308	1.035939	1.053475
F	2.464606	0.0	0.0
