15
Coordinates from ORCA-job run
  C   0.65054788162837      0.08045223648920      0.63319393918770
  C   -0.42528033261693      0.36161911559734     -0.40968788221838
  F   0.01776957774784     -0.27846960197512      1.82452600616984
  H   0.09111418515973      0.48827979779268     -1.37477250397295
  H   1.20626803009008      1.00251593129979      0.84467677335331
  C   1.58809046984862     -1.03351852893517      0.23440677536126
  H   2.16257279762406     -0.75486350936776     -0.65247248085128
  H   1.00939582092198     -1.92938086045261      0.01322031616063
  H   2.28538382298977     -1.24158873233966      1.04771419224718
  N   -1.18325821470476      1.54795483489547     -0.00720358329533
  H   -1.83601352396319      1.79670041746733     -0.74169193698205
  H   -0.56405837383141      2.33994013730900      0.12875156857775
  N   -1.27163725899106     -0.80575146950923     -0.53302187295886
  H   -1.90298712043508     -0.70271217141188     -1.31760023765915
  H   -1.82790776146803     -0.87117759685939      0.31196092688034
