15
Coordinates from ORCA-job run
  C   0.46122301654873     -0.21844333912955      0.73751363942590
  C   -0.61528774099241      0.03884750126575     -0.30596772002214
  F   -0.01417801227841     -1.22856108699760      1.59225667654249
  H   -0.68136699629108     -0.86333734263903     -0.93423077136120
  H   0.57042287640438      0.67980217934685      1.35541732363469
  C   1.77990449764420     -0.66245692857801      0.15799324312494
  H   1.64469673972982     -1.58409034698558     -0.41294402941187
  H   2.49550686189773     -0.85473960196204      0.95924069964929
  H   2.17190385660461      0.10776043123659     -0.50438493137579
  N   -0.17964889959443      1.13074855115171     -1.15751895026789
  H   -0.40002057217224      1.99729677461055     -0.67725323778835
  H   -0.69794838693537      1.12674005809530     -2.02687733789880
  N   -1.86051866263858      0.35109608419375      0.38994343646367
  H   -2.63282382808689      0.33848599036308     -0.26617307582864
  H   -2.04086474984007     -0.35714892397178      1.09198503511372
