15
Coordinates from ORCA-job run
  C   0.44415278498461     -0.31563129980923      0.75358273378416
  C   -0.64416256825308     -0.10731034157779     -0.29433100276589
  F   0.09364383584064     -1.39565328286088      1.55574422632887
  H   -0.66973034101883     -1.00534692166090     -0.92080221561971
  H   0.47668569399388      0.56483750334675      1.41302322844966
  C   1.80857813175257     -0.58684868650838      0.16336383485034
  H   1.75934434116074     -1.46753862243574     -0.48119389586443
  H   2.52134354729805     -0.78685427278541      0.96554477373726
  H   2.15075692210720      0.25890479079113     -0.42965605900585
  N   -0.22496689918313      1.00215823375746     -1.15294366091864
  H   -0.31269083817884      1.87399302719280     -0.64025074312731
  H   -0.84053813056459      1.06522548515451     -1.95509759514763
  N   -1.93782624706457     -0.00840558310661      0.36247344328542
  H   -1.95420966330912      0.79033596323473      0.98716632226147
  H   -2.67038056956554      0.11713400726753     -0.32562339024770
