15
Coordinates from ORCA-job run
  C   0.72288063167562      0.13880803502277      0.54948628472089
  C   -0.32989649460870      0.43233362899590     -0.50809547862718
  F   0.03051460993228     -0.02181344494880      1.76913636698257
  H   0.18579242163202      0.54323683226004     -1.46816219347044
  H   1.34922098933542      1.02567475333361      0.67194209355546
  C   1.54201109482359     -1.10072909699590      0.29750007360172
  H   2.23970547192206     -1.26147479902541      1.12134907032825
  H   0.88924318198446     -1.96598841105625      0.19463730887265
  H   2.11554870758214     -0.98705632932264     -0.62576661821675
  N   -0.92680844700251      1.72540399431407     -0.18791775595519
  H   -1.34930109062704      1.67281981751675      0.73216742697240
  H   -1.65804506395387      1.94757176906621     -0.85289071795794
  N   -1.21051753816284     -0.72531707704092     -0.62086180811650
  H   -1.68928601791920     -0.86126329223248      0.26232887840786
  H   -1.91106245661342     -0.56320637988696     -1.33385293109780
