15
Coordinates from ORCA-job run
  C   0.80621817968757      0.20124389217558      0.48388803578505
  C   -0.38672441289305      0.49023550021930     -0.41853124960649
  F   0.38646278229026      0.27818301535813      1.81373301167270
  H   0.01872780339411      0.64585771806787     -1.43187376107420
  H   1.52939329722300      1.00957979798939      0.34025013256989
  C   1.43512777848187     -1.15532647734753      0.26866122726639
  H   2.32552802393725     -1.26140860710065      0.88998120118072
  H   1.72699160159320     -1.28946659058890     -0.77671187195864
  H   0.72691524894285     -1.93489597539180      0.55226512886346
  N   -0.96504754102726      1.74516247961528      0.00360860499973
  H   -1.35634699534157      1.61886076076847      0.92950318028548
  H   -1.70655854169743      2.02963591821088     -0.62416056639589
  N   -1.34566590492700     -0.61853027867504     -0.35582732740095
  H   -0.99268297826108     -1.42517656154602     -0.85951236655110
  H   -2.20233834140272     -0.33395459175494     -0.81627337963616
