15
Coordinates from ORCA-job run
  C   0.42360012112970     -0.45107154986821      0.73784861750823
  C   -0.70728728122160     -0.05988237391014     -0.20429720707777
  F   0.14789625275830     -1.72640059133755      1.22444214731693
  H   -0.86774865710713     -0.91691601105712     -0.87629284898843
  H   0.41787918540962      0.23073496878800      1.59546216844192
  C   1.78960072325625     -0.48464234239176      0.08919782008583
  H   2.51387179010698     -0.90504418661518      0.78839175712820
  H   2.11544696004255      0.52011563186453     -0.18187761555585
  H   1.77439491912110     -1.11823267148545     -0.80222622636581
  N   -0.32608976287087      1.17288498688586     -0.90629673700358
  H   -1.13514641578006      1.51693911615382     -1.41078423376780
  H   0.39376628134048      0.98491112975578     -1.59577642766982
  N   -1.92258491434358      0.11648216859043      0.55829879637058
  H   -1.88588596169050      1.01265358793188      1.03175826085980
  H   -2.73371324015124      0.10846813669511     -0.04684827128243
