11
Coordinates from ORCA-job run
  C   1.15324078687165     -0.44306203948870     -0.31315934944322
  C   -0.10876079206600     -0.35099547606200      0.51358521162499
  F   1.77465778476629      0.80284240831003     -0.36654902407758
  H   0.16486223097691     -0.05526730841460      1.53105496930697
  H   0.93285764487934     -0.74123237807220     -1.34258916203719
  H   1.86888321030360     -1.14654598078652      0.12013619980514
  H   -0.54451557077316     -1.35445352258812      0.57807017109903
  C   -1.11782167843283      0.63349405444641     -0.06740576131658
  H   -2.01560030971045      0.69034731514124      0.55132467371864
  H   -1.42211956790364      0.33358770227262     -1.07389344978602
  H   -0.68468373891169      1.63228522524183     -0.13057447889417
