11
Coordinates from ORCA-job run
  C   -0.02269961194870     -0.61353587419233     -0.05083645342364
  C   -0.77990304115456      0.51540832177117      0.07141369446947
  H   -1.85373906832654      0.48918187453106      0.17741856659998
  C   -0.74764783313943     -1.85790420504635     -0.03681913876378
  N   -1.31925999354612     -2.88571143229898     -0.01544460461912
  N   1.31469119738768     -0.71673410868889     -0.25755785101255
  H   1.85419123479856      0.12601276552228     -0.12856106287098
  H   1.75436281922327     -1.60417964070728     -0.08237643447024
  N   -0.21581737835334      1.82884627962522      0.09901868194718
  O   1.01424530855229      1.95090590692989     -0.00587622232553
  O   -1.00042363349311      2.76771011255421      0.23062082446920
