11
Coordinates from ORCA-job run
  C   -0.03495220092342     -0.61526001184076     -0.01449938785946
  C   -0.76468051771378      0.53350144714626      0.08835113130085
  H   -1.84364458634987      0.53799594833347      0.11973802399041
  C   -0.79679987223078     -1.83587006131051     -0.07725397870664
  N   -1.40326494838601     -2.84168111196581     -0.14096509446870
  N   1.31372166463632     -0.76577973163652      0.00760506378424
  H   1.69811375095596     -1.63246666126980     -0.32818271108804
  H   1.86012897748588      0.07680240208020     -0.08955599611918
  N   -0.16686801101196      1.83154760949454      0.13396878363494
  O   -0.93196995310154      2.79326910276809      0.19760039676580
  O   1.07021569663920      1.91894106820084      0.10319376876577
