11
Coordinates from ORCA-job run
  C   0.22008595131877     -0.46798107146266     -0.15901197111449
  C   0.20249975580170      0.87610171522212      0.01191599977397
  H   1.05771280781664      1.50659489699463     -0.19251424366430
  C   -0.90236042734990     -1.32376757850739      0.12247975243518
  N   -1.70618984297829     -2.15896867765781      0.32182072698526
  N   1.29725873712024     -1.14008935198517     -0.69382448399103
  H   2.17361434616582     -0.64235184422914     -0.71766856233616
  H   1.37862088923828     -2.11334221919647     -0.44650307904169
  N   -0.94827383556045      1.61553226706991      0.46619701722293
  O   -0.77628322964211      2.83047381605589      0.58605632032068
  O   -1.99568515193070      1.01679804769608      0.70205252340964
