11
Coordinates from ORCA-job run
  C   0.26995000540753     -0.45577297003484     -0.11410669076304
  C   -0.07568902673292      0.83961777162667     -0.31103140698612
  H   0.41091297979999      1.47377577694114     -1.04046432022936
  C   -0.35374411426613     -1.30916170171449      0.86254211185274
  N   -0.73922445437295     -2.12292654815281      1.61926999942173
  N   1.20838046510641     -1.10490607813443     -0.88648992424935
  H   1.82100683570944     -0.52201156828927     -1.43558047224967
  H   1.66236391315773     -1.89584859805368     -0.45819593078293
  N   -1.12994745315829      1.51069406937901      0.40678522986607
  O   -1.28709086881884      2.69874153931547      0.11668498635310
  O   -1.78591828183196      0.88679830711722      1.23858641776682
