11
Coordinates from ORCA-job run
  C   0.23820284209500     -0.47727466655141     -0.09205376117086
  C   0.22493783419484      0.86627421957496      0.08419205977500
  H   1.10133828977674      1.48592627611088     -0.05323763768468
  C   -0.92034521434838     -1.31532429470805      0.07004144097538
  N   -1.76442751628784     -2.13162148328498      0.13754380061652
  N   1.38790370235376     -1.18348598582421     -0.37065959409748
  H   2.17724718359490     -0.64828993060091     -0.69804048095288
  H   1.26142185949957     -2.06539787007034     -0.84112715223011
  N   -0.93921596912056      1.61524450179039      0.48502905731918
  O   -1.99220507318650      1.02089470849817      0.70705895376605
  O   -0.77385793857152      2.83405452506551      0.57125331368389
