11
Coordinates from ORCA-job run
  C   -0.06452367808430     -0.60845262488686     -0.07598617547891
  C   -0.66503961733107      0.51748433780584      0.40807918873693
  H   -1.66840715274969      0.51810473827222      0.80609671841748
  C   -0.85413611076904     -1.81143818323971     -0.01877390176360
  N   -1.48971256986161     -2.80075768143513      0.01052217801153
  N   1.20359804027353     -0.76015688476473     -0.53519979822746
  H   1.72049098266256      0.08829172848065     -0.71118383711981
  H   1.41278500714477     -1.57665937101700     -1.08408981853020
  N   -0.03150729566197      1.79935536887890      0.40154599331787
  O   -0.68675829144098      2.74471710109356      0.83913837193078
  O   1.12421068581778      1.89051147081227     -0.04014891929461
