11
Coordinates from ORCA-job run
  C   0.00809671496062     -0.61749400438753      0.00519504576816
  C   -0.71644846523980      0.48624182135279      0.34978988395109
  H   -1.70812879260597      0.42419534279324      0.77222676633415
  C   -0.63729104403984     -1.88344187862041      0.23797114862216
  N   -1.16187010931702     -2.92220552351134      0.40848574665325
  N   1.28267523690997     -0.68184391729940     -0.45637261351655
  H   1.69207776166160      0.18968150903373     -0.75748505957431
  H   1.57910370381063     -1.53342110743543     -0.90230929343222
  N   -0.23859590030106      1.82063073880541      0.16304638051870
  O   0.89549223599150      1.98497882615117     -0.31308788107265
  O   -0.99511134183063      2.73367819311778      0.49253987574822
