11
Coordinates from ORCA-job run
  C   0.19708220378437     -0.46289991284340     -0.20009175598507
  C   0.26999123000746      0.84454312699362      0.14819057769371
  H   1.18970985092144      1.41355203425272      0.11146550340690
  C   -1.01412258937380     -1.23804821806792     -0.14293500043797
  N   -1.90016983909715     -2.01163127433455     -0.13509861841006
  N   1.26683618389220     -1.16008958663483     -0.71815185761901
  H   2.17803058621454     -0.74801959934381     -0.58875100277521
  H   1.24332633297660     -2.15973555557151     -0.59400057548911
  N   -0.85871090475502      1.62557747518274      0.58776502473043
  O   -1.97015136172143      1.10323407995711      0.64153311638512
  O   -0.60182169284921      2.79351743040984      0.88807458850027
