11
Coordinates from ORCA-job run
  C   -0.04884231297745     -0.58150838952976     -0.19962595373514
  C   -0.75009185015681      0.52653137144813      0.18122188991783
  H   -1.82535719412859      0.52810057570191      0.27087247275632
  C   -0.84583253086491     -1.74179526082800     -0.50525837974678
  N   -1.48221098744473     -2.69862702691357     -0.75587770722782
  N   1.28418952123658     -0.70856004358655     -0.40923253809210
  H   1.86591051291130      0.05000589539376     -0.08953413041960
  H   1.67544618591940     -1.63403183881581     -0.45589002051147
  N   -0.12386951933715      1.75533818038280      0.55551472310188
  O   1.11086192316489      1.84096895310822      0.46920962477292
  O   -0.85920374832254      2.66457758363888      0.93860001918397
