11
Coordinates from ORCA-job run
  C   -0.06324264633676     -0.57952097513210     -0.20345869655138
  C   -0.74186724561641      0.55609375801921      0.13549750933404
  H   -1.82011486812801      0.60035607815981      0.16759318853895
  C   -0.87777338426714     -1.72142277580548     -0.52878159981678
  N   -1.53376440356160     -2.66356812317118     -0.78478470755324
  N   1.27502886874774     -0.75283901509098     -0.34369315085898
  H   1.63469820746555     -1.69222128587030     -0.36600515155762
  H   1.86196975015289     -0.01357216924922      0.01260056749405
  N   -0.08514099140006      1.76353764755750      0.52883383169721
  O   -0.80501599808249      2.70421334013653      0.86156068714749
  O   1.15522271102629      1.79694352044622      0.52063752212627
