11
Coordinates from ORCA-job run
  C   -0.03802764517240     -0.60888404122238     -0.08172442217667
  C   -0.76549291183909      0.52943390355576      0.11703966439165
  H   -1.84475989523920      0.53429499907598      0.13094813025788
  C   -0.80557658984240     -1.81262162173730     -0.27383316053078
  N   -1.41351808700641     -2.80666891091540     -0.43394868842100
  N   1.30816650954063     -0.76716814766392     -0.05732325568036
  H   1.86419545593923      0.07422398463027     -0.04829496875397
  H   1.70052629115405     -1.61032963461031     -0.43937191203584
  N   -0.16148485974738      1.81029004130533      0.30965487060459
  O   -0.92125487869895      2.76549081847675      0.46594612433230
  O   1.07722661091193      1.88993860910524      0.31090761801221
