11
Coordinates from ORCA-job run
  C   -0.02171350357601     -0.61282248929348     -0.07682016125905
  C   -0.77446270002790      0.50320460676364      0.15064764647175
  H   -1.85135363771172      0.48075925755267      0.21985796890245
  C   -0.75786842214207     -1.84010461365698     -0.23936820028061
  N   -1.35290307592482     -2.84562815429946     -0.37547308980650
  N   1.32903778951244     -0.72594733838247     -0.11012705591276
  H   1.85490578277051      0.13431765262595     -0.12089899877016
  H   1.73575373525419     -1.55709254109426     -0.50405857755966
  N   -0.20326569757513      1.80369525636913      0.30954464689625
  O   -0.98592101977808      2.73418476061410      0.49997448367999
  O   1.02979074919857      1.92543360280114      0.24572133763830
