11
Coordinates from ORCA-job run
  C   0.27346440207245     -0.45518690790801     -0.10593029894919
  C   0.10408484607217      0.88905477287411     -0.08205427617947
  H   0.80038914011511      1.57853582318117     -0.54090052811380
  C   -0.65069373337772     -1.38687635708464      0.48475635691290
  N   -1.30718304448941     -2.27457238722722      0.89019742713584
  N   1.39334375329587     -1.05861174413923     -0.63524580372674
  H   1.27739086427956     -2.00963579570693     -0.94698700061203
  H   1.96821504094658     -0.49091387087939     -1.23839817667378
  N   -1.00257301613992      1.55055388705902      0.56201864492298
  O   -1.01044811575342      2.77918670685694      0.45823738802375
  O   -1.84599013702127      0.87946587297417      1.15330626725954
