11
Coordinates from ORCA-job run
  C   -0.04390098769554     -0.61138655704727     -0.06799307610943
  C   -0.69802134178083      0.50480432087104      0.36673401701784
  H   -1.71906104827998      0.48303677787735      0.71627674927661
  C   -0.80218835843725     -1.83512167030761     -0.02855145737332
  N   -1.41030342475098     -2.84185058626374     -0.01392529703030
  N   1.24868493009547     -0.73423961101281     -0.46306586070249
  H   1.50775195891662     -1.55352913496158     -0.98575287899875
  H   1.74931080890505      0.12574810531722     -0.62965880288691
  N   -0.10085870097645      1.80381164580687      0.36784064805217
  O   1.07201102502197      1.92047708104393     -0.01925524472395
  O   -0.80242486101808      2.73724962867660      0.75635120347851
