11
Coordinates from ORCA-job run
  C   0.27219952210695     -0.41528770959588     -0.21514235081496
  C   0.14153805267392      0.68424044247044      0.56595118032469
  H   0.91563785543736      1.02027543587645      1.24322582167460
  C   -0.75349173438560     -0.88719657850472     -1.10760774751669
  N   -1.48565168001682     -1.41552171941997     -1.86140244863064
  N   1.43698078562336     -1.14806945473906     -0.28663680174803
  H   2.10638161545666     -1.00247145211752      0.45315787133036
  H   1.33689945308404     -2.10930375300512     -0.57171513690394
  N   -1.02574482416855      1.52949087064101      0.57850876564542
  O   -0.98388600079947      2.46763609153245      1.37739297530139
  O   -1.96286304501184      1.27620782686192     -0.17573212866220
