11
Coordinates from ORCA-job run
  C   0.24204455519939     -0.46359519073279     -0.13807127213887
  C   0.06238382590101      0.87888116487841     -0.18182652967044
  H   0.73412329522225      1.54556075492086     -0.70638774768460
  C   -0.63249984290316     -1.36383656109870      0.56621972849677
  N   -1.22684259535412     -2.22610408428310      1.10165867662664
  N   1.24210020901225     -1.10752236192452     -0.83395537144345
  H   1.52823376941085     -2.00187704042844     -0.46905017865368
  H   2.00094068491664     -0.53315681998703     -1.16682156605413
  N   -1.03669457916979      1.56525878377226      0.44871076373974
  O   -1.02375954300840      2.79267954838357      0.33233563115284
  O   -1.89102977922694      0.91471180649948      1.04718786562919
