11
Coordinates from ORCA-job run
  C   -0.00826120784816     -0.61559908242831     -0.03279739813382
  C   -0.68310614789830      0.47781253391095      0.42714901441502
  H   -1.65017569017982      0.40922032601133      0.90177109572184
  C   -0.66570236745912     -1.88257461487335      0.15885155125964
  N   -1.19187635392631     -2.92551917521462      0.29680074036396
  N   1.23279824537736     -0.67592715503508     -0.57923592044643
  H   1.64646869245576      0.20423899545494     -0.84799510191246
  H   1.48200017860406     -1.50334416606039     -1.09400090003584
  N   -0.18472963965954      1.81128801976075      0.29197642396748
  O   0.92188831821954      1.98231693574035     -0.24188524652578
  O   -0.90030402768548      2.71708738273344      0.71836574132640
