11
Coordinates from ORCA-job run
  C   -0.04817548031645     -0.59790712259393     -0.14356887415173
  C   -0.65588663677805      0.43880246684856      0.50361687498851
  H   -1.56428303592886      0.31745032305996      1.07402298351437
  C   -0.69877141228642     -1.87689914079245     -0.02207546861616
  N   -1.21331637777127     -2.93010402777808      0.07601048286243
  N   1.04637702233306     -0.56917352600057     -0.94501382025649
  H   1.58913885819588      0.28106613202865     -0.93266913763775
  H   1.51140211607432     -1.43848448733635     -1.14379122039532
  N   -0.12905462910898      1.76780790647331      0.50693693611110
  O   0.91515890216711      1.99617220631852     -0.12299626623128
  O   -0.75358932658034      2.61126926977236      1.14952750981231
