11
Coordinates from ORCA-job run
  C   0.23118801737782     -0.49024332597700     -0.09695930963135
  C   0.23481302165473      0.86101774767970      0.02383751534365
  H   1.11610795533342      1.46697752444768     -0.14416040895942
  C   -0.92710207038655     -1.30339338485175      0.16286766580674
  N   -1.80764458340294     -2.06067899163746      0.34097735137772
  N   1.35775240075159     -1.22040188637997     -0.40353864058855
  H   1.20198084323873     -2.10205278706937     -0.86182810662136
  H   2.14046144269875     -0.69972060233781     -0.77126457485975
  N   -0.89712699196058      1.63463533749673      0.47215089985980
  O   -1.99828884653625      1.09916730590701      0.55757524808951
  O   -0.65114118876873      2.81569306272226      0.72234236018299
