11
Coordinates from ORCA-job run
  C   0.20835982814939     -0.46112603178345     -0.19353897748465
  C   0.28158974235442      0.76764671883932      0.37289503744416
  H   1.20190611851448      1.18169201597882      0.76336995462662
  C   -1.01024893927660     -1.03464279372653     -0.70058588475318
  N   -1.91140212136732     -1.65278384154592     -1.13555773071038
  N   1.31554331945397     -1.25323230558103     -0.40782210328031
  H   2.14853336671490     -1.00948937882421      0.10541109662114
  H   1.14269984279642     -2.24400682420099     -0.46936017590163
  N   -0.84169756865365      1.66009513302484      0.51073558258195
  O   -1.93780353393316      1.32383143716904      0.06716777655843
  O   -0.59848005475285      2.72301587065012      1.08628542429785
