11
Coordinates from ORCA-job run
  C   -0.05914114983185     -0.60801956858839     -0.08785215795041
  C   -0.67077254426210      0.50329631866846      0.41533679894324
  H   -1.61353590166737      0.46319396634404      0.93946896047920
  C   -0.75336994228795     -1.85215661905547      0.12211851026913
  N   -1.30195309955296     -2.87797064898879      0.29590203067672
  N   1.07867780086072     -0.68727599559112     -0.82446123631485
  H   1.53204535919036     -1.58247126790868     -0.89565535678800
  H   1.64797454729241      0.14525961253492     -0.85581683147499
  N   -0.10349272923715      1.81256284030192      0.32015821299535
  O   0.97920894172650      1.95076387193775     -0.26920603099326
  O   -0.73564128223059      2.73081749034537      0.84100710015786
