11
Coordinates from ORCA-job run
  C   0.20600884498627     -0.46080136499835     -0.19452267775513
  C   0.28536137792193      0.77690688549368      0.35126470473854
  H   1.21668167097158      1.21316179758237      0.68764535649999
  C   -1.02486987505071     -1.06194141750872     -0.63566795850828
  N   -1.93177401053110     -1.70291189752375     -1.02300081015552
  N   1.31530078744490     -1.23692691658805     -0.45185725643890
  H   2.16822511214077     -0.97067861729708      0.01528202105215
  H   1.15818943959927     -2.23130324263459     -0.49282395923424
  N   -0.84510300140066      1.65350645910014      0.52757206322781
  O   -0.59068311258221      2.73562819088454      1.06083189310722
  O   -1.95733723350004      1.28636012348982      0.15427662346636
