11
Coordinates from ORCA-job run
  C   -0.07856880365514     -0.59149688784147     -0.15747708884252
  C   -0.65682385893826      0.47584724530211      0.46617845480901
  H   -1.60780780096161      0.41015712417833      0.97270587633161
  C   -0.82268850736471     -1.82349856906679     -0.10465354419795
  N   -1.41480722605178     -2.83886054677315     -0.06169921527624
  N   1.06644512626248     -0.62709673331993     -0.88567931537484
  H   1.48639237078848     -1.52396850371496     -1.06135439937252
  H   1.66467258363065      0.18242221373876     -0.81769884761329
  N   -0.04182194989974      1.76501384248219      0.53006852368731
  O   1.05565028804795      1.92970448545704     -0.02430962375193
  O   -0.65064222185832      2.64077632955786      1.14391917960137
