11
Coordinates from ORCA-job run
  C   -0.06044970732596     -0.59299140954766     -0.15722719170022
  C   -0.68553860845402      0.46443465427970      0.43755273924891
  H   -1.65364222708734      0.38027647912947      0.90752585931621
  C   -0.77754592988343     -1.84164675886672     -0.12548428612781
  N   -1.34364152940461     -2.87234550384423     -0.09937441044527
  N   1.11272105847438     -0.60744485603954     -0.83962629120142
  H   1.69001578408620      0.21555533492778     -0.75492571952901
  H   1.55752126154517     -1.49583056315179     -0.99623051670612
  N   -0.10091206335833      1.76681480766788      0.51787890628159
  O   -0.75029268501763      2.63166780042322      1.10493418459720
  O   1.01276464642556      1.95251001502189      0.00397672626593
