11
Coordinates from ORCA-job run
  C   0.21566258034175     -0.46240844128882     -0.18099482044499
  C   0.26097638194966      0.83462882166451      0.20859669551940
  H   1.18733122040800      1.38210789177651      0.32278815332214
  C   -1.00514205587357     -1.21149955547630     -0.32223743680414
  N   -1.89685675568865     -1.96547200838248     -0.46266561829736
  N   1.33682567448061     -1.17148515449670     -0.55282799624907
  H   2.22676005999601     -0.78136376491934     -0.28389954745417
  H   1.27757671545182     -2.17305035616798     -0.46125277980593
  N   -0.90509965248292      1.63064779362069      0.49728826403505
  O   -2.02209017221834      1.13337841963276      0.36898266628031
  O   -0.67394399636435      2.78451635403716      0.86522241989876
