11
Coordinates from ORCA-job run
  C   -0.04195921065729     -0.60361772109467     -0.11667964285006
  C   -0.67134501223412      0.45831296244007      0.46535774784347
  H   -1.65844935431346      0.38603721830037      0.89624685861269
  C   -0.77865645119208     -1.84113518555922     -0.11990040577706
  N   -1.37033962004230     -2.85746613446820     -0.14117429980959
  N   1.21401296079858     -0.66728652706261     -0.62694593609282
  H   1.68926700192179      0.21277585954504     -0.75949352868055
  H   1.43737793385817     -1.43503089719236     -1.23714124395419
  N   -0.09236594254540      1.76404346880705      0.52931918860018
  O   1.04159999303688      1.93630006130080      0.05644855518308
  O   -0.77014229863076      2.64706689498373      1.05396270692483
