11
Coordinates from ORCA-job run
  C   0.22250303697866     -0.43821463657236     -0.22725024820424
  C   0.25568990876527      0.79173340563668      0.34036428961590
  H   1.17768928627825      1.29479037428542      0.60053851015057
  C   -0.99383345237682     -1.12979864374725     -0.56393616115700
  N   -1.88288478572870     -1.83432830343813     -0.87499577688074
  N   1.35957775880103     -1.11731915947534     -0.60847358309561
  H   2.22996234159105     -0.79199676618107     -0.21674679812838
  H   1.27766494256002     -2.12036246585658     -0.65803751948276
  N   -0.91837151560337      1.56877859201826      0.64880923953154
  O   -2.02873617814823      1.12164632992956      0.36900011660907
  O   -0.70026134311716      2.65407127340081      1.19172793104163
