11
Coordinates from ORCA-job run
  C   -0.04531843011879     -0.61121778758140     -0.06310823380787
  C   -0.63602253935233      0.49303013629487      0.48004413466180
  H   -1.58221621129013      0.45222151780115      0.99811335193861
  C   -0.76571266169456     -1.84792517051122      0.09809862073966
  N   -1.34573400213932     -2.86507297581217      0.20938813804498
  N   1.16238588264211     -0.71056667480458     -0.67298207622961
  H   1.34942128809167     -1.52876767892336     -1.22699278743599
  H   1.61939425754817      0.15632237918866     -0.91178504691124
  N   -0.06764297529727      1.80146833126423      0.38745370343223
  O   -0.70910206572039      2.72304593065202      0.89080044260416
  O   1.02254745733083      1.93746199243179     -0.18903024703673
