11
Coordinates from ORCA-job run
  C   -0.08569739226344     -0.58760589169217     -0.16370933712243
  C   -0.71279244838537      0.54246308709801      0.27530030357579
  H   -1.76402570685568      0.56790569305593      0.51962632512942
  C   -0.91801182589343     -1.75698415362703     -0.28467000856634
  N   -1.57968588780597     -2.72464433716558     -0.38021488199788
  N   1.20053558098849     -0.73886378153868     -0.56785542150626
  H   1.57225065200094     -1.67116412502835     -0.63016920007415
  H   1.82828753257911      0.02470004660278     -0.36680685395743
  N   -0.02799244530724      1.78128174504374      0.47633056397454
  O   1.18362828217616      1.84085096057020      0.21621326077340
  O   -0.69549634123355      2.72206075668113      0.90495524977133
