11
Coordinates from ORCA-job run
  C   0.23403182082472     -0.45735422874475     -0.17017251183208
  C   0.07621472376643      0.88757575538350     -0.12206415508712
  H   0.75829698832433      1.57757493246047     -0.60126050790677
  C   -0.65301115865274     -1.38908117660997      0.47486997311038
  N   -1.25875177067024     -2.27619073312164      0.95394634595986
  N   1.22347120995683     -1.06859126409113     -0.90945723418180
  H   1.49766341966920     -1.98866466740085     -0.60345822294103
  H   1.99077964825677     -0.48451507528578     -1.20412473841330
  N   -1.01223011251367      1.54759556753723      0.55370694970601
  O   -1.87678439186689      0.87196270860063      1.10806957208930
  O   -0.97968037709473      2.77968818127228      0.51994452949655
