11
Coordinates from ORCA-job run
  C   -0.11242477121300     -0.58158867839971     -0.19155183568572
  C   -0.76200694061283      0.60130986565566     -0.13050276421451
  H   -1.78022022003990      0.79773529638784     -0.45684020172194
  C   -0.83723106166628     -1.72699502376077     -0.66378296301605
  N   -1.52177822486494     -2.65984312615152     -0.87473191221673
  N   1.16628341342165     -0.81452737707465      0.26208434038043
  H   1.77807785087236     -0.01700906578900      0.36495545363767
  H   1.61043734578214     -1.66241859446604     -0.05613422656548
  N   -0.03533442757029      1.73353021603492      0.43071100029478
  O   -0.35916032525143      2.08811034577556      1.56436268253115
  O   0.85435736114253      2.24069614178771     -0.25056957342361
