11
Coordinates from ORCA-job run
  C   0.27020073273143     -0.45710476795444     -0.10460775873091
  C   0.12934657666485      0.88898132837004     -0.04035523149214
  H   0.86612564481247      1.57719955823769     -0.43336274865365
  C   -0.70805703065973     -1.38727130175852      0.39444127867210
  N   -1.40566038159468     -2.27443833861257      0.72583716042570
  N   1.40659531210817     -1.06853482961809     -0.58808547285158
  H   2.02857690929431     -0.49411238297812     -1.13544848388555
  H   1.28695961589216     -2.00424407872435     -0.94226842524371
  N   -1.00153694821102      1.55328808696403      0.55688219156772
  O   -0.98167381528127      2.78422413706755      0.48880171678910
  O   -1.88987661575670      0.88201258900678      1.07816577340294
