14

C	-0.320887	0.007475	-1.460366
C	0.0	0.0	0.0
Br	-2.25992	-0.003851	-1.887109
H	1.093523	0.0	0.0
H	-0.379297	-0.893692	0.485674
C	0.289292	1.08696	-2.222267
N	0.762175	1.940138	-2.878004
N	0.199717	-1.333702	-2.027678
O	0.810501	-1.297098	-3.085864
O	-0.079684	-2.331068	-1.380937
N	-0.509978	1.162595	0.705839
O	-0.700555	2.207893	0.077073
O	-0.678472	1.041675	1.920586
F	2.450064	0.0	0.0
