14

C	-0.476877	0.003933	-1.423235
C	0.0	0.0	0.0
Br	0.290996	1.437209	-2.468131
H	1.08841	0.0	0.0
H	-0.305437	-0.920701	0.498651
C	-0.095863	-1.262837	-2.044802
N	0.206663	-2.293201	-2.52349
N	-2.037126	0.038367	-1.523757
O	-2.586215	0.795362	-2.300126
O	-2.583596	-0.779587	-0.793774
N	-0.558925	1.106386	0.782174
O	-1.262102	1.948147	0.212518
O	-0.285472	1.124914	1.979175
F	2.471617	0.0	0.0
