14

C	-0.460983	-0.042779	-1.423886
C	0.0	0.0	0.0
Br	-0.037736	1.684049	-2.23205
H	1.089696	0.0	0.0
H	-0.360535	0.889521	0.510091
C	0.157178	-1.079901	-2.238927
N	0.668092	-1.894233	-2.914051
N	-1.996842	-0.169649	-1.554302
O	-2.435973	-0.738632	-2.544879
O	-2.652416	0.356117	-0.665554
N	-0.504586	-1.160257	0.732266
O	-0.465229	-1.113988	1.958387
O	-0.911182	-2.130462	0.07917
F	2.468913	0.0	0.0
