14

C	-0.538038	0.109839	-1.390702
C	0.0	0.0	0.0
Br	-2.486161	0.403638	-1.458447
H	1.107768	0.0	0.0
H	-0.273253	0.890931	0.566655
C	0.084728	1.243417	-2.067042
N	0.548326	2.163517	-2.632208
N	-0.181558	-1.134743	-2.26334
O	-1.041527	-1.61684	-2.980151
O	0.988419	-1.461632	-2.180418
N	-0.537464	-1.147014	0.715735
O	-0.54648	-1.086433	1.945755
O	-0.904825	-2.129244	0.06261
F	2.445304	0.0	0.0
