14

C	-0.309192	-0.116476	-1.454528
C	0.0	0.0	0.0
Br	-2.248158	-0.246725	-1.882211
H	1.108162	0.0	0.0
H	-0.366788	-0.859701	0.552686
C	0.243852	0.929579	-2.302977
N	0.647315	1.740888	-3.052002
N	0.269896	-1.468378	-1.920917
O	0.85101	-1.487844	-2.996462
O	0.057633	-2.424614	-1.189371
N	-0.538641	1.203136	0.60707
O	-0.722552	2.201443	-0.098799
O	-0.748201	1.162632	1.821263
F	2.444158	0.0	0.0
