14

C	-0.397681	0.092646	-1.462868
C	0.0	0.0	0.0
Br	0.231011	-1.518882	-2.335887
H	1.10724	0.0	0.0
H	-0.427544	-0.91704	0.407061
C	-1.814334	0.236053	-1.79054
N	-2.944225	0.291329	-2.111396
N	0.303533	1.334081	-2.070482
O	-0.120333	2.383303	-1.593151
O	1.160665	1.202062	-2.920097
N	-0.604089	1.108419	0.794556
O	-1.835585	1.127065	0.890634
O	0.150138	1.906446	1.344601
F	2.515108	0.0	0.0
