14

C	-0.43895	-0.29244	-1.400142
C	0.0	0.0	0.0
Br	-0.002605	1.270328	-2.490097
H	1.107285	0.0	0.0
H	-0.36169	0.964886	0.346179
C	0.197248	-1.452898	-2.009362
N	0.720269	-2.358221	-2.545251
N	-1.970843	-0.447847	-1.54064
O	-2.386459	-1.152005	-2.451327
O	-2.648168	0.192693	-0.74972
N	-0.506926	-1.018381	0.914139
O	-0.912669	-2.08515	0.433427
O	-0.473301	-0.765658	2.116127
F	2.464669	0.0	0.0
