14

C	-0.52334	-0.123506	-1.404292
C	0.0	0.0	0.0
Br	0.203252	-1.778137	-2.145466
H	1.107796	0.0	0.0
H	-0.294932	-0.87559	0.5801
C	-1.976106	-0.186289	-1.527515
N	-3.146569	-0.300198	-1.549885
N	-0.02251	0.999019	-2.335493
O	-0.628068	1.107542	-3.397908
O	0.941146	1.6431	-1.965346
N	-0.569502	1.169038	0.663972
O	-0.470082	1.225441	1.888276
O	-1.093281	2.045448	-0.037386
F	2.467147	0.0	0.0
