14

C	-0.481579	-0.10015	-1.408435
C	0.0	0.0	0.0
Br	-2.435953	0.098479	-1.606409
H	1.107937	0.0	0.0
H	-0.274184	0.971562	0.412025
C	0.130406	0.957054	-2.207669
N	0.603376	1.807205	-2.86779
N	-0.051045	-1.426866	-2.105427
O	-0.691884	-1.769833	-3.087909
O	0.95161	-1.949295	-1.655788
N	-0.576485	-1.014421	0.870315
O	-0.572036	-0.775789	2.078089
O	-1.006758	-2.057678	0.367844
F	2.447854	0.0	0.0
