15

C	0.0	0.0	0.0
C	-0.478507	-0.451459	-1.381364
Cl	1.801363	0.0	0.0
H	-0.510266	-1.547277	-1.395505
H	-0.266479	1.050126	0.141538
H	0.262079	-0.152064	-2.127253
C	-0.551685	-0.827372	1.139656
H	-1.645385	-0.792234	1.104715
H	-0.226421	-1.866546	1.048265
H	-0.222193	-0.440544	2.10513
C	-1.835983	0.135009	-1.756381
H	-1.771146	1.224771	-1.828314
H	-2.640835	-0.098608	-1.056541
H	-2.149924	-0.242356	-2.733951
Br	-5.085304	0.0	0.0
