15

C	-0.498367	-0.008017	-1.427444
C	0.0	0.0	0.0
F	-0.235315	-1.266773	-1.995935
H	1.094285	0.0	0.0
H	0.077322	0.715363	-2.017644
H	-0.355052	-0.914434	0.490588
C	-1.986144	0.234705	-1.600079
H	-2.268188	0.091272	-2.646626
H	-2.258896	1.249537	-1.303047
H	-2.552775	-0.473297	-0.987818
C	-0.448998	1.23873	0.772889
H	0.080275	1.278446	1.727693
H	-1.525371	1.265746	0.972846
H	-0.179819	2.149641	0.227262
H	3.141834	0.0	0.0
