17

C	-0.238293	-0.013645	-1.517996
C	0.0	0.0	0.0
F	0.100799	1.255732	-2.003372
H	1.096996	0.0	0.0
C	0.69026	-1.017896	-2.171943
H	0.681923	-0.886679	-3.256048
H	0.385461	-2.037114	-1.925161
H	1.677696	-0.815053	-1.737388
C	-1.660188	-0.204014	-1.876941
N	-2.796355	-0.346469	-2.142569
C	-0.483267	-1.244649	0.569002
N	-0.877627	-2.246228	1.044261
C	-0.586918	1.217807	0.699251
H	-0.350609	1.173336	1.76451
H	-0.124762	2.115613	0.286717
H	-1.675117	1.285804	0.584419
F	2.601995	0.0	0.0
