17

C	-0.271797	0.118951	-1.500493
C	0.0	0.0	0.0
F	-1.587038	0.558338	-1.764371
H	1.096755	0.0	0.0
C	0.7254	1.083937	-2.122797
H	0.702075	1.021741	-3.212529
H	1.709232	0.825348	-1.708935
H	0.464344	2.101346	-1.824055
C	-0.154709	-1.19851	-2.155879
N	-0.069422	-2.235936	-2.699177
C	-0.594675	-1.185032	0.586909
N	-1.087595	-2.120756	1.102176
C	-0.423469	1.256379	0.765515
H	-0.195338	1.115697	1.823772
H	-1.488003	1.479004	0.65673
H	0.167117	2.106333	0.420309
F	2.601798	0.0	0.0
