17

C	-0.250511	0.11781	-1.503062
C	0.0	0.0	0.0
F	-1.58429	0.477092	-1.795506
H	1.096846	0.0	0.0
C	0.703119	1.144294	-2.096411
H	1.690264	0.92699	-1.666056
H	0.381022	2.143951	-1.796694
H	0.711359	1.089482	-3.186558
C	-0.029727	-1.18628	-2.160384
N	0.156427	-2.210864	-2.702689
C	-0.602861	-1.186808	0.57273
N	-1.089903	-2.130599	1.078664
C	-0.425779	1.261036	0.757397
H	0.254843	2.0737	0.505017
H	-1.454431	1.556504	0.540783
H	-0.329836	1.084469	1.829571
F	2.595185	0.0	0.0
