17

C	-0.383734	0.084788	-1.474408
C	0.0	0.0	0.0
F	0.064101	-1.071584	-2.112993
H	1.096359	0.0	0.0
C	-1.875511	0.187619	-1.760326
H	-2.37715	-0.665003	-1.29724
H	-2.050623	0.166912	-2.838242
H	-2.283703	1.11448	-1.353238
C	0.304596	1.233347	-2.105098
N	0.750036	2.186347	-2.625411
C	-0.570169	-1.197595	0.577722
N	-1.050751	-2.153765	1.06824
C	-0.380362	1.246524	0.799927
H	-1.458262	1.428843	0.867154
H	0.10936	2.117838	0.357974
H	0.019864	1.136181	1.80946
F	2.522452	0.0	0.0
