13
Coordinates from ORCA-job run
  C   0.90554542350651     -0.29274863471470      0.39900491519145
  C   -0.31448397712765     -0.04325079467503     -0.11836442079757
  H   1.18593252028046     -1.30761561096509      0.67599371026915
  N   1.83240279514308      0.79200081870666      0.55087868375112
  H   2.51870665314041      0.79469726663454     -0.19501634263289
  H   2.33257164648336      0.71551866317867      1.42668025531888
  C   -1.33692640207161     -1.11403086999207     -0.33760796371753
  H   -1.58166889358547     -1.19757524740697     -1.40011214657375
  H   -0.97784672928107     -2.08083228357436      0.01741744106833
  H   -2.26513957886742     -0.87876177162388      0.19490218048362
  N   -0.65812397384583      1.22758248585943     -0.58696790007410
  H   -1.62414873120143      1.46715600289928     -0.41363186715965
  H   -0.01782075257334      1.91785997567353     -0.21117654512706
