13
Coordinates from ORCA-job run
  C   0.83318784647344     -0.14487344068928      0.59075502683143
  C   -0.30546995243415     -0.07248325601314     -0.12800791457022
  H   0.98148579131042     -0.95355644711608      1.30433978933183
  N   1.85078051008145      0.84576398037800      0.38385660161262
  H   2.59855999391562      0.48671558046345     -0.19864172484965
  H   2.25890257302918      1.12841431524419      1.26514140332733
  C   -1.41169411191197     -1.07205558891911      0.00359639289902
  H   -1.57513677247241     -1.58985557001367     -0.94562459768569
  H   -1.18517466203170     -1.81154952841250      0.77264808771724
  H   -2.35143829259806     -0.57714776538719      0.27267903143019
  N   -0.47367105952161      0.89014387685414     -1.12630179255851
  H   0.20060986461263      1.63687433617032     -1.00321295850855
  H   -1.42094172845285      1.23460950744089     -1.19222734497704
