13
Coordinates from ORCA-job run
  C   0.90865710853992     -0.29513527482174      0.38961551456817
  C   -0.32323148788400     -0.03768735889152     -0.09451098806879
  H   1.14709393210252     -1.27933546331953      0.78906396770433
  N   1.90292815817051      0.73883414423841      0.34851084398990
  H   2.45239011971974      0.74024471018238      1.19769058336183
  H   2.54004623300106      0.60265588248829     -0.42805421298643
  C   -1.41524660764469     -1.06097097441081     -0.11801994810967
  H   -2.29731625007323     -0.69978323991294      0.42232500525218
  H   -1.72398221361881     -1.26802943193039     -1.14642295240583
  H   -1.09141353631628     -1.99338685983110      0.34604301031523
  N   -0.61942116327483      1.17998782079974     -0.71300984025554
  H   0.07734050710021      1.87255085767427     -0.46309670436392
  H   -1.55984479982210      1.50005518773494     -0.52913427900146
