13
Coordinates from ORCA-job run
  C   1.03677140807822      0.44830689537123      0.05178478925624
  C   -0.28671163569830      0.30947151110986     -0.16366827949603
  H   1.51738098692518      1.39216461456445     -0.19997109760497
  N   1.94722403528815     -0.54039349793370      0.49226975585359
  H   1.48554928222224     -1.38891524029973      0.78655125789839
  H   2.53253520172469     -0.20214085498102      1.24451759788480
  C   -1.07384723320844     -0.93404660653935      0.12387317711008
  H   -0.54386493561527     -1.62569429817165      0.78141607396579
  H   -2.01366350066694     -0.66106864467716      0.61013399291718
  H   -1.32038427310761     -1.47858981901271     -0.79496267135346
  N   -1.09447745671272      1.38668214314500     -0.62350010555802
  H   -0.53175488004729      2.18549586033080     -0.88818995608719
  H   -1.65475699918192      1.10972793709398     -1.42125453478641
