13
Coordinates from ORCA-job run
  C   1.11764691747510      0.37781279663967      0.00035300013227
  C   -0.20939032228803      0.32032811497924     -0.21906175970660
  H   1.63790006872682      1.26484551948693     -0.34801511627670
  N   1.94201363110842     -0.62029829181634      0.53459982816696
  H   2.74596310475079     -0.24333704684242      1.01191779080574
  H   1.45858285704959     -1.27880116422735      1.12628729289258
  C   -1.09516082482740     -0.83590380269507      0.15452669056552
  H   -0.56144726507190     -1.65245270204357      0.64735346756025
  H   -1.89991960820209     -0.51150020110234      0.82458633371181
  H   -1.57385317229451     -1.25693266076425     -0.73701910510241
  N   -0.80061061219158      1.45097360464738     -0.88643098935291
  H   -1.56584523699441      1.82118693572017     -0.33294130786796
  H   -1.19587953724082      1.16507889801793     -1.77615612552854
