13
Coordinates from ORCA-job run
  C   0.87409298612416     -0.19796912881960      0.51063555257469
  C   -0.31759480536324     -0.05684652242270     -0.10464455317013
  H   1.07133463835710     -1.07076371788942      1.13075536241498
  N   1.86312624042106      0.83041584540268      0.35597832600573
  H   2.78211860837914      0.42681933804298      0.23051888756332
  H   1.90037116661206      1.42777593272726      1.17400713727444
  C   -1.41865332772195     -1.06278598215632      0.02179950316019
  H   -1.72716423164109     -1.42709111880529     -0.96439185424170
  H   -2.29652746848141     -0.61178023273532      0.49263267403200
  H   -1.10210602111600     -1.92061776240915      0.61637099174962
  N   -0.63713916583038      1.10641388680266     -0.80936616526834
  H   0.20802017417120      1.62314691743637     -1.02408708480028
  H   -1.19987879391064      0.93328254482587     -1.63020877729451
