13
Coordinates from ORCA-job run
  C   0.91100969046513     -0.32198642300000      0.57044101712045
  C   -0.25192032331743     -0.07678585908458     -0.06584524625906
  H   0.97980623867109     -1.15642541592211      1.26155112661513
  N   2.12484775463544      0.35490913159537      0.30382923617376
  H   2.46882567634459      0.92036505475132      1.06708765601744
  H   2.09052966359855      0.88775492309206     -0.55289820409753
  C   -1.44400424738385     -0.97343680430295      0.05935044853911
  H   -1.25388139857071     -1.78003729033578      0.76855648892793
  H   -1.69405781834434     -1.42469465202952     -0.90670542620443
  H   -2.32405029991950     -0.41533358038254      0.39890399844763
  N   -0.37381450570233      0.97522394437000     -1.00756550972516
  H   -1.34035008067550      1.19785021709176     -1.19853937531089
  H   0.10605965019885      1.81159675415695     -0.69916621024438
