13
Coordinates from ORCA-job run
  C   0.92770487496625      0.45755548339329      0.48818138515509
  C   -0.30857115117125      0.33222454950731     -0.03550068793472
  H   1.23532717314779      1.41804412942449      0.89856964346985
  N   1.89812328616215     -0.55948694047781      0.65515535137737
  H   2.78017153998035     -0.31987318902787      0.22162914423273
  H   1.58640173980416     -1.45464022270546      0.30818803846268
  C   -0.85622095320157     -0.92760140521190     -0.63689788600801
  H   -0.07120636553114     -1.63555685691915     -0.90809404348877
  H   -1.54435924970554     -1.43883864527935      0.04598611295862
  H   -1.41101313483822     -0.68146828431854     -1.54591734728399
  N   -1.20832252840135      1.42875226756937     -0.11734605461965
  H   -2.13685387048289      1.16687523202550      0.19057483558942
  H   -0.89218136072873      2.21501388202011      0.43547150808938
