13
Coordinates from ORCA-job run
  C   0.97376567265461     -0.35119593438774      0.36727658577547
  C   -0.25273628492771     -0.08594439495884     -0.12974138826572
  H   1.27988173532087     -1.38743859211564      0.47526074679937
  N   1.91003309370659      0.59808132665152      0.85872824358448
  H   1.48609131806746      1.49035374201988      1.06935375531893
  H   2.70156991314432      0.73732468222121      0.24461196607689
  C   -1.22363251366302     -1.17771106130720     -0.46044624568490
  H   -1.52084136083250     -1.11514444822752     -1.51077436199317
  H   -0.79078277433522     -2.16038740539673     -0.26800244720753
  H   -2.13486318658589     -1.09287714476152      0.14338347161270
  N   -0.71555687039082      1.20331796638783     -0.46470324166966
  H   -0.07430450130902      1.94214855543329     -0.21774179271760
  H   -1.63962424084966      1.40147270844145     -0.10620529162927
