13
Coordinates from ORCA-job run
  C   1.01749672284937      0.34976340972753     -0.02093624175901
  C   -0.32235412197918      0.29748861431645     -0.16246591239446
  H   1.54233102358484      1.27168111380243     -0.29040136680466
  N   1.76671390508352     -0.78057117186909      0.44295435677964
  H   2.36091459524427     -0.51283262152694      1.21760779015641
  H   2.37067952135968     -1.13177927992403     -0.29081831084766
  C   -1.13889137467170     -0.90956780213825      0.17954196208383
  H   -1.64014478972798     -1.28939882697149     -0.71513414647385
  H   -1.91740759180210     -0.65320598570925      0.90711960001195
  H   -0.49870910000220     -1.68219749765498      0.59880912594284
  N   -1.05475455426203      1.34132299334690     -0.75276177457304
  H   -1.94825267715145      1.49003782796352     -0.30522809635778
  H   -0.53762155852502      2.20825922663719     -0.80828698576421
