13
Coordinates from ORCA-job run
  C   0.87020116620642     -0.23338691147496      0.62677268243675
  C   -0.27777583822002     -0.08336731961342     -0.06706399832464
  H   1.00480297919799     -1.12819937901393      1.22698275139770
  N   1.99380645444035      0.63537928057923      0.59894255604320
  H   1.98228021925665      1.26324809579589     -0.19207899910132
  H   2.11315831507842      1.16715345477060      1.45092130425548
  C   -1.32805503191518     -1.15121555156371     -0.09615502059016
  H   -1.03906209488631     -2.00432349284984      0.51932802219116
  H   -1.49077270627886     -1.51822661985270     -1.11645813361293
  H   -2.28120403756108     -0.75454232817974      0.26384907924871
  N   -0.64601229038705      1.09000757345266     -0.75781454674892
  H   0.06697490246094      1.80395912501270     -0.75705001345796
  H   -0.96934203739226      0.91351407293722     -1.69917568373707
