13
Coordinates from ORCA-job run
  C   0.87601854147867     -0.18505859330940      0.51331531360439
  C   -0.31980587506077     -0.05602222670959     -0.09640354033829
  H   1.05182544265669     -1.00420694489541      1.20849284404971
  N   1.91631360116563      0.75625118533444      0.21186987823155
  H   2.58315461590753      0.36664878697377     -0.44460739776397
  H   2.42373980146452      1.00962837762135      1.04929728352310
  C   -1.45381338298130     -1.00525383240919      0.13402981246855
  H   -2.34336990472282     -0.46958640974987      0.48365046121957
  H   -1.72287995823736     -1.51324232562730     -0.79621962985194
  H   -1.19384991850187     -1.75551824035836      0.88177632146330
  N   -0.53354047150359      0.91732562073153     -1.07573999415067
  H   -1.46593602815221      1.30551252673073     -1.05418440817418
  H   0.18214353648688      1.63252207566733     -1.01427694428112
