14

C	0.0	0.0	0.0
C	-0.476937	-0.012023	-1.492286
Br	2.023603	0.0	0.0
H	0.417133	0.038566	-2.128016
C	-0.318329	1.280386	0.655356
N	-0.454356	2.274741	1.269186
N	-0.433635	-1.164356	0.688035
H	-1.478951	-0.998642	0.620035
H	-0.131872	-1.101613	1.654915
C	-1.310426	1.136153	-1.865512
N	-1.808365	2.084495	-2.34937
C	-1.153294	-1.264407	-1.845423
N	-1.60914	-2.251513	-2.28736
F	-2.502598	0.0	0.0
