14

C	0.0	0.0	0.0
C	-0.570052	-0.010099	-1.446697
Br	1.957338	0.0	0.0
H	-1.700127	0.020422	-1.11678
C	-0.378042	1.275773	0.632757
N	-0.557111	2.29972	1.180236
N	-0.473922	-1.083178	0.80755
H	-1.504288	-0.967738	0.727069
H	-0.177609	-1.960651	0.391124
C	-0.24463	-1.258661	-2.113305
N	0.004194	-2.285198	-2.630513
C	-0.179868	1.135289	-2.248427
N	0.134477	2.064478	-2.897135
F	-2.699073	0.0	0.0
