14

C	0.0	0.0	0.0
C	-0.368494	0.052756	-1.513879
Br	2.018176	0.0	0.0
H	0.406185	-0.533967	-2.016627
C	-0.376135	1.208853	0.74689
N	-0.540486	2.165834	1.411366
N	-0.432971	-1.24776	0.536966
H	-0.112424	-1.327621	1.49604
H	-1.471709	-1.083029	0.508967
C	-0.272184	1.416043	-2.041147
N	-0.160738	2.494174	-2.492737
C	-1.640555	-0.572436	-1.92328
N	-2.346111	-1.168144	-2.653457
F	-2.517707	0.0	0.0
