14

C	0.0	0.0	0.0
C	-0.371178	0.043887	-1.537424
Br	1.963528	0.0	0.0
H	0.364017	0.689709	-2.031081
C	-0.397954	1.281174	0.5987
N	-0.574278	2.336473	1.084826
N	-0.468351	-1.086584	0.783315
H	-0.190289	-1.956401	0.339308
H	-1.506753	-0.931732	0.689647
C	-1.693492	0.579249	-1.923379
N	-2.43105	1.131249	-2.660637
C	-0.198581	-1.304002	-2.086255
N	-0.052239	-2.387747	-2.515504
F	-2.559295	0.0	0.0
