14

C	0.0	0.0	0.0
C	-0.614128	0.008852	-1.407384
Br	1.951579	0.0	0.0
H	-1.753122	0.02146	-1.045705
C	-0.347915	1.273635	0.672437
N	-0.5617	2.256311	1.282564
N	-0.492477	-1.167798	0.671781
H	-0.171372	-1.159233	1.633825
H	-1.519816	-1.012273	0.645244
C	-0.29389	-1.20396	-2.139717
N	-0.055512	-2.170785	-2.763821
C	-0.282012	1.197602	-2.171723
N	-0.044088	2.158592	-2.805821
F	-2.748925	0.0	0.0
