14

C	0.0	0.0	0.0
C	-0.61395	0.154538	-1.399073
Br	1.947851	0.0	0.0
H	-1.75322	0.131637	-1.03949
C	-0.348319	1.198724	0.799634
N	-0.557541	2.114208	1.507559
N	-0.494841	-1.229165	0.54601
H	-1.522556	-1.070536	0.533357
H	-0.175628	-1.322655	1.504218
C	-0.297951	-0.975991	-2.255354
N	-0.072896	-1.864137	-2.992166
C	-0.282115	1.414985	-2.037528
N	-0.04272	2.44042	-2.561089
F	-2.750575	0.0	0.0
