14

C	0.0	0.0	0.0
C	-0.487013	-0.112855	-1.44403
Br	2.065228	0.0	0.0
H	-1.566738	0.076	-1.373928
H	-0.00436	0.662891	-2.047444
C	-0.271152	1.327619	0.556063
N	-0.469879	2.39744	0.998873
N	-0.520529	-1.009994	0.760445
H	-0.377462	-0.994255	1.754289
H	-0.540645	-1.907472	0.303546
N	-0.263367	-1.474991	-1.915341
H	0.596932	-1.534478	-2.440875
H	-1.034337	-1.755392	-2.505756
Cl	-3.868385	0.0	0.0
