14

C	0.0	0.0	0.0
C	-0.526098	-0.123	-1.42612
Br	2.065537	0.0	0.0
H	-0.042489	0.628368	-2.057925
H	-1.596364	0.099592	-1.318146
C	-0.256164	1.334308	0.550818
N	-0.427933	2.40786	0.995624
N	-0.518639	-0.997447	0.779406
H	-0.577135	-1.888374	0.310952
H	-0.329164	-0.994012	1.765388
N	-0.366793	-1.495619	-1.884934
H	0.446349	-1.590667	-2.476385
H	-1.19178	-1.777222	-2.395717
Cl	-3.813493	0.0	0.0
