14

C	0.0	0.0	0.0
C	-0.544375	-0.113294	-1.421624
Br	2.065184	0.0	0.0
H	-0.047735	0.623077	-2.05987
H	-1.606979	0.138273	-1.301347
C	-0.255714	1.330324	0.56182
N	-0.427051	2.402303	1.010868
N	-0.508825	-1.006504	0.780585
H	-0.540124	-1.893924	0.300429
H	-0.260125	-1.020317	1.754283
N	-0.424034	-1.488805	-1.883278
H	-1.295021	-1.778735	-2.304889
H	0.328104	-1.590945	-2.549008
Cl	-3.842488	0.0	0.0
