14

C	0.0	0.0	0.0
C	-0.468071	-0.51437	-1.3695
Br	1.961266	0.0	0.0
H	0.105967	-1.421217	-1.588206
H	-1.522746	-0.770845	-1.233725
C	-0.381777	1.406607	0.175444
N	-0.630791	2.545989	0.308784
N	-0.468067	-0.771478	1.122677
H	-0.251947	-1.747026	0.94359
H	-1.49294	-0.675733	1.114452
N	-0.244053	0.480583	-2.412741
H	-0.22212	0.02558	-3.317096
H	-1.042196	1.108773	-2.412999
Cl	-3.51874	0.0	0.0
