14

C	0.0	0.0	0.0
C	-0.512788	-0.24121	-1.411112
Br	2.04321	0.0	0.0
H	-0.249151	-1.27482	-1.684945
H	-1.603546	-0.180443	-1.28516
C	-0.291867	1.363941	0.452317
N	-0.489875	2.457247	0.831911
N	-0.513822	-0.934794	0.880719
H	-0.444221	-1.897326	0.595027
H	-0.380063	-0.771339	1.863428
N	-0.038877	0.768371	-2.335647
H	-0.753707	0.966737	-3.020726
H	0.806535	0.474208	-2.804331
Cl	-3.842776	0.0	0.0
