14

C	0.0	0.0	0.0
C	-0.298447	0.335894	-1.504099
Br	1.96567	0.0	0.0
H	0.246525	-0.427323	-2.066241
H	0.181789	1.298729	-1.703855
C	-0.352131	1.126215	0.879922
N	-0.61902	2.030232	1.583312
N	-0.586869	-1.249946	0.360383
H	-1.593821	-1.142307	0.192634
H	-0.472004	-1.422449	1.35306
N	-1.654194	0.360772	-1.962321
H	-2.27611	0.902896	-1.371744
H	-2.062244	-0.564157	-1.975069
Cl	-4.064324	0.0	0.0
