14

C	0.0	0.0	0.0
C	-0.504639	0.368265	-1.398154
Br	1.95377	0.0	0.0
H	-1.546297	0.036538	-1.428703
H	0.084348	-0.210167	-2.113179
C	-0.340679	1.053013	0.98071
N	-0.56915	1.876438	1.788393
N	-0.491105	-1.30716	0.337859
H	-0.229471	-1.534152	1.291555
H	-1.51536	-1.231208	0.301762
N	-0.350063	1.797001	-1.652511
H	-1.146915	2.265165	-1.231741
H	-0.414816	1.956711	-2.649869
Cl	-3.559	0.0	0.0
