14

C	0.0	0.0	0.0
C	-0.527008	-0.114585	-1.426238
Br	2.065554	0.0	0.0
H	-0.040695	0.637459	-2.055227
H	-1.596139	0.111868	-1.314487
C	-0.255331	1.331424	0.559087
N	-0.424413	2.401704	1.013233
N	-0.518567	-0.999987	0.774946
H	-0.579279	-1.889682	0.304912
H	-0.336911	-0.995655	1.762
N	-0.373293	-1.48576	-1.891524
H	0.43518	-1.58038	-2.490032
H	-1.202344	-1.766191	-2.396907
Cl	-3.813776	0.0	0.0
