12

C	0.0	0.0	0.0
C	-0.515629	0.007492	-1.416505
F	1.401005	0.0	0.0
H	-1.611046	0.05987	-1.354263
H	-0.305414	0.925904	0.497585
H	-0.123954	0.86778	-1.967649
H	-0.215543	-0.909491	-1.933509
C	-0.515629	-1.177172	0.787915
H	-0.215547	-2.114348	0.308484
H	-0.12395	-1.162074	1.809494
H	-1.611045	-1.096358	0.797254
H	-3.482793	0.0	0.0
