13

C	0.0	0.0	0.0
C	-0.465685	-0.172314	-1.441454
F	1.382371	0.0	0.0
H	-0.209847	-1.167016	-1.808389
H	-0.372355	-0.818703	0.617772
H	-0.347402	0.956868	0.392385
N	0.402151	0.759108	-2.268974
O	1.107648	0.272171	-3.14889
O	0.315111	1.955215	-2.006124
N	-1.818724	0.141873	-1.738865
H	-2.165248	0.922653	-1.194286
H	-2.461828	-0.612207	-1.526138
Br	-4.606479	0.0	0.0
