11

C	0.0	0.0	0.0
C	-0.50596	-0.123174	-1.416342
Br	1.952993	0.0	0.0
H	-1.595488	-0.106451	-1.323747
H	-0.331712	-0.828271	0.622405
H	-0.317797	0.946557	0.429421
H	-0.203543	-1.099159	-1.826065
N	-0.067959	1.014084	-2.227291
H	-0.690212	1.111329	-3.018968
H	0.865174	0.847352	-2.582872
Cl	-3.64858	0.0	0.0
