13

C	-0.245134	-0.124805	-1.493829
C	0.0	0.0	0.0
Cl	-1.943891	-0.711921	-1.895018
H	1.092789	0.0	0.0
H	-0.460219	0.888641	0.43231
H	-0.364802	-0.901157	0.500026
C	-0.13776	1.183863	-2.145918
N	-0.046822	2.237045	-2.659302
C	0.78332	-1.085255	-2.079047
H	0.751486	-1.108278	-3.170444
H	1.755466	-0.75264	-1.679595
H	0.584967	-2.08577	-1.687676
F	2.724884	0.0	0.0
