18

C	-0.549459	-0.014138	-1.435053
C	0.0	0.0	0.0
Cl	0.133898	1.373743	-2.373138
H	1.100133	0.0	0.0
C	-0.122882	-1.238017	-2.122003
N	0.116253	-2.233311	-2.698112
C	-2.070049	0.071106	-1.503933
H	-2.480951	-0.733485	-0.892434
H	-2.401394	1.035556	-1.117183
H	-2.41562	-0.030212	-2.534729
N	-0.455289	-1.264246	0.619099
H	0.342677	-1.895121	0.585836
H	-0.628413	-1.09131	1.603328
C	-0.479836	1.189993	0.808164
H	-1.533671	1.098633	1.09818
H	0.132128	1.245358	1.713588
H	-0.339832	2.126362	0.265626
H	2.884011	0.0	0.0
