18

C	-0.48003	-0.026887	-1.464917
C	0.0	0.0	0.0
Cl	0.278435	1.318654	-2.4015
H	1.095476	0.0	0.0
C	-0.06417	-1.283522	-2.100697
N	0.198911	-2.303697	-2.621156
C	-1.992922	0.125435	-1.628591
H	-2.273261	0.04703	-2.681019
H	-2.301422	1.101703	-1.255034
H	-2.519148	-0.651726	-1.066967
N	-0.355931	-1.233329	0.709295
H	-1.193715	-1.672746	0.348899
H	0.41631	-1.883165	0.590652
C	-0.512252	1.20926	0.762133
H	0.046573	1.253565	1.699941
H	-0.335709	2.1411	0.218581
H	-1.578198	1.123784	1.00541
H	2.863673	0.0	0.0
