18

C	-0.419612	0.017762	-1.475046
C	0.0	0.0	0.0
Cl	-0.029857	-1.586184	-2.228815
H	1.095657	0.0	0.0
C	-1.865783	0.202938	-1.626461
N	-3.013044	0.430122	-1.746357
C	0.369283	1.071114	-2.247567
H	0.196415	0.968405	-3.320509
H	1.428115	0.927653	-2.009033
H	0.06161	2.072144	-1.938915
N	-0.581248	-1.168848	0.672672
H	0.010825	-1.963828	0.450399
H	-0.465211	-1.019269	1.669655
C	-0.470782	1.254602	0.719551
H	-0.023108	1.257671	1.718011
H	-0.131408	2.165539	0.225917
H	-1.56054	1.275808	0.819195
H	2.971628	0.0	0.0
