18

C	-0.362231	0.036607	-1.507746
C	0.0	0.0	0.0
Cl	0.081252	-1.547943	-2.269836
H	1.096725	0.0	0.0
C	-1.80763	0.183355	-1.704549
N	-2.967011	0.342237	-1.822607
C	0.427312	1.12139	-2.232959
H	0.304692	1.030894	-3.314178
H	0.082025	2.109465	-1.922028
H	1.478588	0.996259	-1.948935
N	-0.475098	-1.165287	0.723642
H	-1.419597	-1.412467	0.446957
H	0.133615	-1.945549	0.51028
C	-0.484959	1.260485	0.703166
H	-0.079498	2.169881	0.255498
H	-0.123811	1.205216	1.731234
H	-1.579449	1.327231	0.724198
H	2.946087	0.0	0.0
