20

C	0.0	0.0	0.0
C	-0.577316	0.082061	-1.419297
Br	1.969783	0.0	0.0
H	-1.6485	0.26374	-1.253833
C	-0.443237	1.185598	0.849512
H	-0.088238	2.132212	0.443655
H	-0.05638	1.070452	1.864069
H	-1.537559	1.190635	0.869075
C	-0.459193	-1.300305	0.64973
H	-0.034132	-2.174496	0.155707
H	-1.55337	-1.332407	0.604489
H	-0.14498	-1.309916	1.695915
C	-0.35859	-1.135364	-2.293024
H	0.692633	-1.418165	-2.331928
H	-0.952648	-1.959465	-1.905943
H	-0.694704	-0.928591	-3.308422
N	-0.06684	1.300848	-2.128543
O	-0.619477	2.371773	-1.884035
O	0.877582	1.171217	-2.907084
Cl	-3.79602	0.0	0.0
