20

C	0.0	0.0	0.0
C	-0.313065	0.002309	-1.5429
Br	1.978848	0.0	0.0
H	0.522014	-0.502497	-2.030266
C	-0.510194	1.226043	0.732401
H	-0.207095	1.17011	1.780491
H	-0.132256	2.159288	0.315554
H	-1.604702	1.200061	0.677006
C	-0.438369	-1.253905	0.742702
H	-1.531477	-1.285981	0.730246
H	-0.040296	-2.160239	0.292814
H	-0.091095	-1.181643	1.776863
C	-0.483215	1.390743	-2.124182
H	-1.404538	1.840939	-1.75517
H	-0.540367	1.339041	-3.211119
H	0.375016	2.007613	-1.850293
N	-1.451924	-0.891084	-2.026134
O	-1.371598	-2.081089	-1.732267
O	-2.260401	-0.414414	-2.810668
Cl	-3.778159	0.0	0.0
