20

C	0.0	0.0	0.0
C	-0.341928	0.096369	-1.507582
Br	1.975734	0.0	0.0
H	0.069181	1.039958	-1.874558
C	-0.492825	1.262997	0.689914
H	-0.141215	1.28074	1.724335
H	-1.588184	1.255468	0.697778
H	-0.133453	2.163437	0.185629
C	-0.530438	-1.230999	0.708806
H	-0.191212	-2.150401	0.236091
H	-1.62578	-1.192913	0.690572
H	-0.200874	-1.220142	1.751105
C	-1.809442	-0.033688	-1.862946
H	-2.201739	-1.015166	-1.605185
H	-2.434723	0.679772	-1.33184
H	-1.924364	0.128211	-2.938115
N	0.388722	-0.927347	-2.335331
O	1.08884	-0.507739	-3.256892
O	0.200615	-2.116341	-2.087906
Cl	-4.490117	0.0	0.0
