20

C	0.0	0.0	0.0
C	-0.300754	0.030631	-1.544165
Br	1.978671	0.0	0.0
H	0.511952	-0.513039	-2.027917
C	-0.516535	1.211645	0.749965
H	-0.225254	1.137643	1.800274
H	-0.134154	2.151979	0.353203
H	-1.61146	1.187181	0.682009
C	-0.443065	-1.270469	0.708567
H	-0.088239	-1.235438	1.742432
H	-1.537036	-1.293362	0.701643
H	-0.058068	-2.166168	0.226191
C	-0.396764	1.43098	-2.114004
H	0.484026	2.004853	-1.820023
H	-1.301464	1.920021	-1.755295
H	-0.440552	1.391165	-3.202512
N	-1.479622	-0.79869	-2.046207
O	-2.274209	-0.266715	-2.809022
O	-1.44757	-1.998179	-1.783873
Cl	-3.811122	0.0	0.0
