20

C	0.0	0.0	0.0
C	-0.346439	-0.227389	-1.492541
Br	1.975605	0.0	0.0
H	0.062221	0.617578	-2.050795
C	-0.499912	1.378044	0.404484
H	-0.1587	2.149222	-0.290305
H	-0.137816	1.627223	1.40439
H	-1.594997	1.36199	0.426858
C	-0.524929	-1.053638	0.956771
H	-0.17392	-2.050251	0.699126
H	-0.208369	-0.809821	1.97402
H	-1.619986	-1.029924	0.919525
C	-1.813101	-0.432854	-1.817312
H	-2.201996	-1.343947	-1.368536
H	-2.445141	0.370322	-1.447644
H	-1.922385	-0.494568	-2.904689
N	0.387366	-1.400735	-2.083732
O	1.090694	-1.182529	-3.070196
O	0.200485	-2.510469	-1.590413
Cl	-4.499777	0.0	0.0
