20

C	0.0	0.0	0.0
C	-0.371326	-0.297762	-1.474164
Br	1.975455	0.0	0.0
H	-0.046297	0.555071	-2.073368
C	-0.488475	1.397659	0.350457
H	-0.15612	1.666854	1.355152
H	-1.58302	1.40206	0.336076
H	-0.109479	2.142993	-0.352516
C	-0.522868	-1.01203	1.001631
H	-0.206624	-2.023601	0.755681
H	-0.166663	-0.756693	2.002546
H	-1.61677	-0.960374	0.997311
C	-1.829874	-0.624497	-1.728361
H	-1.991751	-0.69262	-2.808953
H	-2.516931	0.1152	-1.31977
H	-2.105704	-1.573309	-1.27059
N	0.42381	-1.435677	-2.056615
O	0.343942	-2.536356	-1.516462
O	1.067652	-1.202689	-3.079587
Cl	-4.580761	0.0	0.0
