14

C	-0.217668	-0.143893	-1.476043
C	0.0	0.0	0.0
Br	-2.104038	-0.597908	-1.990646
H	1.094121	0.0	0.0
H	-0.46761	0.890266	0.412028
H	-0.358382	-0.89934	0.505971
N	-0.013753	1.213945	-2.160123
O	0.513149	1.222468	-3.269373
O	-0.420522	2.212107	-1.573681
C	0.742529	-1.154631	-2.053935
H	0.502549	-2.131991	-1.629367
H	1.73124	-0.850432	-1.672588
H	0.698704	-1.201137	-3.139721
F	2.704821	0.0	0.0
