15

C	-0.46598	-0.018887	-1.44874
C	0.0	0.0	0.0
F	0.059881	1.109244	-2.096336
H	1.094686	0.0	0.0
H	-0.032693	-0.887617	-1.952501
N	-1.888529	-0.056976	-1.564019
H	-2.148684	-0.048898	-2.542784
H	-2.277027	0.774851	-1.130412
C	-0.461399	-1.252237	0.75085
H	-0.05493	-1.242896	1.763651
H	-1.549261	-1.32292	0.788941
H	-0.065648	-2.135363	0.243485
C	-0.510495	1.205795	0.648658
N	-0.999074	2.147859	1.153564
Cl	3.39884	0.0	0.0
