15

C	-0.437375	0.02487	-1.456513
C	0.0	0.0	0.0
F	-0.188845	1.269036	-2.00391
H	1.095972	0.0	0.0
H	0.199829	-0.677602	-2.012019
N	-1.858255	-0.205917	-1.6109
H	-2.080746	-0.164628	-2.599208
H	-2.084652	-1.137231	-1.285052
C	-0.420888	-1.300923	0.694312
H	-1.502044	-1.360905	0.844083
H	0.068233	-1.363753	1.667058
H	-0.081173	-2.158071	0.105114
C	-0.524615	1.157715	0.717252
N	-0.940668	2.071532	1.325739
Cl	3.377121	0.0	0.0
