15

C	-0.392614	0.019258	-1.488108
C	0.0	0.0	0.0
F	-0.254229	-1.281334	-1.965516
H	1.097838	0.0	0.0
H	-1.448537	0.287677	-1.618312
N	0.418403	0.88469	-2.285005
H	1.384289	0.839668	-1.961789
H	0.094279	1.838946	-2.207545
C	-0.54118	-1.190845	0.784719
H	-0.128679	-2.106413	0.363581
H	-0.234049	-1.122591	1.82996
H	-1.63406	-1.238315	0.740656
C	-0.456614	1.264287	0.57276
N	-0.886815	2.266805	1.009789
Cl	3.367385	0.0	0.0
