15

C	-0.460127	0.024746	-1.450987
C	0.0	0.0	0.0
F	-1.858292	0.317923	-1.47314
H	1.09507	0.0	0.0
H	0.017992	0.85089	-1.981588
N	-0.186165	-1.188995	-2.121662
H	-0.418655	-1.113588	-3.102131
H	-0.708038	-1.953566	-1.713862
C	-0.484558	-1.236243	0.762361
H	-1.569095	-1.35439	0.687612
H	-0.213942	-1.148225	1.815263
H	0.019347	-2.122541	0.373148
C	-0.464314	1.217518	0.665343
N	-0.854836	2.177685	1.21707
Cl	3.407987	0.0	0.0
