12

C	0.0	0.0	0.0
C	-0.376801	0.000136	-1.477915
Br	1.948155	0.0	0.0
H	-1.483187	-0.043554	-1.459931
H	-0.336982	0.925247	0.45955
H	0.089154	-0.814134	-2.029112
C	-0.569792	-1.160996	0.681301
N	-0.618169	-2.214875	1.217609
N	0.001121	1.252496	-2.150185
O	-0.088273	2.303283	-1.512042
O	0.296326	1.18541	-3.348286
H	-2.392303	0.0	0.0
