12

C	0.0	0.0	0.0
C	-0.480924	0.054054	-1.432164
Br	1.948068	0.0	0.0
H	-1.611032	0.084331	-1.230701
H	-0.35239	0.888423	0.521921
H	-0.151796	-0.788552	-2.035488
C	-0.453464	-1.191526	0.70607
N	-0.577947	-2.157711	1.366156
N	-0.04782	1.277153	-2.090785
O	0.219975	1.2226	-3.299061
O	-0.053207	2.320892	-1.426195
H	-2.599321	0.0	0.0
