12

C	0.0	0.0	0.0
C	-0.559171	-0.037736	-1.400176
Br	1.948676	0.0	0.0
H	-0.343881	0.872214	-1.960257
H	-0.318856	0.945257	0.444869
H	-1.731365	-0.085531	-1.031999
C	-0.426877	-1.079945	0.896191
N	-0.553833	-1.911046	1.712319
N	-0.130794	-1.151698	-2.180537
O	0.020423	-0.989893	-3.401167
O	0.032842	-2.240906	-1.607842
H	-2.637351	0.0	0.0
