16

C	0.0	0.0	0.0
C	-0.544345	0.094132	-1.42166
Br	1.95043	0.0	0.0
H	-1.634683	0.214132	-1.199918
H	-0.242579	0.939926	0.499033
N	-0.562102	-1.165581	0.615428
H	-0.34752	-1.125609	1.606978
H	-1.589032	-0.939706	0.504206
C	-0.260032	-1.104973	-2.288938
H	0.805827	-1.21393	-2.49338
H	-0.788583	-1.024047	-3.239047
H	-0.614518	-1.983085	-1.750117
N	-0.078728	1.361682	-2.051567
O	-0.207707	2.400137	-1.401001
O	0.378462	1.324901	-3.197095
F	-2.830289	0.0	0.0
