16

C	0.0	0.0	0.0
C	-0.20033	0.537697	-1.476362
Br	1.983308	0.0	0.0
H	0.448716	1.4067	-1.588022
H	-0.2761	0.832561	0.649157
N	-0.655441	-1.157842	0.434601
H	-0.554623	-1.875052	-0.274093
H	-1.679161	-0.824343	0.416105
C	-1.586653	0.894183	-1.983697
H	-1.487904	1.184601	-3.036781
H	-2.300472	0.095995	-1.80789
H	-1.972345	1.731005	-1.404382
N	0.367498	-0.430005	-2.473545
O	0.007794	-1.60651	-2.413016
O	1.116776	0.018028	-3.3422
F	-2.942311	0.0	0.0
