16

C	0.0	0.0	0.0
C	-0.526887	0.047402	-1.438211
Br	1.97894	0.0	0.0
H	-1.614625	0.19158	-1.209157
H	-0.263699	0.948111	0.462196
N	-0.542337	-1.053194	0.794673
H	-0.36388	-1.943527	0.341748
H	-1.568765	-0.830222	0.703508
C	-0.279748	-1.183591	-2.274621
H	0.785487	-1.399655	-2.383708
H	-0.709665	-1.059948	-3.2684
H	-0.77968	-2.028574	-1.798487
N	-0.035373	1.277259	-2.117291
O	-0.143988	2.339358	-1.503261
O	0.433181	1.190473	-3.256082
F	-2.804141	0.0	0.0
