16

C	0.0	0.0	0.0
C	-0.271418	-0.085362	-1.54687
Br	2.017117	0.0	0.0
H	0.608559	0.302116	-2.052578
H	-0.202243	1.033306	0.304342
N	-0.647565	-1.008755	0.72913
H	-0.541741	-0.80136	1.717575
H	-1.679257	-0.794257	0.477574
C	-1.496373	0.60494	-2.119265
H	-1.494673	0.45986	-3.205589
H	-1.40778	1.677059	-1.91369
H	-2.397949	0.243975	-1.616128
N	-0.274095	-1.530556	-1.960899
O	-1.319625	-2.16378	-1.862751
O	0.785584	-1.989808	-2.401312
F	-2.923516	0.0	0.0
