12

C	-0.184803	0.136051	-1.390337
C	-0.087991	-0.069198	0.102971
Cl	-1.824908	0.581371	-1.947098
H	0.996684	-0.110324	0.237302
H	0.567687	0.863345	-1.709841
H	-0.571484	-0.997198	0.40816
N	0.181649	-1.135203	-2.119485
O	0.120785	-2.198584	-1.508121
O	0.469777	-1.009576	-3.302412
C	-0.634019	1.055224	0.847337
N	-1.055905	1.945993	1.485703
H	2.439447	0.43488	-0.900182
