16

C	0.0	0.0	0.0
C	-0.275393	0.041043	-1.532888
Cl	1.756568	0.0	0.0
H	0.404532	-0.687774	-1.969646
H	-0.313332	0.877979	0.547216
N	-0.685254	-1.162292	0.581427
O	-0.6921	-1.221691	1.835342
O	-0.679311	-2.195566	-0.153686
N	0.201907	1.363275	-2.062274
O	-0.088778	2.381547	-1.436859
O	0.7919	1.352784	-3.143083
C	-1.642791	-0.18004	-2.168371
H	-2.051367	-1.110151	-1.781969
H	-2.328521	0.639418	-1.967159
H	-1.479141	-0.272542	-3.251465
H	-2.048329	0.0	0.0
