16

C	0.0	0.0	0.0
C	-0.262952	0.077997	-1.533108
Cl	1.756553	0.0	0.0
H	0.42222	-0.639049	-1.980142
H	-0.314888	0.864431	0.566817
N	-0.675052	-1.176866	0.557519
O	-0.682243	-1.26097	1.809907
O	-0.667256	-2.194434	-0.198296
N	0.230239	1.412766	-2.017732
O	-0.060961	2.414035	-1.365924
O	0.836681	1.430658	-3.089792
C	-1.62012	-0.125969	-2.191596
H	-1.441165	-0.191138	-3.273977
H	-2.034547	-1.064991	-1.832985
H	-2.309013	0.687153	-1.979297
H	-2.050041	0.0	0.0
