16

C	0.0	0.0	0.0
C	-0.587996	-0.091984	-1.395739
Cl	1.753107	0.0	0.0
H	-1.685717	-0.13929	-1.163763
H	-0.400374	0.889966	0.480691
N	-0.409647	-1.147915	0.88938
O	-0.536485	-2.247011	0.363771
O	-0.457993	-0.905753	2.089351
N	-0.206917	-1.312961	-2.171224
O	-1.120458	-2.035357	-2.561855
O	0.982282	-1.483839	-2.451588
C	-0.20099	1.116717	-2.226375
H	-0.68348	1.060233	-3.204937
H	0.879886	1.173506	-2.371747
H	-0.550769	2.024329	-1.728269
H	-2.884276	0.0	0.0
