13

C	-0.45122	0.010044	-1.469485
C	0.0	0.0	0.0
Br	0.049037	-1.666331	-2.326055
H	1.095863	0.0	0.0
H	0.158745	0.76426	-1.979628
N	-1.882734	0.170777	-1.581065
H	-2.150027	1.051829	-1.153012
H	-2.148859	0.196358	-2.558102
C	-0.537501	-1.131416	0.751088
N	-0.963973	-2.031666	1.372459
C	-0.442896	1.257572	0.609019
N	-0.832072	2.283514	1.029353
Cl	3.18626	0.0	0.0
