13

C	-0.340877	-0.120029	-1.500312
C	0.0	0.0	0.0
Br	-0.137875	1.718299	-2.351448
H	1.097515	0.0	0.0
H	-1.394732	-0.331448	-1.681482
N	0.495776	-1.107392	-2.034488
H	0.372892	-1.237588	-3.028334
H	1.47371	-0.937119	-1.800277
C	-0.469149	-1.214703	0.671715
N	-0.88461	-2.172523	1.20976
C	-0.551243	1.17036	0.671192
N	-1.029012	2.075609	1.246859
Cl	3.19656	0.0	0.0
