13

C	-0.255654	0.133174	-1.505131
C	0.0	0.0	0.0
Br	-2.175251	0.308611	-1.926489
H	1.09945	0.0	0.0
H	0.019894	-0.819396	-1.971466
N	0.452097	1.289593	-1.964767
H	1.41435	1.224081	-1.627894
H	0.460239	1.31861	-2.97666
C	-0.510082	-1.252867	0.543056
N	-0.913261	-2.269244	0.971996
C	-0.490042	1.148654	0.755974
N	-0.87633	2.065413	1.379572
Cl	3.182952	0.0	0.0
