13

C	-0.494138	0.047558	-1.452623
C	0.0	0.0	0.0
Br	0.261935	-1.539293	-2.411358
H	1.094798	0.0	0.0
H	-0.020533	0.895256	-1.947674
N	-1.906629	0.138005	-1.532311
H	-2.213565	0.225407	-2.492289
H	-2.343909	-0.680784	-1.124887
C	-0.525315	-1.176136	0.691566
N	-0.989755	-2.121907	1.211064
C	-0.447177	1.216405	0.687023
N	-0.786958	2.20228	1.227138
Cl	3.188142	0.0	0.0
