13

C	-0.335666	-0.124812	-1.50223
C	0.0	0.0	0.0
Br	-0.145888	1.715255	-2.357656
H	1.095808	0.0	0.0
H	-1.387271	-0.342701	-1.686675
N	0.510181	-1.105563	-2.03182
H	1.485981	-0.931654	-1.790872
H	0.393888	-1.240063	-3.025419
C	-0.470081	-1.213151	0.673327
N	-0.885323	-2.170962	1.210822
C	-0.551509	1.172903	0.665808
N	-1.01583	2.084231	1.242901
Cl	3.20186	0.0	0.0
