14

C	0.0	0.0	0.0
C	-0.460618	-0.054804	-1.45611
F	1.40034	0.0	0.0
H	-1.484272	0.32441	-1.473806
H	0.202768	0.632445	-1.993535
N	-0.456003	1.153251	0.721344
H	-0.314658	1.958828	0.122384
H	-1.469813	1.041897	0.817221
C	-0.379193	-1.225247	0.740378
N	-0.563874	-2.229166	1.318691
N	-0.325308	-1.398622	-2.019567
H	-1.124046	-1.934991	-1.694427
H	-0.42317	-1.332043	-3.02592
Cl	-3.540417	0.0	0.0
