14

C	0.0	0.0	0.0
C	-0.449123	-0.105859	-1.490627
F	1.421029	0.0	0.0
H	0.465778	-0.072111	-2.087462
H	-0.928188	-1.079112	-1.634743
N	-0.48159	1.14166	0.67637
H	-1.204515	0.896292	1.339827
H	-0.894103	1.755356	-0.019346
C	-0.326646	-1.238314	0.740809
N	-0.487957	-2.236287	1.337291
N	-1.307665	1.013571	-1.84736
H	-2.241439	0.79604	-1.481886
H	-1.364395	1.080501	-2.856247
Cl	-3.72554	0.0	0.0
