14

C	0.0	0.0	0.0
C	-0.595317	-0.293683	-1.388698
F	1.420519	0.0	0.0
H	0.236685	-0.609854	-2.024938
H	-1.299806	-1.122911	-1.273391
N	-0.489356	1.199587	0.517585
H	-0.557732	1.904445	-0.203132
H	-0.01562	1.491589	1.357843
C	-0.280621	-1.122361	0.935548
N	-0.398195	-2.029186	1.670908
N	-1.242915	0.896837	-1.929344
H	-2.180682	0.901461	-1.514223
H	-1.352479	0.779441	-2.928599
Cl	-3.850991	0.0	0.0
