14

C	0.0	0.0	0.0
C	-0.498278	-0.281752	-1.437184
F	1.380389	0.0	0.0
H	-1.29563	-1.024671	-1.374932
H	0.345325	-0.697442	-1.994637
N	-0.463252	1.20938	0.599018
H	-1.451504	1.068873	0.816721
H	-0.435624	1.909175	-0.138952
C	-0.349302	-1.153723	0.872872
N	-0.492604	-2.108326	1.539964
N	-0.954932	0.959627	-2.058712
H	-1.925397	1.061337	-1.767855
H	-0.954757	0.839512	-3.063831
Cl	-3.52436	0.0	0.0
