14

C	-0.111352	0.162112	-1.515516
C	0.0	0.0	0.0
Br	-1.941108	0.898389	-2.06878
H	1.106498	0.0	0.0
H	-0.158824	-0.815163	-2.009665
N	0.921761	1.03508	-1.946487
H	1.112061	0.915964	-2.932009
H	1.761696	0.801967	-1.376919
C	-0.623261	-1.229342	0.455785
N	-1.122658	-2.224172	0.834218
N	-0.378651	1.145521	0.812978
H	-1.138298	1.650243	0.370992
H	0.427267	1.754753	0.850431
F	2.629957	0.0	0.0
