14

C	-0.351852	0.004259	-1.446564
C	0.0	0.0	0.0
Br	-2.616123	-0.151296	-1.578443
H	1.095903	0.0	0.0
H	-0.161969	-0.92343	-1.976793
N	0.059796	1.129388	-2.082381
H	-0.036716	1.947448	-1.494608
H	-0.220334	1.238392	-3.042453
C	-0.469071	-1.189048	0.696177
N	-0.818777	-2.122646	1.320763
N	-0.391705	1.262989	0.614755
H	0.254984	1.457034	1.369791
H	-1.338767	1.214414	0.97506
F	2.514083	0.0	0.0
