14

C	-0.1665	0.189785	-1.505494
C	0.0	0.0	0.0
Br	-1.999116	0.988718	-1.944758
H	1.093834	0.0	0.0
H	-0.278534	-0.777584	-2.004937
N	0.883727	1.007239	-1.980517
H	1.714977	0.828072	-1.387996
H	1.086527	0.819814	-2.952592
C	-0.577295	-1.26275	0.447541
N	-1.059453	-2.257901	0.849911
N	-0.397123	1.157782	0.779639
H	-1.371039	1.109074	1.05101
H	0.186391	1.19965	1.605008
F	2.626001	0.0	0.0
