14

C	-0.463648	-0.040814	-1.44834
C	0.0	0.0	0.0
Br	-0.268229	-1.844786	-2.202903
H	1.088809	0.0	0.0
H	0.26392	0.54737	-2.016791
N	-1.83832	0.379413	-1.587555
H	-1.886963	1.257118	-1.076334
H	-2.040246	0.567279	-2.562922
C	-0.587233	-1.033815	0.833696
N	-1.058633	-1.816423	1.574955
N	-0.316059	1.358252	0.518066
H	0.569642	1.710634	0.867782
H	-0.960033	1.307224	1.297623
F	2.566853	0.0	0.0
