14

C	-0.169868	-0.134629	-1.533051
C	0.0	0.0	0.0
Br	-0.130533	1.777357	-2.366547
H	1.098063	0.0	0.0
H	-1.148045	-0.457813	-1.894216
N	0.882093	-0.941517	-1.953927
H	1.759616	-0.671689	-1.470328
H	0.967252	-1.038149	-2.954121
C	-0.471838	-1.243706	0.599056
N	-0.892798	-2.204836	1.132003
N	-0.567939	1.172027	0.644083
H	-1.300762	0.917932	1.291751
H	0.175136	1.626707	1.157804
F	2.646785	0.0	0.0
