11

C	-0.552885	-0.173124	-1.394191
C	0.0	0.0	0.0
Cl	-0.183412	-1.791411	-2.08091
H	1.092357	0.0	0.0
H	-1.63988	-0.087244	-1.387858
H	-0.11115	0.556936	-2.071982
H	-0.323099	0.99814	0.324387
N	-0.594746	-0.98162	0.920144
H	-0.198672	-1.885265	0.680767
H	-0.234958	-0.772911	1.84584
Br	3.763696	0.0	0.0
