11

C	-0.556961	0.014379	-1.402966
C	0.0	0.0	0.0
Cl	-0.204406	1.558716	-2.273569
H	1.099763	0.0	0.0
H	-0.110661	-0.789146	-1.997636
H	-1.64861	-0.077091	-1.375442
H	-0.320304	-0.954814	0.437464
N	-0.594076	1.080578	0.803164
H	-0.203125	1.950878	0.458927
H	-0.227497	0.981387	1.7446
Br	3.740374	0.0	0.0
