15
Coordinates from ORCA-job run
  C   0.64130803575068      0.14095619688127     -0.46640799175276
  C   -0.54149775811194     -0.07459767241931      0.17251342509459
  C   1.94332919670445      0.26184038756103      0.28720894622149
  H   2.20859189012977     -0.67711396460734      0.78768978412056
  H   2.76167509953189      0.51402600220443     -0.38695034792969
  H   1.88199589360938      1.04617602653527      1.04889172752904
  C   0.66423153486243      0.26414344966183     -1.88383133222871
  N   0.71563507188895      0.36797651684484     -3.05632657499948
  C   -1.86668446742384     -0.16456065100300     -0.52064254219909
  H   -2.31991799818370     -1.14719060730664     -0.35229063967253
  H   -2.54806586190324      0.59076086171889     -0.11815740133257
  H   -1.77055648823633     -0.01114119956933     -1.59436237422839
  N   -0.60636227069524     -0.13220997195952      1.55337746712193
  H   -1.41140873505317     -0.61017299775130      1.92617612980611
  H   0.24772685712990     -0.36989237679111      2.03311172444949
