15
Coordinates from ORCA-job run
  C   0.78155716615137     -0.02146701786225     -0.22185280678793
  C   -0.43690172223526     -0.32300179636543      0.31407697041500
  C   1.12454014029360      1.15690477436607     -1.09741385558435
  H   1.66783124136305      1.92347507397166     -0.53651219682729
  H   1.76581710889320      0.83868798431929     -1.92275219617190
  H   0.23803033479935      1.61858898313450     -1.53000444498463
  C   1.86329725295760     -0.88827339090813      0.11962134976320
  N   2.73127032010103     -1.62998288389882      0.41209901972742
  C   -1.68531402008183      0.47465828366089      0.07945220977884
  H   -2.04439081785460      0.87633833360114      1.03095100126621
  H   -1.53959665946168      1.30088920215279     -0.61067655604855
  H   -2.47444613791568     -0.16864464212942     -0.32439036510837
  N   -0.61176741833989     -1.35151332260214      1.22455459074085
  H   0.14194698616180     -2.02177060317640      1.28446744937237
  H   -1.52287377483207     -1.78288897826375      1.21037983044914
