15
Coordinates from ORCA-job run
  C   0.72941211837085     -0.09576111830546     -0.36913103103615
  C   -0.52050150296913     -0.35871058113682      0.10965522525291
  C   1.37048886933203      1.26414524614808     -0.50456810487017
  H   2.00412336539024      1.30287081284581     -1.39371102062416
  H   0.63340878103729      2.06102524848755     -0.59441235669419
  H   2.01050600856522      1.47417878798239      0.35976951952915
  C   1.53866149083168     -1.21664200216073     -0.72430001857800
  N   2.18912942959752     -2.15976313775339     -1.00088679109953
  C   -1.48275175195308      0.69542774436085      0.56988385752690
  H   -1.82671146633319      0.47339851143291      1.58520317300095
  H   -2.35995503956608      0.69665400987826     -0.08352978824374
  H   -1.05129027241900      1.69307993089462      0.57995866715852
  N   -1.06929044036337     -1.62931501165967      0.10354984731506
  H   -0.42679538639150     -2.39558204744201     -0.04305559300401
  H   -1.73843420312949     -1.80600639357240      0.83557441436647
