15
Coordinates from ORCA-job run
  C   0.57511713311322      0.33855149638752     -0.44840210104475
  C   -0.49022290401262     -0.25725577846837      0.15488869460084
  C   1.90418420983760      0.49063730897175      0.25020286115307
  H   2.27117036923560     -0.47833020222522      0.60432436829119
  H   1.83156004935577      1.16223317848326      1.11381981915328
  H   2.65357374565143      0.90599096474993     -0.42304651229623
  C   0.44782882033425      0.83194055922052     -1.77694373620052
  N   0.37201769289670      1.25357555172896     -2.87459169102932
  C   -1.81627968712622     -0.47447071881334     -0.50740203714162
  H   -2.61263368783013      0.02314948900992      0.05602754234095
  H   -1.82473078367648     -0.08740695341945     -1.52490974528991
  H   -2.04654174523286     -1.54343357062198     -0.53602160374318
  N   -0.37794550863854     -0.80430059540902      1.42091642521498
  H   -1.24726075205993     -0.92160759963842      1.91697659051481
  H   0.35916304815220     -0.43827312995605      2.00316112547641
