15
Coordinates from ORCA-job run
  C   0.51312471461591      0.48723460122326     -0.37504511717290
  C   -0.45121318804143     -0.34218710454668      0.11120320659115
  C   1.87425395833479      0.59021953528163      0.26863947653972
  H   2.31986313225038     -0.40112917087329      0.39734303405639
  H   1.81957937281583      1.06963230490382      1.25304813491912
  H   2.55137843975585      1.18464863953653     -0.34460029946597
  C   0.24187373035398      1.28700794023446     -1.52028556801845
  N   0.04474219511032      1.96223452169037     -2.46548970081071
  C   -1.79488938252245     -0.52713823492909     -0.52557781148239
  H   -1.93655354964028      0.14831234586438     -1.36760576456552
  H   -2.59339045713238     -0.34745207052866      0.20114945661137
  H   -1.89674306974908     -1.55536345437389     -0.88426843404235
  N   -0.20067950126354     -1.17175945867683      1.19034931556314
  H   -1.02011901204595     -1.50662581811903      1.67138671485261
  H   0.52977261715803     -0.87763457668696      1.81975335642479
