15
Coordinates from ORCA-job run
  C   0.60722900144442      0.34247301418095     -0.39551793540333
  C   -0.52329575770075     -0.18897438036095      0.14600067277274
  C   1.95502921447789      0.19468112459606      0.26773981962183
  H   2.71116650047777      0.77931993195153     -0.25542120808488
  H   2.29151380732095     -0.84859774985890      0.27350434999880
  H   1.91867367265841      0.54558947071839      1.30416992654655
  C   0.53084787295993      1.06196365274102     -1.62075701010902
  N   0.49893228435097      1.65963355316952     -2.63562387914125
  C   -1.89098983296052     -0.03036816596965     -0.44478943414931
  H   -1.86241687803746      0.52231386677151     -1.38246793995961
  H   -2.34104824419501     -1.01001843224907     -0.63693366714254
  H   -2.53950242113789      0.50283422270708      0.25653018601701
  N   -0.49121367850838     -0.84085263477158      1.36563183877607
  H   -1.26160625780842     -1.46598373524901      1.54096109448921
  H   0.39768071665810     -1.22401373837690      1.64697318576772
