15
Coordinates from ORCA-job run
  C   0.53315522498110      0.47943226133561     -0.35465540241694
  C   -0.47389518847068     -0.31299251869512      0.10553923202053
  C   1.78204923433043      0.73220632474600      0.45401180310495
  H   2.41557492930716      1.47416248551040     -0.03124575038766
  H   1.53158145401787      1.10695177683431      1.45174594533137
  H   2.37800105041001     -0.18031016196045      0.57268776471382
  C   0.41787669144394      1.09347235407769     -1.63311953166447
  N   0.35162136136689      1.61295452305201     -2.68858689298830
  C   -1.75187542512241     -0.56172186245628     -0.63568803675180
  H   -2.60158224785705     -0.21987698604353     -0.03744123701128
  H   -1.76869137206877     -0.04380601035218     -1.59337583492741
  H   -1.88390325224079     -1.63279016445341     -0.82173099040266
  N   -0.41834101176509     -0.87538211422081      1.36853015390937
  H   -1.01030824900009     -1.67898770766657      1.50733687602446
  H   0.49973680066749     -0.99131219970766      1.76799190144601
