15
Coordinates from ORCA-job run
  C   0.60238036504678      0.26845751279616     -0.46250162462742
  C   -0.52100528013254     -0.14565350017390      0.18571251106005
  C   1.95181051969666      0.28521731293217      0.21272235999372
  H   1.91277843158154      0.85505510839287      1.14679297238328
  H   2.29906449937242     -0.72788400506401      0.44727966101638
  H   2.70252420982534      0.74647620319756     -0.42850242301050
  C   0.51569886684010      0.69612237555641     -1.81703555929024
  N   0.47427022743656      1.04988691436736     -2.94013139479743
  C   -1.89018603914274     -0.14575608152031     -0.42271567117754
  H   -2.56633705789792      0.46348364963550      0.18378192273018
  H   -2.29450839664463     -1.16280666069372     -0.45367221587670
  H   -1.88011284452725      0.24930836052448     -1.43694858956761
  N   -0.48036418989763     -0.51501724507333      1.51864503360019
  H   0.41362494596346     -0.81802603002852      1.87251352636167
  H   -1.24163825752015     -1.09986391484874      1.82505949120197
