15
Coordinates from ORCA-job run
  C   0.61727436542550      0.20346625876109     -0.47588367115877
  C   -0.52843272571537     -0.12355543220399      0.18302992057263
  C   1.92757370361503      0.39074097530460      0.24897381412222
  H   2.27936678858070     -0.54641764562016      0.69627008236248
  H   2.70412304836985      0.73771094642372     -0.43228212505127
  H   1.82766810936207      1.13152935527536      1.04915241575927
  C   0.59230675564050      0.38026696264062     -1.88763680818460
  N   0.60357831972621      0.52932927307088     -3.05630916584106
  C   -1.86329195249405     -0.27771088742857     -0.47939033162759
  H   -2.25911669811567     -1.28512497738652     -0.31376345884332
  H   -1.80141946145200     -0.10607435651950     -1.55271863031327
  H   -2.57454744458122      0.43443995197188     -0.05113231997889
  N   -0.54946500392303     -0.24018036623277      1.56182256683887
  H   -1.30759463464100     -0.78970685570109      1.93447244327101
  H   0.33297683020247     -0.43771320235555      2.00739526807229
