15
Coordinates from ORCA-job run
  C   0.60750069832942      0.24534852202802     -0.46845331331960
  C   -0.51762758367936     -0.17759461272464      0.17112986050322
  C   1.97114294453816      0.14968515283833      0.17090958799645
  H   2.18195588810794     -0.87605125340912      0.49033157580693
  H   2.75129959897733      0.44778719698772     -0.52914869299795
  H   2.05127207430660      0.80231928448483      1.04814734501201
  C   0.50936464552157      0.79461686318803     -1.77739160453483
  N   0.45868350477078      1.25789561850686     -2.85957081532028
  C   -1.88934854528837     -0.14264362475818     -0.43081768834709
  H   -2.55762559973426      0.47646134585051      0.17695645101529
  H   -1.87367218845997      0.26063979669656     -1.44198883199867
  H   -2.30727884146630     -1.15304959987394     -0.46310720150843
  N   -0.44831840758187     -0.77208172964062      1.41832241089242
  H   -1.30350035898464     -0.75590574748499      1.95094159561111
  H   0.36515217064297     -0.55842721268938      1.97373932118943
