15
Coordinates from ORCA-job run
  C   0.60609941246269      0.24995728899783     -0.46831110038872
  C   -0.52320612073442     -0.13106563755717      0.18979275563321
  C   1.95925322599539      0.24048883454370      0.19969131800498
  H   2.71325942181843      0.69645132945213     -0.44167537567018
  H   2.29244897375455     -0.77992017990947      0.42348606144162
  H   1.93359577285329      0.80309389065078      1.13863781845313
  C   0.52367630217566      0.66671315044653     -1.82620495786512
  N   0.48744691081801      1.01265874358543     -2.95194381822090
  C   -1.89547924553867     -0.10188419623988     -0.41068253394194
  H   -1.87976100890368      0.27790052743585     -1.43100683296951
  H   -2.55114898927045      0.53558929974594      0.18965054282469
  H   -2.32819616979429     -1.10778562709001     -0.42407604026808
  N   -0.48302821115714     -0.49174865311534      1.52505205299719
  H   0.40392397115923     -0.81939284374579      1.87429697835073
  H   -1.25988424563860     -1.04905592720054      1.84329313161890
