15
Coordinates from ORCA-job run
  C   0.72905199406023      0.31280921852893      0.09460687534620
  C   -0.51830597940943     -0.20471226584296      0.29137982186004
  C   1.38835138514841      0.61142413388389     -1.22825375098370
  H   2.44654616085747      0.34287545147286     -1.18932138043252
  H   1.32938397612156      1.67668709747122     -1.47171764648132
  H   0.93847876288790      0.04991826856665     -2.04611045816972
  C   1.47000523957646      0.66069570025801      1.26402721136065
  N   2.05896521516215      0.92487349594741      2.25018828232917
  C   -1.44615150542664     -0.61491828457949     -0.81357820033451
  H   -2.36720116080910     -0.02905804139237     -0.75109022634349
  H   -1.01686378817833     -0.47747531608941     -1.80210032258494
  H   -1.71973120000066     -1.66985470054141     -0.70495743117050
  N   -1.08899527509985     -0.30644005612845      1.54836443850727
  H   -1.75084195407547     -1.05883495563732      1.65786910745172
  H   -0.45569187081470     -0.21798974591754      2.33069367964567
