15
Coordinates from ORCA-job run
  C   0.59729410183264      0.28738812517374     -0.45692458871136
  C   -0.51883058299166     -0.16037016117617      0.18124731845162
  C   1.93926286193529      0.34569942547091      0.23083918734504
  H   2.31670899435393     -0.65626941817254      0.46651011829697
  H   2.68054988780148      0.83223092533326     -0.40262966161520
  H   1.87376165744339      0.91223688929214      1.16539175067472
  C   0.51229524504852      0.70763797002966     -1.81395489729587
  N   0.47549906841263      1.05644590603084     -2.93875589491366
  C   -1.88125953940266     -0.20441476287310     -0.44041632076303
  H   -2.58331554282012      0.37988763664530      0.16111928793137
  H   -1.87477735379579      0.19377531319802     -1.45352257603493
  H   -2.25086070486410     -1.23448635592645     -0.47783482685504
  N   -0.47970413367473     -0.52615223772806      1.51530332311898
  H   -1.22536633233238     -1.13417469335393      1.81499748581145
  H   0.41974237305356     -0.80043456194363      1.87863029455896
