15
Coordinates from ORCA-job run
  C   0.79812248917918      0.08815845974012      0.01891959850183
  C   -0.47740268981625     -0.33965459357866      0.24647156824108
  C   1.24611257592430      1.02360065082698     -1.07621137927707
  H   2.19900662517790      0.68682778195006     -1.49082210960192
  H   0.53015431691525      1.05907706905994     -1.89661329352355
  H   1.39389667946472      2.04115183553829     -0.70149320807233
  C   1.80400783603706     -0.37236975666699      0.91993210851000
  N   2.60850877653632     -0.76538578304328      1.68652868127087
  C   -1.65648563775372      0.08443550699629     -0.57888360909204
  H   -2.50459209006710      0.32017034507096      0.07149920764912
  H   -1.44914882461844      0.96556615578281     -1.18094390527306
  H   -1.96777212630349     -0.73138675020067     -1.23756628224486
  N   -0.77930281074581     -1.30788490383234      1.18716414308328
  H   -1.69420532064411     -1.23444639181014      1.60300088207509
  H   -0.05289979928580     -1.51585962583338      1.85801759775357
