15
Coordinates from ORCA-job run
  C   0.70618630726407      0.29074531475784      0.22571469253013
  C   -0.52186214132195     -0.30311155993950      0.20983793468144
  C   1.46803983080031      0.77892524183076     -0.98230768566562
  H   2.54216095377673      0.67864364016929     -0.81351882373736
  H   1.26657907350321      1.83479571574248     -1.18874297466596
  H   1.22421281597604      0.20113983534630     -1.87378595821535
  C   1.30659546126728      0.50138060753628      1.50203733062505
  N   1.76885022096878      0.66608893781604      2.57376630240442
  C   -1.30086251089343     -0.55028099261094     -1.04812010248395
  H   -1.26906559445980     -1.61179571845401     -1.31093569357628
  H   -0.92990734755497      0.03234830815146     -1.88810681995431
  H   -2.35139318309338     -0.28322022682781     -0.89709243813926
  N   -1.10439634616784     -0.84239812138351      1.34268221465929
  H   -0.69203123415171     -0.56676413221519      2.22288675395959
  H   -2.11210630591334     -0.82549684991947      1.35668526757816
