15
Coordinates from ORCA-job run
  C   0.56720775413954      0.33877078850220     -0.46068886555863
  C   -0.50204305197958     -0.19178243103225      0.19414710894759
  C   1.95301552849175      0.32631052605847      0.13641120292712
  H   1.95290632291795      0.78296358319717      1.13148373153319
  H   2.65148545393359      0.88452032057990     -0.48636840624849
  H   2.34234558590981     -0.69426956608966      0.23208400512808
  C   0.38750314453439      0.92411517442230     -1.74515495046449
  N   0.27072761498439      1.41122555513911     -2.81160086568917
  C   -1.90429996543744     -0.17196631931331     -0.33315861900335
  H   -2.55756244191666      0.35971156729122      0.36491663701470
  H   -2.28743660727671     -1.19268591423489     -0.43614969672481
  H   -1.96142169159331      0.31522229568429     -1.30498868949096
  N   -0.37052393483122     -0.71366861710227      1.46880217680625
  H   0.55214041840421     -1.01928684720448      1.73571900783034
  H   -1.09304413028069     -1.35918011589779      1.74554622299263
