15

C	-0.34904	0.003051	-1.466659
C	0.0	0.0	0.0
Br	-2.370398	0.538959	-1.732442
H	1.096606	0.0	0.0
N	0.33115	1.151403	-2.205376
O	0.483094	0.99721	-3.412921
O	0.638055	2.135691	-1.554143
N	-0.029525	-1.171677	-2.107135
H	-0.18482	-1.133819	-3.103474
H	-0.412613	-1.99421	-1.664613
C	-0.441832	-1.247689	0.589229
N	-0.78229	-2.293034	1.008994
C	-0.484477	1.127399	0.769693
N	-0.8508	2.001414	1.465466
F	2.406683	0.0	0.0
