15

C	-0.078303	0.014474	-1.535221
C	0.0	0.0	0.0
Br	-0.031295	-1.937764	-2.20684
H	1.098588	0.0	0.0
N	-1.422587	0.462451	-2.101096
O	-1.40742	0.958542	-3.222678
O	-2.411555	0.282391	-1.401347
N	0.940475	0.806448	-1.995311
H	1.021393	0.852961	-2.999355
H	1.811949	0.604663	-1.454632
C	-0.60415	-1.110915	0.702175
N	-1.051052	-2.003612	1.322202
C	-0.442881	1.281372	0.530938
N	-0.77749	2.315922	0.977099
F	2.545954	0.0	0.0
