15

C	-0.505239	0.048465	-1.461507
C	0.0	0.0	0.0
Br	0.336778	1.552957	-2.345176
H	1.094532	0.0	0.0
N	-0.019479	-1.255977	-2.11335
O	1.127595	-1.317939	-2.523639
O	-0.841145	-2.172409	-2.09923
N	-1.917112	0.126366	-1.695221
H	-2.262908	0.981904	-1.274736
H	-2.362855	-0.672296	-1.255934
C	-0.496544	-1.190021	0.668993
N	-0.879244	-2.160289	1.214707
C	-0.481188	1.179626	0.694937
N	-0.883386	2.13777	1.247001
F	2.425789	0.0	0.0
