15

C	-0.505924	-0.014416	-1.436902
C	0.0	0.0	0.0
Br	0.478183	1.419126	-2.440889
H	1.093376	0.0	0.0
N	-0.086108	-1.298937	-2.151214
O	-0.665444	-1.523901	-3.211151
O	0.780392	-1.98743	-1.635539
N	-1.902688	0.06809	-1.556225
H	-2.189957	0.077082	-2.526094
H	-2.256323	0.8789	-1.064541
C	-0.496441	-1.157196	0.730118
N	-0.868575	-2.092772	1.33775
C	-0.463614	1.220071	0.637854
N	-0.855088	2.20616	1.146997
F	2.429875	0.0	0.0
