15

C	-0.391783	-0.267687	-1.42861
C	0.0	0.0	0.0
Br	-2.488707	-0.083674	-1.630163
H	1.106736	0.0	0.0
N	0.058382	0.832864	-2.385102
O	0.349193	1.918145	-1.906732
O	0.073679	0.530687	-3.57364
N	0.082869	-1.464514	-1.904656
H	-0.216227	-1.688251	-2.840896
H	0.022273	-2.229405	-1.249247
C	-0.39007	-1.138025	0.811535
N	-0.644884	-2.101127	1.437999
C	-0.50994	1.224832	0.581305
N	-0.895996	2.186548	1.136133
F	2.407448	0.0	0.0
