15

C	-0.099655	-0.062163	-1.531849
C	0.0	0.0	0.0
Br	-1.888544	-0.558121	-2.226032
H	1.098059	0.0	0.0
N	0.090743	1.389117	-2.120194
O	0.971402	1.508286	-2.962035
O	-0.658141	2.274388	-1.735323
N	0.87719	-0.94846	-1.964119
H	1.012872	-0.909772	-2.964924
H	1.746567	-0.739433	-1.42937
C	-0.437091	-1.259041	0.580303
N	-0.768373	-2.264319	1.092156
C	-0.583884	1.120585	0.707592
N	-1.016605	1.976702	1.388672
F	2.524794	0.0	0.0
