15

C	-0.525131	0.367763	-1.381038
C	0.0	0.0	0.0
Br	0.509363	1.972487	-2.016277
H	1.105888	0.0	0.0
N	-0.168157	-0.705574	-2.407767
O	0.703938	-1.50897	-2.11862
O	-0.794022	-0.654975	-3.463024
N	-1.916807	0.535046	-1.440705
H	-2.219106	0.79887	-2.369378
H	-2.22802	1.208152	-0.75095
C	-0.499981	-1.30123	0.416744
N	-0.866723	-2.360159	0.773388
C	-0.437923	1.021953	0.93539
N	-0.802003	1.868147	1.667662
F	2.425724	0.0	0.0
