15

C	-0.533605	0.00055	-1.451381
C	0.0	0.0	0.0
Br	0.546197	1.230786	-2.503657
H	1.099789	0.0	0.0
N	-0.28657	-1.412165	-2.011986
O	0.827796	-1.878402	-1.844449
O	-1.231718	-1.964249	-2.569009
N	-1.905158	0.317458	-1.675597
H	-2.097682	1.22554	-1.270417
H	-2.489991	-0.385339	-1.234888
C	-0.575664	-1.129079	0.704056
N	-1.084381	-2.066551	1.200186
C	-0.402515	1.249445	0.621821
N	-0.6934	2.296376	1.075569
F	2.424991	0.0	0.0
