17

C	-0.477654	0.018817	-1.455176
C	0.0	0.0	0.0
F	-0.201613	1.295037	-1.95533
H	1.092307	0.0	0.0
H	0.125188	-0.682358	-2.033005
C	-1.956765	-0.237768	-1.651485
H	-2.553338	0.474946	-1.077947
H	-2.218468	-1.253009	-1.350363
H	-2.20383	-0.117841	-2.709386
N	-0.3871	-1.320872	0.581009
O	-0.189948	-2.31629	-0.11779
O	-0.861951	-1.358071	1.715871
C	-0.509633	1.14588	0.843803
H	-0.209465	2.076396	0.361865
H	-0.051161	1.105554	1.830933
H	-1.595378	1.130022	0.963948
Br	3.491862	0.0	0.0
