17

C	-0.49825	-0.114484	-1.43158
C	0.0	0.0	0.0
Cl	-0.082389	1.383023	-2.334894
H	1.091391	0.0	0.0
H	-1.589086	-0.164432	-1.44401
C	0.143657	-1.301383	-2.128615
H	-0.210032	-2.237673	-1.689422
H	1.229506	-1.243463	-2.021478
H	-0.115768	-1.303779	-3.18886
C	-0.481678	-1.15489	0.870141
H	-1.56369	-1.292321	0.794785
H	-0.218457	-0.952164	1.910808
H	0.033833	-2.070874	0.581158
N	-0.532939	1.252548	0.613092
O	-1.754127	1.421304	0.533999
O	0.243738	2.006038	1.188423
Br	3.563994	0.0	0.0
