17

C	-0.495032	-0.104889	-1.433674
C	0.0	0.0	0.0
Cl	-0.090984	1.404634	-2.324602
H	1.091375	0.0	0.0
H	-1.585075	-0.164788	-1.449713
C	0.161331	-1.278124	-2.138746
H	-0.096387	-1.274822	-3.199438
H	1.246225	-1.20881	-2.028023
H	-0.181983	-2.222341	-1.707291
C	-0.479248	-1.1647	0.859238
H	-1.560371	-1.306083	0.779916
H	-0.220055	-0.970391	1.902273
H	0.041189	-2.075657	0.563807
N	-0.536349	1.24585	0.622902
O	-1.758515	1.408914	0.54857
O	0.239012	1.999326	1.20028
Br	3.565102	0.0	0.0
