17

C	-0.493135	0.027244	-1.450815
C	0.0	0.0	0.0
Cl	-0.079639	-1.527363	-2.244805
H	1.091984	0.0	0.0
H	0.086237	0.782567	-1.978721
C	-1.982317	0.280186	-1.606321
H	-2.245474	1.25296	-1.183199
H	-2.568859	-0.496012	-1.110941
H	-2.251349	0.28683	-2.66438
C	-0.512238	-1.127065	0.867108
H	-0.145311	-2.068794	0.461623
H	-0.112285	-1.014568	1.873683
H	-1.601489	-1.153825	0.929905
N	-0.385387	1.333749	0.575774
O	-0.995889	1.372209	1.645832
O	-0.071927	2.32941	-0.076927
Br	3.478993	0.0	0.0
