17

C	-0.366533	0.006293	-1.477146
C	0.0	0.0	0.0
Cl	-2.157801	-0.040846	-1.729305
H	1.093295	0.0	0.0
H	0.000425	-0.94682	-1.865414
C	0.238516	1.144012	-2.275151
H	0.077048	0.972308	-3.341566
H	-0.206633	2.099599	-2.000998
H	1.309906	1.180453	-2.060859
C	-0.502042	-1.200988	0.769894
H	-0.13963	-1.154263	1.798129
H	-0.085893	-2.100953	0.31093
H	-1.58919	-1.260129	0.779563
N	-0.454437	1.266968	0.647737
O	-1.44898	1.227241	1.379284
O	0.182085	2.290764	0.396985
Br	3.514897	0.0	0.0
