13

C	0.0	0.0	0.0
C	-0.265196	0.232184	-1.510782
Cl	1.791911	0.0	0.0
H	0.387935	-0.457473	-2.053799
H	-0.330464	-0.992937	0.30294
H	0.109784	1.236403	-1.736924
C	-0.555144	1.070021	0.903744
H	-1.646806	1.016263	0.836908
H	-0.244646	0.902976	1.938137
H	-0.203112	2.056108	0.588184
C	-1.56535	0.100431	-2.17715
N	-2.358579	0.028644	-3.041172
Cl	-3.729676	0.0	0.0
