16

C	-0.542369	-0.045382	-1.43919
C	0.0	0.0	0.0
Cl	-0.252243	1.631548	-2.063264
H	1.087773	0.0	0.0
H	-0.397889	0.86314	0.530005
C	0.2314	-1.009326	-2.315775
H	0.060219	-2.032645	-1.974678
H	-0.104207	-0.90556	-3.348719
H	1.299183	-0.801896	-2.23242
N	-1.962858	-0.294908	-1.545606
H	-2.465725	0.23421	-0.842107
H	-2.137543	-1.280475	-1.388549
N	-0.511877	-1.180742	0.735978
O	-0.07059	-2.290999	0.441224
O	-1.406123	-0.98817	1.56789
Cl	3.372554	0.0	0.0
