16

C	-0.341725	-0.004379	-1.483061
C	0.0	0.0	0.0
Cl	-2.147382	-0.18738	-1.697496
H	1.090988	0.0	0.0
H	-0.398609	-0.895381	0.468425
C	0.079435	1.249746	-2.232825
H	-0.095209	1.093545	-3.300868
H	-0.466809	2.13379	-1.911535
H	1.146568	1.406536	-2.05404
N	0.281904	-1.21509	-1.973132
H	1.263591	-1.192899	-1.689811
H	0.245403	-1.219077	-2.987206
N	-0.523908	1.152033	0.7576
O	-1.317629	0.912646	1.671069
O	-0.133318	2.277949	0.452802
Cl	3.319106	0.0	0.0
