16

C	-0.359775	-0.094637	-1.474024
C	0.0	0.0	0.0
Cl	-2.183669	-0.052923	-1.672114
H	1.090978	0.0	0.0
H	-0.412375	0.903159	0.441812
C	0.187247	1.153966	-2.15404
H	-0.239617	2.065783	-1.731537
H	-0.048857	1.124965	-3.221253
H	1.272233	1.162655	-2.016047
N	0.124321	-1.32288	-2.028744
H	1.006	-1.570332	-1.589038
H	0.263289	-1.218717	-3.026892
N	-0.502287	-1.13442	0.80547
O	0.03546	-2.22874	0.652618
O	-1.431399	-0.905263	1.585351
Cl	3.337987	0.0	0.0
