13

C	0.0	0.0	0.0
C	-0.53728	-0.06882	-1.421117
F	1.371435	0.0	0.0
H	-1.650805	0.008988	-1.322655
H	-0.366866	-0.891363	0.515602
C	-0.42625	1.183104	0.768746
N	-0.576696	2.099424	1.486502
C	-0.159761	-1.326415	-2.049379
N	0.144853	-2.365923	-2.502716
N	-0.070612	1.067972	-2.285707
O	-0.104278	0.883346	-3.498809
O	0.251395	2.108963	-1.724345
Br	-3.459575	0.0	0.0
