13

C	0.0	0.0	0.0
C	-0.271057	-0.099727	-1.518242
F	1.374839	0.0	0.0
H	0.292314	0.716412	-1.977084
H	-0.395727	-0.850352	0.549245
C	-0.434176	1.286589	0.557381
N	-0.496322	2.369679	1.010419
C	-1.584038	-0.153348	-2.174206
N	-2.189022	-0.221027	-3.189198
N	0.449073	-1.353201	-1.987963
O	0.290161	-2.371155	-1.324966
O	1.104068	-1.254619	-3.019654
Br	-3.209676	0.0	0.0
