12

C	0.0	0.0	0.0
C	-0.619353	-0.043791	-1.366606
F	1.377399	0.0	0.0
H	-0.463078	0.877015	-1.924939
H	-0.35494	0.928074	0.45974
H	-1.787261	-0.126741	-1.007673
C	-0.390545	-1.112442	0.891693
N	-0.497201	-1.979863	1.673072
N	-0.141957	-1.125163	-2.192606
O	0.082949	-2.220251	-1.67117
O	-0.02565	-0.91468	-3.413527
H	-2.737592	0.0	0.0
