16

C	-0.193973	-0.024466	-1.524163
C	0.0	0.0	0.0
Br	-2.097366	0.365434	-2.041812
H	1.107942	0.0	0.0
C	0.726694	1.005796	-2.167986
H	1.716399	0.807548	-1.731922
H	0.727248	0.915394	-3.254745
H	0.400801	2.01008	-1.89253
C	0.085435	-1.352674	-2.06253
N	0.327296	-2.405088	-2.528216
C	-0.617188	-1.144916	0.650731
N	-1.119658	-2.061921	1.188675
N	-0.370979	1.241844	0.651778
H	0.424158	1.865347	0.607317
H	-1.181891	1.671939	0.223742
F	2.571861	0.0	0.0
