16

C	-0.394907	-0.167195	-1.48375
C	0.0	0.0	0.0
Br	0.357397	-1.858842	-2.162014
H	1.106724	0.0	0.0
C	-1.897834	-0.201484	-1.749886
H	-2.343694	-1.034454	-1.203234
H	-2.353069	0.734791	-1.411415
H	-2.104417	-0.316994	-2.815165
C	0.211267	0.914712	-2.261294
N	0.578048	1.815646	-2.920436
C	-0.606025	-1.058222	0.792432
N	-1.123382	-1.900771	1.428627
N	-0.341884	1.307115	0.542016
H	0.426617	1.933752	0.335797
H	-1.216476	1.691253	0.199796
F	2.51503	0.0	0.0
