16

C	-0.297989	-0.065704	-1.513962
C	0.0	0.0	0.0
Br	0.272651	1.630419	-2.326067
H	1.102531	0.0	0.0
C	0.551939	-1.184101	-2.114096
H	0.517812	-1.168394	-3.204052
H	1.566591	-1.014423	-1.736101
H	0.187853	-2.151392	-1.75728
C	-1.722807	-0.199182	-1.806746
N	-2.869616	-0.375694	-2.001695
C	-0.45572	-1.242309	0.617548
N	-0.851012	-2.20373	1.171342
N	-0.525541	1.181049	0.659736
H	-1.348609	0.976605	1.211398
H	0.198852	1.539588	1.268036
F	2.575011	0.0	0.0
