16

C	-0.263333	0.082141	-1.503462
C	0.0	0.0	0.0
Br	-2.186227	0.460225	-1.895066
H	1.097838	0.0	0.0
C	0.612171	1.179827	-2.091891
H	0.28736	2.134679	-1.680903
H	1.624411	0.958779	-1.732133
H	0.556407	1.194879	-3.181459
C	0.024376	-1.19817	-2.146307
N	0.285036	-2.206498	-2.693876
C	-0.572732	-1.188269	0.614473
N	-1.060437	-2.100926	1.174579
N	-0.375508	1.241881	0.661525
H	0.357572	1.462081	1.323048
H	-1.257573	1.15919	1.148132
F	2.565719	0.0	0.0
