16

C	-0.291942	-0.059227	-1.517277
C	0.0	0.0	0.0
Br	0.283748	1.64174	-2.317783
H	1.102046	0.0	0.0
C	0.559691	-1.172915	-2.121746
H	0.527078	-1.151612	-3.212016
H	1.574058	-1.003872	-1.741882
H	0.194184	-2.142272	-1.76967
C	-1.716952	-0.185666	-1.812909
N	-2.869719	-0.328626	-2.000806
C	-0.459559	-1.247522	0.60576
N	-0.841596	-2.234417	1.122003
N	-0.531341	1.176746	0.659259
H	-1.365296	0.973726	1.193659
H	0.183436	1.539213	1.276489
F	2.577993	0.0	0.0
