16
Coordinates from ORCA-job run
  C   -0.52145138720862      0.18619883845270     -0.61122228679644
  C   0.96063593300807     -0.15495766531621     -0.57438523424091
  Cl  -1.00632568866836      0.50366210960250     -2.29814445261501
  H   1.08990296460362     -1.08193467450553     -1.14074778417122
  H   1.49667350496699      0.63136125523995     -1.10864971517463
  N   -0.68891974952887      1.51101373970847      0.13826626066023
  O   -1.46149892828247      1.52966503089916      1.09254028920712
  O   0.00102739037605      2.44777014932185     -0.24428254828518
  C   -1.43528008545203     -0.86290551430011     -0.02421238456471
  H   -1.29763134849412     -1.79075061355939     -0.58199020669844
  H   -2.47653289969260     -0.55428899560074     -0.10296430425612
  H   -1.20691385041184     -1.03289625842137      1.02699752793038
  C   1.51703906854271     -0.30484418224954      0.83864030631297
  H   2.58737079669345     -0.51389024348103      0.78655193841877
  H   1.04805705757641     -1.12515916460072      1.38409110302197
  H   1.39384722197163      0.61195618881001      1.41951149125120
