16
Coordinates from ORCA-job run
  C   -0.46857443694306      0.27310799114731     -0.41446832568231
  C   0.91551670976883      0.41025476659626      0.20569784999338
  Cl  -0.33656858982835      0.02281928088221     -2.17740186895653
  H   1.44423134287114      1.19636200609653     -0.33591093901469
  H   0.76811655269036      0.76866114046801      1.23194902284059
  N   -1.15201229685656      1.63448543691973     -0.23578165963236
  O   -2.22628823165991      1.65774485070599      0.35809741440622
  O   -0.55081199041427      2.60927850135098     -0.66959293743941
  C   -1.32689690733988     -0.81544718074587      0.18162641164698
  H   -2.32917030224143     -0.79048788486896     -0.24210794495503
  H   -1.40132257872682     -0.68569822034725      1.26278594294727
  H   -0.87756212039429     -1.78375929500996     -0.03662007127415
  C   1.72251181020074     -0.88185319049591      0.21392601155372
  H   1.27630715899134     -1.63743488905785      0.86244868733253
  H   2.72913469062125     -0.68197422525694      0.58630635653678
  H   1.81538918926090     -1.29705908838428     -0.79095395030299
