16
Coordinates from ORCA-job run
  C   -0.52749745487060      0.18433486037468     -0.60536446550133
  C   0.95580714426505     -0.15237252050867     -0.58290524841262
  Cl  -1.02795752265556      0.50648993120583     -2.28764378714694
  H   1.48396002781788      0.63529508241685     -1.12306760331260
  H   1.08285900694795     -1.07966128078593     -1.14911374097874
  N   -0.69294447074892      1.50560350709209      0.14987729346618
  O   -0.00861747688243      2.44553451477885     -0.23507992515841
  O   -1.45885268663209      1.51886372631179      1.10955577807317
  C   -1.43390635273398     -0.86989101176996     -0.01589981768928
  H   -1.29846752095452     -1.79467198672178     -0.57922735684185
  H   -2.47642429975277     -0.56328397423987     -0.08476617686048
  H   -1.19685906073643     -1.04461633281370      1.03262304031683
  C   1.52702721137046     -0.29575780029324      0.82506248854122
  H   1.42445128142251      0.62999871501649      1.39547821907814
  H   2.59341747283963     -0.52140195524120      0.76225212533470
  H   1.05300470130383     -1.10246347482223      1.38621917709201
