14
Coordinates from ORCA-job run
  C   0.00515291332429     -0.58070058017028     -0.04423034070838
  C   0.27511667621908      0.82172467759357     -0.55744694082608
  F   -0.43616256367519     -1.38405289899929     -1.06113490438559
  H   0.89329758417091      1.38399547204854      0.13974817735530
  H   0.73841650555799      0.76710745106332     -1.53796130133521
  N   -0.88103413109542     -0.62924064027718      1.01888480289203
  H   -0.82539860734090      0.15435044427301      1.65145629950163
  H   -0.87073646764448     -1.52016868119520      1.49526943578193
  N   1.39132597871506     -1.22246215116458      0.28121059162095
  O   2.35845216299147     -0.82792371551576     -0.36210546043072
  O   1.38698670636314     -2.11296755468696      1.12302355185220
  N   -1.02187414004875      1.54195043939827     -0.68889619117634
  O   -1.61008446915332      1.44582488355421     -1.76007425897805
  O   -1.40345814838388      2.16156285407833      0.30325653883633
