14
Coordinates from ORCA-job run
  C   0.10988045218292     -0.67482795996485     -0.07495271894765
  C   -0.07574800510701      0.49301628412300     -1.02003538820635
  F   0.41735305765762     -1.76813977483611     -0.88638066517274
  H   -0.83720947220338      0.24711595690016     -1.75811000650561
  H   0.87057004081146      0.73936940383402     -1.49653995588718
  N   -0.96765510727984     -0.85346742820157      0.77863168690654
  H   -0.79162934808115     -1.53395827105793      1.50395034753201
  H   -1.83332388472777     -1.02341971245591      0.28690234455984
  N   1.38413835373827     -0.52081570318074      0.76179151313025
  O   1.34713111446197     -0.93616400491694      1.91350962252707
  O   2.35927612251886     -0.07507411671533      0.17433128442399
  N   -0.54531374103618      1.67798772739149     -0.25547174657450
  O   -1.66790779180677      2.10435788838931     -0.51168398936969
  O   0.23043820887099      2.12301971069140      0.58405767158402
