14
Coordinates from ORCA-job run
  C   0.15322245743744     -0.51259440805362     -0.01994580689130
  C   0.18875790608985      0.99817594213490     -0.15035941560948
  F   -0.15444632989181     -1.02914543908832     -1.27273601717583
  H   0.33674509201253      1.46652311375137      0.82124121341652
  H   0.95765031614358      1.30212089459750     -0.85281887719308
  N   -0.63798599938865     -0.99282200269774      1.01777884121990
  H   -1.56047401641879     -0.57887927013008      1.00208478167205
  H   -0.67009531289172     -2.00432818556007      1.01595039442910
  N   1.56798147724475     -1.03247564339059      0.24223587507369
  O   2.47569045231847     -0.21474393135589      0.34806249985007
  O   1.66054141296284     -2.24910620638920      0.33422141611934
  N   -1.11353601652160      1.48679054695868     -0.69816046809016
  O   -1.07180488163165      2.16422119751557     -1.71809173383672
  O   -2.13124655746523      1.19526339170748     -0.07046270298412
