14
Coordinates from ORCA-job run
  C   -0.06507225383688     -0.64031836748900     -0.11435468687620
  C   -0.59256364070560      0.77393318476306      0.08230281623077
  F   -0.20725349954403     -0.97255701129645     -1.41572111476891
  H   -1.67231868078681      0.78139865931469     -0.05895104830851
  H   -0.32182297486756      1.13649744013486      1.07356103516680
  N   -0.66776535749681     -1.64193288229222      0.69070597907336
  H   -0.48143366795148     -1.48980202386518      1.67267279625390
  H   -1.66199752158115     -1.70480919125015      0.51540078019305
  N   1.42092843187311     -0.68909709806321      0.23773810897511
  O   2.20547985251561     -1.05879287219949     -0.61510082191873
  O   1.66351583331609     -0.37581350345568      1.39952017976228
  N   -0.01887941022606      1.72387047622532     -0.91442442793724
  O   -0.80684350104901      2.40994198523029     -1.55682601762713
  O   1.20602639034059      1.74748120424315     -0.99552357821856
