13

C	-0.464707	0.01837	-1.45934
C	0.0	0.0	0.0
Cl	0.086964	-1.4559	-2.293494
H	1.091839	0.0	0.0
H	0.050908	0.857745	-1.934331
C	-1.907686	0.179004	-1.640411
N	-3.055002	0.353951	-1.820686
N	-0.513156	-1.242152	0.688981
O	0.317264	-2.030622	1.117893
O	-1.736411	-1.361671	0.752512
C	-0.523034	1.158758	0.707293
N	-0.937894	2.112636	1.253941
Cl	3.184161	0.0	0.0
