13

C	-0.53572	-0.006686	-1.436311
C	0.0	0.0	0.0
Cl	-0.254225	1.593341	-2.177321
H	1.091511	0.0	0.0
H	-1.614111	-0.171736	-1.433976
C	0.081458	-1.037811	-2.267837
N	0.456282	-1.879116	-2.995791
N	-0.418903	-1.264005	0.707183
O	-0.120493	-1.348101	1.890216
O	-1.007448	-2.119355	0.045395
C	-0.521664	1.120025	0.768337
N	-0.966775	2.018593	1.380313
Cl	3.107004	0.0	0.0
