13

C	-0.413418	-0.043084	-1.463138
C	0.0	0.0	0.0
Cl	-2.183351	-0.266994	-1.651275
H	1.097065	0.0	0.0
H	0.069283	-0.910137	-1.914515
C	-0.012142	1.176188	-2.155965
N	0.262774	2.152997	-2.747648
N	-0.371603	-1.294197	0.664838
O	-0.233753	-2.306511	-0.014588
O	-0.717545	-1.25558	1.84117
C	-0.556815	1.128542	0.720906
N	-0.984982	2.066427	1.283712
Cl	3.090349	0.0	0.0
