13

C	-0.435399	0.042357	-1.468797
C	0.0	0.0	0.0
Cl	0.110719	-1.427919	-2.30676
H	1.091791	0.0	0.0
H	0.115831	0.872982	-1.916516
C	-1.864389	0.243398	-1.691579
N	-2.995908	0.449946	-1.925982
N	-0.519971	-1.240072	0.679592
O	-1.695837	-1.530678	0.46748
O	0.259685	-1.841098	1.404287
C	-0.520575	1.154501	0.718868
N	-0.933542	2.101867	1.278138
Cl	3.191904	0.0	0.0
