12

C	-0.600438	-0.011444	-1.39392
C	0.0	0.0	0.0
Br	0.10689	1.444621	-2.485081
H	1.08794	0.0	0.0
H	-1.674081	0.169089	-1.338836
H	-0.361898	-0.870458	0.556505
C	-0.361208	-1.285523	-2.0583
N	-0.206197	-2.338419	-2.556129
N	-0.516954	1.185885	0.750846
O	-1.678536	1.539126	0.526428
O	0.226992	1.697046	1.578911
Br	3.49624	0.0	0.0
