12

C	-0.588559	0.016954	-1.402244
C	0.0	0.0	0.0
Br	-0.366847	1.819317	-2.135838
H	1.088105	0.0	0.0
H	-1.665496	-0.152065	-1.373968
H	-0.350062	0.854223	0.578696
C	-0.000123	-0.942287	-2.328533
N	0.417357	-1.697544	-3.125209
N	-0.461708	-1.209164	0.734134
O	-0.321532	-1.199388	1.951961
O	-0.945594	-2.13753	0.081111
Br	3.416746	0.0	0.0
