12

C	-0.600858	0.066558	-1.393251
C	0.0	0.0	0.0
Br	-0.196471	1.824903	-2.147856
H	1.08811	0.0	0.0
H	-1.688483	0.008937	-1.353156
H	-0.3328	0.850357	0.597597
C	-0.119105	-0.962828	-2.303826
N	0.232197	-1.759751	-3.090771
N	-0.485165	-1.208495	0.720522
O	-1.254791	-1.971714	0.130199
O	-0.10473	-1.346264	1.874755
Br	3.45356	0.0	0.0
