12

C	-0.589077	-0.08563	-1.399308
C	0.0	0.0	0.0
Br	-0.362525	1.657603	-2.263794
H	1.091312	0.0	0.0
H	-1.666652	-0.249952	-1.358948
H	-0.34932	0.894721	0.514654
C	-0.004089	-1.112519	-2.252724
N	0.393726	-1.931549	-2.994432
N	-0.461866	-1.151686	0.821204
O	-0.315011	-1.055522	2.034419
O	-0.952179	-2.122562	0.238979
Br	3.416019	0.0	0.0
