12

C	-0.50406	0.017872	-1.430526
C	0.0	0.0	0.0
Br	-0.063839	-1.633973	-2.372019
H	1.088222	0.0	0.0
H	0.066302	0.79944	-1.939543
H	-0.345836	0.901753	0.515147
C	-1.927199	0.300556	-1.585488
N	-3.053593	0.597136	-1.7388
N	-0.535507	-1.137532	0.799034
O	-1.637653	-1.58619	0.487204
O	0.138336	-1.515778	1.7488
Br	3.468253	0.0	0.0
