12

C	-0.61457	0.12688	-1.385187
C	0.0	0.0	0.0
Br	0.41797	1.269175	-2.582882
H	1.092575	0.0	0.0
H	-1.593533	0.604306	-1.32042
H	-0.33458	-0.913491	0.495309
C	-0.774487	-1.185651	-1.999524
N	-0.957647	-2.244728	-2.473762
N	-0.439387	1.116068	0.884292
O	-0.23987	0.960376	2.084278
O	-0.949925	2.11406	0.374216
Br	3.423646	0.0	0.0
