12

C	-0.476184	0.183014	-1.420742
C	0.0	0.0	0.0
Br	-2.428811	-0.047176	-1.564106
H	1.094421	0.0	0.0
H	-0.053395	-0.642559	-1.998064
H	-0.343345	-0.955439	0.393821
C	-0.107967	1.428138	-2.083467
N	0.165948	2.378494	-2.716886
N	-0.494843	1.035603	0.935624
O	-0.621117	0.695141	2.109603
O	-0.714573	2.161487	0.494042
Br	3.392545	0.0	0.0
