13
Coordinates from ORCA-job run
  C   0.65052570238712      0.15333540380590      0.30033553641501
  C   -0.53198895173489     -0.27032816903882     -0.25319288597593
  C   1.13610999995080     -0.46789197676279      1.48048676398311
  N   1.51959493585382     -0.97636271293628      2.47368382091467
  N   1.35969886163678      1.21559154771591     -0.35207146622477
  H   1.55564887895159      1.97137579227861      0.29292503921074
  H   2.24302355391317      0.89206048419202     -0.72868930225574
  N   -1.26223017352160     -1.32142571818783      0.25324498117592
  H   -1.08345550604273     -1.54202950084921      1.22081129982756
  H   -2.23731815462859     -1.34904384453810      0.00462354657680
  N   -0.95978915023477      0.25549544924914     -1.45065920439525
  H   -0.43222575472116      1.08723795473773     -1.68166637296031
  H   -1.95759424180954      0.35198529033372     -1.55883175629183
