13
Coordinates from ORCA-job run
  C   0.74122956364812      0.15345977176780      0.36386464207765
  C   -0.43358802496229     -0.23142836430528     -0.21876442788467
  C   1.20514552119606     -0.57756308374716      1.49585501502510
  N   1.53163029102173     -1.19745489558244      2.44313730096077
  N   1.57856130176360      1.17909357291836     -0.16101108275303
  H   1.39880431289679      2.09056153294392      0.23923310065743
  H   1.49901201259258      1.22004213559390     -1.16880310051672
  N   -1.08358025567480     -1.43122169320640      0.05704126656582
  H   -2.06096160747320     -1.31521380882677      0.28845856618913
  H   -0.60766732242023     -1.98484083592342      0.75662752955049
  N   -0.97286530526049      0.48876943444180     -1.27425298278835
  H   -0.97228695226422      1.48928219885330     -1.15920123397199
  H   -1.82243353506365      0.11351403507238     -1.66218459311164
