13
Coordinates from ORCA-job run
  C   0.79034641379562      0.19656105353123      0.20265930846196
  C   -0.45264248716349     -0.13770696688976     -0.25714721208333
  C   1.91220813509117     -0.53130909497338     -0.29038689289861
  N   2.80612931882091     -1.17753620965265     -0.70488252367033
  N   1.03875102484950      1.29637058702651      1.07250198046846
  H   1.02737630692304      1.04646326248073      2.05293463961326
  H   0.38239249670348      2.04615627459774      0.89851060802084
  N   -0.67935357396043     -0.96875539447651     -1.34962168953182
  H   0.17210072056799     -1.32030354133004     -1.76595214216058
  H   -1.33328122574358     -1.71657184580222     -1.16208741044651
  N   -1.58768294865837      0.48388094694619      0.24103738884435
  H   -2.45576892493562      0.19513825400339     -0.17882294835045
  H   -1.62257525629021      0.58561267453877      1.24225689373278
