13
Coordinates from ORCA-job run
  C   0.66515912734316      0.21937627432315      0.21621187735471
  C   -0.53388632766415     -0.17969888186492     -0.32031381405103
  C   1.87281011544659     -0.35466713401290     -0.25932655471107
  N   2.86831139185905     -0.85498679331252     -0.64769204171533
  N   0.64621160651559      1.22041618859795      1.24315851830244
  H   1.08694466449179      2.07773034617542      0.93149953979662
  H   1.13506189386970      0.90175847821042      2.07064809276665
  N   -0.62801140905972     -1.08489900176550     -1.35266565104684
  H   -1.51066205748719     -1.55791458196116     -1.45528822753795
  H   0.17223873652587     -1.68690491128502     -1.47090567116637
  N   -1.70013282459795      0.44073527331020      0.06248260088162
  H   -2.52412283524683     -0.13951404101714      0.08914658813623
  H   -1.55192208199590      0.99856878460203      0.89304474299031
