13
Coordinates from ORCA-job run
  C   0.79202824180306      0.27219887442760      0.06717184288811
  C   -0.48456587824266     -0.16734185777910     -0.09599471106596
  C   1.84500828663287     -0.40032316865831     -0.63410427752274
  N   2.69664409923075     -1.01039589430374     -1.17535209205319
  N   1.15036265746255      1.41317489281719      0.82046268105775
  H   0.31227481493424      1.69234711472028      1.33517883227556
  H   1.90986944691562      1.22460014270750      1.46245050748816
  N   -1.53142137810531      0.55062819030359      0.56208847898977
  H   -2.07682830173911      1.10219205014691     -0.09881330338029
  H   -2.15125308388390     -0.12205947904385      0.98852027184430
  N   -0.83313918381599     -1.36728638447139     -0.72587283150426
  H   -1.57405707077743     -1.28046341323486     -1.42332014346774
  H   -0.05392265041468     -1.90827106763183     -1.08441525554946
