13
Coordinates from ORCA-job run
  C   0.62934167368398      0.24754780961056      0.24081043634951
  C   -0.53064381692946     -0.27497705953578     -0.26485815364607
  C   1.88028101169924     -0.19612213543729     -0.26998920374530
  N   2.91402312798229     -0.57275982282546     -0.69519427027436
  N   0.53957614789636      1.24372768058288      1.26833993717282
  H   0.93727573082776      2.12272313232687      0.95953866391821
  H   1.03857490350439      0.95435782858333      2.10112991157528
  N   -0.58463275843945     -1.34875207760313     -1.13346662600299
  H   0.31710763404491     -1.65567950351423     -1.46906598116776
  H   -1.25136579959415     -1.22260169065735     -1.88112441476838
  N   -1.75738316956237      0.24870248011494      0.07669000705816
  H   -2.46823474291317     -0.45243429397423      0.22685322798885
  H   -1.66491994220032      0.90726765232886      0.83933646554203
