13
Coordinates from ORCA-job run
  C   0.78135597939291      0.15295108577119      0.26540860953691
  C   -0.43711386749514     -0.11967766476598     -0.29090910011325
  C   1.88829772201582     -0.66963978261923     -0.09424445465197
  N   2.76751033419773     -1.39235051556029     -0.39977987465717
  N   1.02912202238883      1.27332362208324      1.10935109012487
  H   0.91138552462072      1.07200890624050      2.09379301438745
  H   0.44863558726284      2.05792811689031      0.84309107763515
  N   -0.62480222168667     -0.98381985534353     -1.36522185780573
  H   -1.34026106385255     -1.67995590790541     -1.20546516245387
  H   0.23359423938606     -1.40673924072824     -1.69093538198026
  N   -1.56546582325024      0.59589512115681      0.07716186237819
  H   -2.41206793874321      0.34693615756721     -0.40712949392076
  H   -1.67919049423711      0.75413995721342      1.06487967152043
