13
Coordinates from ORCA-job run
  C   0.63728525122117      0.27821315835416      0.17558545841788
  C   -0.54077486232013     -0.30700818077325     -0.20385287684027
  C   1.87148795605760     -0.29674251415394     -0.23570760538147
  N   2.89177653076440     -0.77536253657575     -0.58365494024621
  N   0.58471789762813      1.45567997889134      0.99224027173010
  H   1.06648174938865      2.22820284864421      0.54796548657536
  H   1.02091901840386      1.29488271136536      1.89215551249074
  N   -0.63477657776933     -1.34102806942176     -1.11604107346114
  H   -1.29246742355714     -2.05646614578012     -0.84169302495825
  H   0.25517641811688     -1.72405935669359     -1.40068054645846
  N   -1.74572186751420      0.11507226323366      0.31288773747985
  H   -2.48726637657963      0.15275112394475     -0.37128399288954
  H   -1.62683771384024      0.97586471896492      0.83107959354143
