13
Coordinates from ORCA-job run
  C   0.65215919878141      0.17136250036726      0.24594257925718
  C   -0.55671842135500     -0.18575190172517     -0.28838249821343
  C   1.85259088539343     -0.22742056090861     -0.40408815330342
  N   2.84394290090315     -0.55827071945943     -0.95089941746413
  N   0.66401193543954      0.92779750474163      1.46415132988413
  H   1.11816426478600      0.41270238897754      2.20890985314597
  H   1.16107200901017      1.80241161909797      1.34480560681345
  N   -1.73098541782466      0.02531885380440      0.39918133181960
  H   -2.48947787003459      0.34567663309859     -0.18515066615578
  H   -1.56814456706377      0.60632572410284      1.21176542122267
  N   -0.71372103080132     -0.76992246444189     -1.53126873419286
  H   0.15431878061969     -1.02707361456440     -1.97945881545701
  H   -1.38621266785407     -1.52315596309072     -1.53550783735634
