13
Coordinates from ORCA-job run
  C   0.72980688093309      0.13381860415741      0.34390561578594
  C   -0.51296812047948     -0.18602389810620     -0.13358909254797
  C   1.21123602342382     -0.58857430976493      1.47636297487178
  N   1.55457658335309     -1.21686218727327      2.41215059511253
  N   1.58087753235146      1.12879871067996     -0.21741691601491
  H   1.84782166720903      0.95241906689431     -1.17502773291694
  H   1.25579176095461      2.07637393666536     -0.09435585780331
  N   -1.25480007329081     -1.27458508975420      0.29508749695867
  H   -2.22558395370080     -1.05013787993188      0.46213721678571
  H   -0.83970794755312     -1.77180141164447      1.07047526296536
  N   -1.15036452303929      0.55560868898267     -1.11202893631176
  H   -0.55874940186929      1.25215026506434     -1.53638146778348
  H   -1.63793642829228     -0.01018449596911     -1.79131915910161
