13
Coordinates from ORCA-job run
  C   0.77631166593045      0.15116139706679      0.28029892843711
  C   -0.43117241790600     -0.11876995606568     -0.30077797971298
  C   1.88769260241396     -0.67649500953522     -0.05351635287241
  N   2.77202086354558     -1.40377354488431     -0.33259412744919
  N   1.01009033298951      1.27273330864926      1.12629654862576
  H   0.87171050150644      1.07378106661894      2.10857069069757
  H   0.43729554364444      2.05837736617128      0.84709115181532
  N   -0.60011937220551     -0.98552690742923     -1.37608477178607
  H   -1.32335837061736     -1.67675574876152     -1.22967879810006
  H   0.26291327940625     -1.41539527939064     -1.67979598456112
  N   -1.56398695732148      0.60251638940657      0.04216230848443
  H   -1.69820193060367      0.76117310411497      1.02736732067223
  H   -2.40119574078261      0.35797381403879     -0.46033893425059
