13
Coordinates from ORCA-job run
  C   0.76617009071944      0.15733841371693      0.23611043469231
  C   -0.46383584402341     -0.19605624563753     -0.25073658498714
  C   1.91431954043456     -0.44322896149072     -0.36182354388606
  N   2.82467326993760     -0.97037893002231     -0.89268238727427
  N   0.98135678273091      1.09047129617654      1.29046535440559
  H   0.68419505243772      0.77174579563174      2.20079701649173
  H   0.64538138167860      2.02228089722554      1.09577686276959
  N   -0.65918424893361     -0.95472932306996     -1.39284844894918
  H   0.19442277484985     -1.31572150968433     -1.79516072259089
  H   -1.35977282147151     -1.67341673118298     -1.27699994127768
  N   -1.64528158113501      0.18890359549489      0.35712603849560
  H   -1.51588222028204      0.86985581708435      1.08839039478334
  H   -2.36656217694311      0.45193588575783     -0.29841447267292
