13
Coordinates from ORCA-job run
  C   0.67152836763145      0.19309702266383      0.22305948952435
  C   -0.54459957208205     -0.12749034378811     -0.32896925493539
  C   1.86539880120871     -0.28173668208176     -0.38461684488407
  N   2.84719000011674     -0.71200104034901     -0.88144383676620
  N   0.68709560408611      1.00080362559776      1.40901419717653
  H   1.21291927778557      0.55158421589016      2.14591899128138
  H   1.10878799453084      1.90479992202793      1.23395901577343
  N   -1.70178698726365      0.40847564847090      0.19024564824450
  H   -2.50338702600973     -0.20587895938312      0.18519700034721
  H   -1.51303833763932      0.82851501225151      1.09219487424875
  N   -0.66925644186909     -0.85577013301122     -1.48656438646101
  H   -1.57263100834191     -1.25490034412821     -1.68201864198103
  H   0.11077932784634     -1.45049794416064     -1.71497625156845
