13
Coordinates from ORCA-job run
  C   0.76471227604089      0.20385260154738      0.20263696674620
  C   -0.46196974470980     -0.21861436346700     -0.23559999975232
  C   1.91965585848613     -0.32385751896521     -0.44822889357026
  N   2.83589123452641     -0.79185493365866     -1.02264654728892
  N   0.96880711598944      1.12621886122389      1.26845296257026
  H   0.68371633164117      2.07290422512737      1.06540548397864
  H   0.61483497940604      0.81545858588266      2.16123903677122
  N   -0.65165936188986     -1.24965838003752     -1.14043271377307
  H   0.20603673698518     -1.61253888925871     -1.53196811693531
  H   -1.33449907692475     -1.03284020214663     -1.85275764037954
  N   -1.64536639678857      0.34968389733797      0.20010891909409
  H   -1.52261115496706      0.98736650014672      0.97065687782576
  H   -2.37954879779523     -0.32412038373226      0.36213366471324
