13
Coordinates from ORCA-job run
  C   0.78532489418673      0.19347896753687      0.22571218690667
  C   -0.45423133064369     -0.25426293083368     -0.13683281163444
  C   1.92665779975518     -0.42900615489331     -0.35845210664015
  N   2.83946663240706     -0.95400336264586     -0.88736927131153
  N   1.00376991578375      1.18210612005808      1.22728090075525
  H   1.05513122285499      2.12384592784654      0.86111576213433
  H   0.29357072807067      1.12733063094439      1.94556206968637
  N   -1.60136287034331      0.36224073715679      0.33874581126657
  H   -1.59492573302894      1.36891777969823      0.31722616294422
  H   -2.46890023312237     -0.05621949239006      0.04616299702421
  N   -0.67954600077057     -1.43118001889777     -0.84357562618720
  H   -1.27539344420391     -1.31191167586065     -1.65160063153706
  H   0.17143841905442     -1.92133652771957     -1.08297544340724
