13
Coordinates from ORCA-job run
  C   0.74532831109128      0.13980151541255      0.30451175959271
  C   -0.52428235767448     -0.17904097413289     -0.09724527836256
  C   1.21882772931577     -0.43215315701702      1.52301478257595
  N   1.55432099952230     -0.93332695147010      2.53527053603944
  N   1.62268393290082      1.01064979103863     -0.40298483132804
  H   1.27771720726793      1.95378736498010     -0.50571731859624
  H   1.96297688803134      0.64283218441709     -1.27909283540002
  N   -1.02555192975630      0.17619843496155     -1.33655837108983
  H   -1.98709727326793      0.48278133804036     -1.30882924712990
  H   -0.42832466179328      0.81085531162874     -1.84229327925459
  N   -1.43600050817494     -0.87054780713292      0.68290733552915
  H   -1.92803299402310     -1.59147365292907      0.17424941539931
  H   -1.05356534343942     -1.21136339779703      1.55376733202462
