13
Coordinates from ORCA-job run
  C   0.77538627325323      0.23851598399869      0.20191662877614
  C   -0.43907338455490     -0.23130945600209     -0.22193679543023
  C   1.94580386714971     -0.29098141594182     -0.40489080742080
  N   2.85080563893649     -0.82170913298081     -0.94001433677945
  N   0.93249607524922      1.26998467774090      1.17273694338180
  H   0.78236588985631      0.98272890886222      2.13039896331221
  H   0.41176109909999      2.10648388949501      0.96361789922363
  N   -0.59369255945707     -1.26220779163587     -1.12478524231941
  H   -1.36391276595426     -1.17571749017066     -1.76766859114723
  H   0.25836988081865     -1.55215413393830     -1.58958232021198
  N   -1.63233987906107      0.31894274720198      0.22433420335266
  H   -1.53556200133411      0.76296347961539      1.12828171333740
  H   -2.38940813400220     -0.34654026624464      0.22659174192527
