13
Coordinates from ORCA-job run
  C   0.74688751222469      0.18365354294906      0.27637557612747
  C   -0.44284678460512     -0.21392582530374     -0.27264857934250
  C   1.94079306547438     -0.42564372350718     -0.21277801451295
  N   2.89219003612494     -0.96103642525305     -0.65626194173424
  N   0.87629006428329      1.15991009689470      1.30569807955363
  H   0.41567516114791      0.91518233272240      2.17003014997982
  H   0.65317530769115      2.10209316800035      1.02063541739931
  N   -0.58017485084513     -1.28769161932562     -1.13688278667539
  H   -1.16909924606537     -1.08354928559410     -1.93198065245969
  H   0.29785902376398     -1.70573838765840     -1.41066321003360
  N   -1.63945775586061      0.42542042594767     -0.00346914583553
  H   -2.41682151576184     -0.20862346871059      0.11062822011394
  H   -1.57447001757227      1.10194916883851      0.74031688741972
