13
Coordinates from ORCA-job run
  C   0.65493421391774      0.27763759184279      0.17746234946520
  C   -0.54831225178857     -0.19630784672814     -0.28338227281754
  C   1.83712336681096      0.03413378094480     -0.56925995696823
  N   2.81437450750834     -0.19412464341549     -1.18970318497170
  N   0.66350797053436      1.02053168080651      1.40435174778100
  H   1.32080307125933      0.62391883308464      2.06467394640524
  H   0.92468052832416      1.98705980573477      1.24782166481704
  N   -1.71205462325622      0.12054965439567      0.37776515979472
  H   -2.43291761580090     -0.58428800248384      0.37037190270333
  H   -1.50999463967406      0.50377299774307      1.29178430848202
  N   -0.68193165911921     -0.86289283661088     -1.48035988656143
  H   -1.49325472547809     -1.45140293206890     -1.57533729562576
  H   0.16504185676218     -1.27958808324501     -1.83518848250388
