13
Coordinates from ORCA-job run
  C   0.64376323763321      0.30551523924621      0.17104314577898
  C   -0.53433469635058     -0.23273653809158     -0.28386631207375
  C   1.86079798636654     -0.01110598917007     -0.48678035123514
  N   2.86831038769462     -0.29956297015456     -1.02892488631069
  N   0.59310968739057      1.18187950899984      1.30534230812255
  H   1.22348233988555      0.86963947791230      2.03380748890058
  H   0.85483961192334      2.12743982306821      1.05226730868590
  N   -1.72889439871263      0.14393984618642      0.28507822489186
  H   -1.56970350156374      0.63164437653467      1.15696477470559
  H   -2.44182480860416     -0.56761079942210      0.32913920574741
  N   -0.60968410163905     -1.03400889047535     -1.40049028899852
  H   -1.41411313334185     -1.63537036646349     -1.46671424354339
  H   0.25425138931818     -1.48066271817051     -1.66686637467138
