13
Coordinates from ORCA-job run
  C   0.75737048712707      0.23125889679972      0.21464391636720
  C   -0.44815391353965     -0.21323253755358     -0.25886913521071
  C   1.93554589406889     -0.26502400070334     -0.41729789457278
  N   2.86518904875407     -0.72950927427529     -0.97303696278181
  N   0.91822488880334      1.10982351906514      1.32639474916723
  H   0.54089976814862      2.03427013160611      1.17421411473537
  H   0.58474685100793      0.71866732018934      2.19511321119876
  N   -0.60770800476711     -0.96265163835954     -1.41201693278675
  H   0.26744680211490     -1.22230876597416     -1.84506648203931
  H   -1.22175961282991     -1.75322485138739     -1.28065190186005
  N   -1.64285189254530      0.05088717963421      0.39122292437199
  H   -2.40171572551134      0.26577477310318     -0.24003660382466
  H   -1.54723459083152      0.73526924785558      1.12538699723551
