13
Coordinates from ORCA-job run
  C   0.66612501804297      0.23290860334691      0.19826625789139
  C   -0.52976728723600     -0.33460250470532     -0.16552086834953
  C   1.86281267820191     -0.18012109066212     -0.44381445429015
  N   2.84658025908457     -0.51622710165736     -1.00193879131064
  N   0.65562685632242      1.22860666474657      1.23032169950487
  H   1.13929534233212      0.90603891945147      2.06004658552902
  H   1.10624468308663      2.08018554989320      0.91878258177596
  N   -1.68054820767142     -0.01245222892276      0.51586645349281
  H   -2.52850782210501      0.00103613341096     -0.02928984246570
  H   -1.53769176648880      0.80969288658060      1.08742077299566
  N   -0.62761983951652     -1.34347617646609     -1.09677920571477
  H   -1.52455664275352     -1.45707022055417     -1.53963078470227
  H   0.15100672870065     -1.41551943446189     -1.73373040435664
