13
Coordinates from ORCA-job run
  C   0.77879503689914      0.28465596494320      0.13385771767315
  C   -0.46200945632237     -0.16629656338310     -0.22054380569809
  C   1.90599019951099     -0.19720657436756     -0.59239856661821
  N   2.81054965392301     -0.64420836468685     -1.20114610213711
  N   1.00056672631247      1.28048123639049      1.12769330738702
  H   1.16587715195050      0.89966319980692      2.05036976018441
  H   0.22910767164512      1.93458952959575      1.15637036637389
  N   -1.58710849313520      0.20221187271970      0.50076738626389
  H   -1.49626491952070      0.15837333186400      1.50252480560467
  H   -2.46236390300321     -0.14448202190391      0.14423399785416
  N   -0.72940042356807     -0.86400888580000     -1.39434992759281
  H   -1.24554440953251     -1.72121496984685     -1.24813683686225
  H   0.09380516484083     -1.02255775533180     -1.95924210243274
