13
Coordinates from ORCA-job run
  C   0.65121899903145      0.20719237974426      0.26075910975762
  C   -0.53458509641252     -0.17585396950992     -0.30496557786480
  C   1.85743332246182     -0.43919057162012     -0.12987595932923
  N   2.83807868314490     -1.01620066851711     -0.44512197685946
  N   0.61361252401447      1.24902269016234      1.24094280679545
  H   1.36115446600074      1.16114152482309      1.91097876387694
  H   0.67338510345115      2.17825207895299      0.83532628081409
  N   -0.60458277694955     -1.02182204553582     -1.40198193014042
  H   -1.22384747867442     -1.80623201783684     -1.25601862707063
  H   0.31118077564307     -1.33417732997577     -1.69245285269291
  N   -1.71568895769133      0.39064391753077      0.10563270760941
  H   -2.55459997891340     -0.08161866345732     -0.18744491475472
  H   -1.67275958510637      0.68884267523944      1.06522216985865
