13
Coordinates from ORCA-job run
  C   0.74656773342412      0.11306678678787      0.18571657947376
  C   -0.52031772949680     -0.23881438064945     -0.15603972895036
  C   1.88110447571868     -0.52829576845244     -0.34312861763313
  N   2.78979887160174     -1.08646009205229     -0.84704850927608
  N   0.90305964442934      1.19999639252765      1.11678422420635
  H   1.87907893391946      1.47155009164140      1.15624292570155
  H   0.33831236190463      1.99113107770446      0.82974973106346
  N   -1.56173244893651      0.53920761894034      0.38462063270612
  H   -2.45267629430537      0.06627364535465      0.29934157900009
  H   -1.35703691509498      0.64556655852683      1.38092393664775
  N   -0.91603393706633     -1.29644280025592     -0.96482099161256
  H   -0.16522872790383     -1.84591123522172     -1.35142582402297
  H   -1.56589596819415     -1.03086789485139     -1.69191593730397
