13
Coordinates from ORCA-job run
  C   0.64162941704763      0.22723636080997      0.22687539587236
  C   -0.54501185169095     -0.26346127233217     -0.24790057649147
  C   1.86725502929791     -0.30413302254317     -0.26129501720454
  N   2.88042977050915     -0.75060690290524     -0.66781221430889
  N   0.60578376445781      1.28135943490073      1.19856777440872
  H   1.04595827496626      2.12121582802617      0.84211446276417
  H   1.09198902323306      1.01251676142681      2.04558427163892
  N   -1.74223075621085      0.34037310435897      0.06427306981954
  H   -1.61311459522921      1.03424257452577      0.78942434926494
  H   -2.48826004204342     -0.31283510234074      0.25339994332489
  N   -0.65529919638847     -1.37837972243623     -1.05711454922715
  H   0.22911418913394     -1.74550524920722     -1.37835268590226
  H   -1.31924302708286     -1.26102279228367     -1.80876422395923
