13
Coordinates from ORCA-job run
  C   0.64116518866660      0.29345072309140      0.20034795784814
  C   -0.50436863058426     -0.38030366951203     -0.14360269681624
  C   1.89677469542611     -0.17185537129908     -0.26991852367547
  N   2.93161075825179     -0.55805992328441     -0.68483355505082
  N   0.51940347399880      1.44731697002594      1.04293269632144
  H   0.95405121143491      1.29323001997597      1.94510305071197
  H   0.95920795875264      2.25551320331216      0.62027144672734
  N   -0.49745606290557     -1.53446807238714     -0.89336222365226
  H   0.32656804354325     -1.67473058929918     -1.45728722842118
  H   -1.35620895289646     -1.76932203204985     -1.36314840574697
  N   -1.71427732183960      0.00000471506674      0.38962831152489
  H   -1.63990494467732      0.90964231635495      0.82610743262939
  H   -2.51656541717090     -0.10941828999546     -0.21123826240024
