13
Coordinates from ORCA-job run
  C   0.64656650492705      0.28689418139910      0.19606390475656
  C   -0.50630795068405     -0.37444430551379     -0.14836816368603
  C   1.89475307290864     -0.17487998079444     -0.29587494801025
  N   2.92687783580257     -0.55563534633349     -0.72299509251126
  N   0.54210813849365      1.43201712091889      1.05516954124265
  H   1.00062761010824      1.26523272416688      1.94326295647692
  H   0.96882712874362      2.24704901939738      0.63241762738012
  N   -0.51821749169038     -1.50322814241833     -0.92904045642295
  H   -1.40355859426397     -1.80882898824060     -1.29793238936731
  H   0.27082010221808     -1.63897630850389     -1.53922718049790
  N   -1.70924692825341     -0.00928025901113      0.41602475890098
  H   -2.50094005398073     -0.03874655314339     -0.20968175540925
  H   -1.61030937432931      0.87282683807681      0.90318119714773
