13
Coordinates from ORCA-job run
  C   0.63658198746655      0.21642216358799      0.29174951766206
  C   -0.50727331486942     -0.32115790744422     -0.24434322210952
  C   1.90278051737746     -0.21030644591304     -0.18711406235307
  N   2.94786547922966     -0.55890086194132     -0.60942501336496
  N   0.50181108578587      1.19211136064208      1.33369331892715
  H   0.99796590564597      2.04381727856208      1.10251490348467
  H   0.86865694020208      0.84661169228850      2.21265194240251
  N   -0.49245083997967     -1.30564913742014     -1.20478928156974
  H   0.35825171256124     -1.37441077110266     -1.74118745126066
  H   -1.33107587585440     -1.41749328153736     -1.74997213373444
  N   -1.73601061397103      0.00802271701094      0.28145395867132
  H   -2.49462207678109      0.07149807657141     -0.38021822834161
  H   -1.65348090681322      0.80843511669574      0.89498575158629
