13
Coordinates from ORCA-job run
  C   0.74157704949570      0.09361717728696      0.38245058079333
  C   -0.45101512733062     -0.19532093653812     -0.22008538304381
  C   1.08184314570797     -0.60499802024905      1.57721354188334
  N   1.30692604177084     -1.18697645319303      2.57685831354390
  N   1.70679635630735      0.98452407512235     -0.16806078421545
  H   1.60611852689315      1.93859692551695      0.15336484982239
  H   1.68765231744245      0.95434397456574     -1.17895097229622
  N   -1.24255675525769     -1.29099259452980      0.10888791828831
  H   -0.85844471613482     -1.84885096723085      0.85932878609633
  H   -2.20993424283935     -1.05488608193234      0.28397286672958
  N   -0.87105069690476      0.50466145709252     -1.34023737803287
  H   -1.74555808151386      0.20248653790170     -1.73676463942606
  H   -0.75335381763637      1.50379490618696     -1.29897770014275
