13
Coordinates from ORCA-job run
  C   0.63420076442833      0.19270584073669      0.31856571437467
  C   -0.50720458323003     -0.30448667096557     -0.25825687297450
  C   1.07204939479234     -0.33799724316397      1.56132105357997
  N   1.40259940313969     -0.77339833033068      2.60701522447703
  N   1.34263535053015      1.23728384259470     -0.35893932044682
  H   2.26094798993288      0.92892642008450     -0.65551567315499
  H   1.46140270543074      2.04648567978286      0.23797302671579
  N   -1.24631353632616     -1.31465347895915      0.30098737945650
  H   -1.17772272379285     -1.43348396355978      1.29874749931870
  H   -2.15152083987021     -1.50749786123934     -0.09258597111794
  N   -0.88503563772281      0.10711185665296     -1.51988367432832
  H   -1.87658884254237      0.25177792930032     -1.63803714470373
  H   -0.33044944476971      0.90622597906646     -1.80139124119636
