13
Coordinates from ORCA-job run
  C   0.64944113068502      0.16937632908925      0.25322791976195
  C   -0.59820289417470     -0.20419712821185     -0.16863176144058
  C   1.14996963436602     -0.32344652104850      1.48979111494379
  N   1.56162268397570     -0.73871141506039      2.51416941024978
  N   1.40881976709994      1.06643546391304     -0.56846640152270
  H   1.59821900981514      1.93476856408242     -0.08240036158667
  H   2.29812163622505      0.65699491983975     -0.82865809870901
  N   -1.18665986888909      0.38510810541504     -1.26498411545018
  H   -1.68623911971867     -0.26475223002735     -1.85426190516483
  H   -0.51806832543414      0.95816844586812     -1.76358391109118
  N   -1.36288972121796     -1.18110522877361      0.44055444662974
  H   -0.97711504991157     -1.52815036461291      1.30701324645397
  H   -2.33701888282075     -0.92948894047300      0.52623041692594
