13
Coordinates from ORCA-job run
  C   0.64251758382279      0.20877734950039      0.24169778702343
  C   -0.54590254937090     -0.24588949572429     -0.26342306794028
  C   1.86554156538089     -0.32706580828167     -0.24756877146861
  N   2.87621345690644     -0.77798774340822     -0.65533142107545
  N   0.61143581133411      1.23284049365509      1.24513184653902
  H   1.06913606664066      2.07608567632926      0.92035282652585
  H   1.08220295667306      0.93020048664781      2.08950460479019
  N   -1.73696832180239      0.36829717250302      0.05318398897200
  H   -1.60451089720346      1.03667887355580      0.80154170549350
  H   -2.49480144927891     -0.27882771198605      0.21537100177743
  N   -0.66457940660144     -1.33266300499598     -1.10864569445688
  H   -1.31625475005547     -1.18151523260088     -1.86495009949509
  H   0.21696993355461     -1.70793105519430     -1.42786470668510
