13
Coordinates from ORCA-job run
  C   0.64958105747415      0.21932545913457      0.22159428536234
  C   -0.54613431526248     -0.25524831488895     -0.25608096753272
  C   1.86939605232638     -0.36392975657943     -0.20791960114658
  N   2.86800796811551     -0.89875696615981     -0.57238325925471
  N   0.61485565611824      1.33283015056186      1.12933417566382
  H   1.19875577227813      2.07193800567964      0.78757090682413
  H   0.99906853912836      1.05148063957497      2.05522641144136
  N   -1.74022530319590      0.22036709248024      0.24656176974642
  H   -2.46046596332127      0.35469156690897     -0.44828964751165
  H   -1.56665464849943      1.04213972486354      0.82198788885098
  N   -0.67068999358649     -1.22122078120531     -1.22672880183423
  H   0.19594066635483     -1.66552254966988     -1.50352939780721
  H   -1.41243548793005     -1.88909427070041     -1.04634376280196
