13
Coordinates from ORCA-job run
  C   0.64446793414545      0.20117466516079      0.24260207437216
  C   -0.54880175919638     -0.23648729044114     -0.26583532273837
  C   1.86204002821092     -0.31522536718729     -0.28063013877747
  N   2.86822759896517     -0.74889215347676     -0.71727400480573
  N   0.62440553801500      1.18690996953691      1.28354920276117
  H   1.07934789149694      2.04171107618329      0.98634399440248
  H   1.10366829161739      0.85244464118204      2.11103264496533
  N   -1.73715402443578      0.36488814702306      0.08369902348338
  H   -1.59831081055755      1.00719739866149      0.85334681799834
  H   -2.49257068079206     -0.28851293553303      0.23124231731638
  N   -0.67541114433451     -1.29349373268362     -1.14740755797980
  H   0.20337439447858     -1.65687517410541     -1.48742664789386
  H   -1.33328325761316     -1.11483924432033     -1.89224240310401
