13
Coordinates from ORCA-job run
  C   0.67726852149415      0.12565786956283      0.20046390965781
  C   -0.62394954598483     -0.15876070343412     -0.11635133912404
  C   1.20733293724574     -0.30634374422182      1.44744080339059
  N   1.64214213190238     -0.67042832935973      2.48166012876866
  N   1.46235981304959      0.87152902898284     -0.73979437632253
  H   1.76185833937428      1.75506323988307     -0.34495866259423
  H   2.29182544149006      0.35662502065560     -1.01037921315660
  N   -1.22415161715036      0.39040962838719     -1.22714581365047
  H   -0.53871406314783      0.85193769980219     -1.81121696364154
  H   -1.81785422592085     -0.25498732112069     -1.72727313356450
  N   -1.43538624804474     -1.00126462435315      0.62003778340851
  H   -2.37453401559259     -0.64886681022300      0.73572761869681
  H   -1.02919746871498     -1.30957095456122      1.49178925813153
