15

C	0.0	0.0	0.0
C	-0.427317	0.007252	-1.481576
F	1.326802	0.0	0.0
H	-1.520652	-0.171497	-1.428116
N	-0.314541	1.335601	0.705426
O	-1.239871	2.021285	0.283057
O	0.418306	1.603731	1.649064
N	-0.756054	-1.072302	0.704791
O	-0.713644	-2.153289	0.044759
O	-0.726147	-1.012691	1.958524
C	0.26801	-1.036901	-2.237665
N	0.777207	-1.823957	-2.946014
C	-0.163658	1.289436	-2.138172
N	0.035793	2.286005	-2.729531
H	-2.267441	0.0	0.0
