16

C	0.0	0.0	0.0
C	-0.545746	0.16814	-1.409983
Br	1.944608	0.0	0.0
H	-1.62203	0.353773	-1.264513
H	-0.304735	0.845976	0.611144
C	-0.445205	-1.323061	0.578128
H	-1.534872	-1.353107	0.585079
H	-0.05819	-1.447566	1.591293
H	-0.060578	-2.122997	-0.047742
N	-0.293285	-0.962623	-2.256172
H	-1.177187	-1.344494	-2.568163
H	0.245824	-0.661544	-3.057966
N	0.02762	1.436451	-2.010293
O	-0.081085	2.454344	-1.341667
O	0.560889	1.387336	-3.120898
Br	-3.719485	0.0	0.0
