16

C	0.0	0.0	0.0
C	-0.568296	0.157889	-1.394368
Br	1.955343	0.0	0.0
H	-1.65961	0.231471	-1.247148
H	-0.279804	0.877451	0.580141
C	-0.499962	-1.272569	0.653221
H	-0.162112	-2.144952	0.094448
H	-1.593188	-1.238055	0.65094
H	-0.140486	-1.334227	1.682527
N	-0.241978	-0.90185	-2.275036
H	-0.833569	-0.871027	-3.093352
H	0.724794	-0.839763	-2.567126
N	-0.152539	1.537434	-1.933789
O	-0.350255	2.506523	-1.207964
O	0.335968	1.589332	-3.063152
Br	-3.886721	0.0	0.0
