16

C	0.0	0.0	0.0
C	-0.596513	-0.070876	-1.389847
Br	1.948263	0.0	0.0
H	-1.682988	0.038611	-1.228892
H	-0.276189	0.959715	0.433083
C	-0.494069	-1.147577	0.858492
H	-1.586845	-1.112057	0.871117
H	-0.114894	-1.046018	1.877495
H	-0.167557	-2.099715	0.441528
N	-0.308862	-1.268712	-2.088581
H	0.633615	-1.254639	-2.456802
H	-0.957566	-1.389164	-2.853932
N	-0.185528	1.190941	-2.161761
O	0.269991	1.048337	-3.297046
O	-0.352114	2.269979	-1.602645
Br	-3.908564	0.0	0.0
