15

C	-0.579472	0.050375	-1.405302
C	0.0	0.0	0.0
Br	0.212389	1.446633	-2.482774
H	1.093981	0.0	0.0
H	-1.655357	0.224517	-1.403216
N	-0.407508	-1.250567	-2.148162
O	0.644239	-1.856505	-2.002799
O	-1.358545	-1.587951	-2.853977
C	-0.512097	-1.20831	0.645979
N	-0.989439	-2.145193	1.170867
C	-0.434317	1.231742	0.805091
H	-0.054017	1.138461	1.822974
H	0.006742	2.127107	0.366452
H	-1.523299	1.337011	0.839911
Cl	3.2961	0.0	0.0
