15

C	-0.385101	0.020286	-1.469989
C	0.0	0.0	0.0
Br	0.001665	-1.618339	-2.399233
H	1.096233	0.0	0.0
H	0.153425	0.818624	-1.977234
N	-1.847198	0.351314	-1.629461
O	-2.099566	1.474901	-2.06838
O	-2.672052	-0.47373	-1.253231
C	-0.503572	-1.169476	0.710775
N	-0.884792	-2.084327	1.341405
C	-0.444509	1.293248	0.694067
H	2.3e-05	1.324148	1.689744
H	-1.531683	1.361619	0.787476
H	-0.076309	2.156584	0.135193
Cl	3.265057	0.0	0.0
