20

C	0.0	0.0	0.0
C	-0.362754	0.033122	-1.491344
Cl	1.80635	0.0	0.0
H	0.004171	0.978333	-1.894249
C	-0.480443	1.280844	0.659929
H	-0.145787	2.162641	0.099509
H	-1.571797	1.265402	0.699856
H	-0.085243	1.343445	1.673902
C	-0.488951	-1.216541	0.766966
H	-1.580021	-1.194241	0.784875
H	-0.109802	-1.153954	1.79146
H	-0.140076	-2.142486	0.322125
C	-1.831145	-0.196115	-1.824514
H	-2.533405	0.347145	-1.164398
H	-1.999647	0.09174	-2.86575
H	-2.089019	-1.241001	-1.691187
N	0.430731	-0.978823	-2.285959
O	1.119865	-0.542098	-3.211598
O	0.317349	-2.170988	-2.012921
H	-4.090762	0.0	0.0
