13

C	-0.341114	0.03958	-1.469375
C	0.0	0.0	0.0
F	-0.044418	1.267454	-1.966041
H	1.094054	0.0	0.0
H	-0.348388	0.943734	0.429105
N	0.526097	-0.981992	-2.224595
O	1.257081	-0.566514	-3.105972
O	0.35901	-2.14107	-1.87076
C	-1.737123	-0.274645	-1.826663
N	-2.862372	-0.477043	-2.099701
C	-0.581105	-1.114973	0.711541
N	-1.042569	-1.994298	1.341249
F	2.486133	0.0	0.0
