13

C	-0.337271	0.048173	-1.452084
C	0.0	0.0	0.0
F	-1.667928	0.311895	-1.727375
H	1.093769	0.0	0.0
H	-0.334203	0.934613	0.456072
N	0.416282	1.237551	-2.062878
O	0.146823	2.322232	-1.564587
O	1.17032	1.029532	-3.003633
C	0.036511	-1.169651	-2.180353
N	0.258467	-2.172291	-2.749282
C	-0.592564	-1.141352	0.655844
N	-1.059883	-2.067657	1.209443
F	2.474759	0.0	0.0
