13

C	-0.332686	0.04077	-1.462321
C	0.0	0.0	0.0
F	0.009446	-1.109799	-2.086336
H	1.093491	0.0	0.0
H	-0.323712	0.932689	0.467289
N	-1.85369	0.211168	-1.683787
O	-2.481473	-0.749745	-2.103704
O	-2.307888	1.301551	-1.357389
C	0.301979	1.180847	-2.141242
N	0.764268	2.099436	-2.706175
C	-0.600361	-1.143842	0.648195
N	-1.072114	-2.071066	1.19614
F	2.480523	0.0	0.0
