13

C	-0.440049	-0.076925	-1.431431
C	0.0	0.0	0.0
F	-1.781077	-0.336765	-1.588386
H	1.091913	0.0	0.0
H	-0.290978	-0.944895	0.471433
N	-0.19176	1.272923	-2.118443
O	0.942524	1.466535	-2.533049
O	-1.140316	2.046867	-2.152045
C	0.303808	-1.095481	-2.187587
N	0.790472	-1.971619	-2.798568
C	-0.605737	1.104856	0.709471
N	-1.068574	1.997102	1.319594
F	2.47667	0.0	0.0
