13

C	-0.339126	0.034464	-1.451842
C	0.0	0.0	0.0
F	-1.674039	0.275452	-1.727075
H	1.093822	0.0	0.0
H	-0.33668	0.937161	0.448848
N	0.393882	1.232358	-2.07166
O	1.145878	1.030532	-3.015387
O	0.110159	2.315722	-1.577911
C	0.054525	-1.181289	-2.172392
N	0.302925	-2.184182	-2.729698
C	-0.588326	-1.138234	0.664936
N	-1.047746	-2.065473	1.223451
F	2.474402	0.0	0.0
