13

C	-0.314634	0.322813	-1.429431
C	0.0	0.0	0.0
F	0.007229	-0.696321	-2.259302
H	1.101465	0.0	0.0
H	-0.320894	0.830251	0.632209
N	-1.828107	0.590138	-1.645701
O	-2.295432	1.496159	-0.966226
O	-2.428204	-0.111284	-2.448944
C	0.355972	1.555196	-1.874601
N	0.828985	2.555776	-2.263836
C	-0.621554	-1.237022	0.411312
N	-1.126665	-2.239456	0.760558
F	2.484408	0.0	0.0
