13

C	-0.345814	-0.381105	-1.408741
C	0.0	0.0	0.0
F	0.098699	-1.639846	-1.660541
H	1.103782	0.0	0.0
H	-0.359477	-0.797705	0.655493
N	-1.874771	-0.437374	-1.602986
O	-2.420198	0.576342	-2.028788
O	-2.427286	-1.465813	-1.230776
C	0.190063	0.5376	-2.421642
N	0.626515	1.243152	-3.252059
C	-0.555958	1.277118	0.380425
N	-0.989514	2.315564	0.721675
F	2.473706	0.0	0.0
