13

C	-0.344809	-0.404853	-1.403185
C	0.0	0.0	0.0
F	0.076058	-1.677659	-1.623545
H	1.100807	0.0	0.0
H	-0.365806	-0.783981	0.669715
N	-1.874042	-0.435338	-1.606936
O	-2.396376	0.578308	-2.059147
O	-2.449122	-1.442693	-1.214345
C	0.214577	0.479446	-2.434244
N	0.665555	1.152092	-3.283937
C	-0.546096	1.289298	0.353162
N	-0.967976	2.340813	0.668929
F	2.474231	0.0	0.0
