13

C	-0.34034	-0.097592	-1.462866
C	0.0	0.0	0.0
F	0.074661	0.995043	-2.144692
H	1.102419	0.0	0.0
H	-0.334156	-0.907496	0.505919
N	0.409306	-1.316594	-2.027848
O	0.109047	-2.383711	-1.506396
O	1.195052	-1.12897	-2.938965
C	-1.764482	-0.325349	-1.778125
N	-2.906421	-0.488901	-2.002601
C	-0.594613	1.175123	0.591339
N	-1.059005	2.135035	1.087658
F	2.481402	0.0	0.0
