16

C	0.0	0.0	0.0
C	-0.524121	-0.005573	-1.454895
F	1.352892	0.0	0.0
H	-1.621021	0.025532	-1.345977
N	-0.493579	1.028945	0.82818
H	-1.503118	0.880287	0.925587
H	-0.349277	1.915797	0.361314
N	-0.337984	-1.346018	0.681846
O	-1.050766	-1.3492	1.672036
O	0.215997	-2.32844	0.185669
N	-0.145183	-1.094339	-2.335864
H	0.805557	-1.3781	-2.132736
H	-0.74299	-1.884021	-2.130743
C	-0.077665	1.269813	-2.042228
N	0.324829	2.275187	-2.49782
Cl	-3.561909	0.0	0.0
