16

C	0.0	0.0	0.0
C	-0.472656	0.112698	-1.479939
F	1.355244	0.0	0.0
H	0.475652	0.121607	-2.026755
N	-0.506365	0.963568	0.852578
H	-0.312096	0.689363	1.809153
H	-1.523962	0.981629	0.737552
N	-0.224823	-1.464994	0.547337
O	-0.600516	-1.577203	1.708764
O	0.128656	-2.384763	-0.184217
N	-1.13677	1.382794	-1.745128
H	-2.076115	1.297318	-1.35258
H	-1.24788	1.45213	-2.751513
C	-1.206901	-1.042858	-2.03926
N	-1.696989	-1.850197	-2.739544
Cl	-3.44225	0.0	0.0
