16

C	0.0	0.0	0.0
C	-0.351485	-0.003774	-1.50813
F	1.390699	0.0	0.0
H	0.531843	-0.489544	-1.946348
N	-0.522396	1.037361	0.735433
H	-1.51747	1.109235	0.481668
H	-0.464139	0.807826	1.721219
N	-0.24392	-1.411569	0.604449
O	-0.047386	-2.368674	-0.13769
O	-0.493289	-1.465091	1.802956
N	-0.524946	1.377621	-1.945591
H	0.327992	1.890048	-1.75081
H	-0.692254	1.384191	-2.944596
C	-1.459491	-0.826147	-2.015605
N	-2.07542	-1.509036	-2.748618
Cl	-3.400776	0.0	0.0
