16

C	0.0	0.0	0.0
C	-0.320908	-0.047328	-1.513946
F	1.403223	0.0	0.0
H	0.552002	-0.585735	-1.907475
N	-0.51029	1.067005	0.699645
H	-0.376083	0.910453	1.692779
H	-1.524146	1.08463	0.502225
N	-0.244424	-1.386848	0.649088
O	-0.146278	-2.370258	-0.077207
O	-0.399416	-1.399731	1.865038
N	-0.410602	1.327869	-1.999313
H	-0.35589	1.317016	-3.010642
H	0.371505	1.856463	-1.629739
C	-1.451554	-0.829304	-2.037389
N	-2.084537	-1.485855	-2.779452
Cl	-3.36519	0.0	0.0
