17

C	-0.38978	0.089559	-1.508923
C	0.0	0.0	0.0
Cl	-0.050707	-1.526575	-2.222725
H	1.10687	0.0	0.0
C	-1.845803	0.424138	-1.761817
H	-2.500956	-0.30985	-1.296035
H	-2.011385	0.439352	-2.839334
H	-2.079118	1.40897	-1.34896
N	0.468105	1.041853	-2.165006
H	0.234611	1.976485	-1.844348
H	1.439449	0.854383	-1.912046
N	-0.564345	-1.197944	0.694905
O	0.194406	-2.128678	0.933417
O	-1.772826	-1.169667	0.949258
C	-0.471447	1.196366	0.684416
N	-0.836991	2.194684	1.184771
Cl	3.233775	0.0	0.0
