17

C	-0.339621	-0.262507	-1.488828
C	0.0	0.0	0.0
Cl	-0.045397	-2.079805	-1.765641
H	1.107341	0.0	0.0
C	-1.773558	-0.00416	-1.906111
H	-2.004983	1.049992	-1.742138
H	-2.464064	-0.62345	-1.337305
H	-1.884226	-0.232262	-2.968585
N	0.564098	0.555489	-2.200782
H	0.4944	0.414887	-3.20026
H	1.526518	0.422385	-1.886791
N	-0.565163	-1.033632	0.923411
O	-1.793568	-1.111168	0.969279
O	0.219314	-1.721299	1.563239
C	-0.516297	1.302029	0.399636
N	-0.955561	2.350265	0.695373
Cl	3.266855	0.0	0.0
