15

C	0.0	0.0	0.0
C	-0.517999	-0.487167	-1.366854
Cl	1.793307	0.0	0.0
H	0.009132	0.11468	-2.111638
H	-0.129186	-1.508692	-1.441531
N	-0.395578	1.430585	0.347143
O	-0.948547	2.072978	-0.537269
O	-0.080261	1.829374	1.458433
N	-0.533838	-0.908205	1.089981
O	-0.034793	-2.026808	1.128566
O	-1.480247	-0.487279	1.737407
N	-1.915825	-0.463494	-1.623629
H	-2.303782	0.4704	-1.648556
H	-2.511973	-0.979226	-0.985036
Br	-4.778119	0.0	0.0
