15
Coordinates from ORCA-job run
  C   0.89137132024162     -0.58086834360342      0.09703473236192
  C   -0.47070586283418     -0.02405421196808     -0.27563066197591
  F   0.92802295284404     -1.90632818668755     -0.37410097565365
  H   -0.59216946988579     -0.05467997738638     -1.36063755579709
  H   0.99328467826399     -0.64110553609913      1.18157766923262
  N   1.92008802137739      0.22172780842266     -0.44670407280114
  H   1.90586870103889      0.18876898756484     -1.45879130582532
  H   2.82874123553150     -0.08062025952845     -0.12254344651620
  C   -0.72589308080489      1.35815058614406      0.29323376239500
  H   -0.00465555241540      2.06101368148397     -0.12097685870425
  H   -1.73562010669804      1.69078248109044      0.04442851027690
  H   -0.61839256905229      1.34245216942959      1.37881629767664
  N   -1.51086031779994     -0.96518442636646      0.25173137886920
  O   -2.32481731750055     -1.41810836326642     -0.54781516813807
  O   -1.48526263230636     -1.19094640922968      1.45937769459935
