15
Coordinates from ORCA-job run
  C   1.02546546084895     -0.05081274674143     -0.26405988262722
  C   -0.50229248587885      0.01821246887991     -0.24898907516535
  F   1.45232446325411      0.42436478270454      0.99814528049592
  H   -0.88140602570148     -0.58913488883722     -1.07318271765089
  H   1.40498167772792      0.67771667720598     -0.98491284509610
  N   1.52512323466780     -1.32754311992164     -0.58206584569156
  H   2.53586029199862     -1.33674194325896     -0.57166412056272
  H   1.15909144302479     -2.03480553650670      0.04130693326640
  C   -1.01776437301688      1.43912895687207     -0.29535522450242
  H   -0.73799690147716      1.88579609196675     -1.25230200412710
  H   -0.58725737070793      2.02692118240369      0.51394407688965
  H   -2.10318024174822      1.46757068467539     -0.20527405867583
  N   -0.97879975163659     -0.68350477876880      0.99813072245689
  O   -0.78040017579423     -1.89813710387865      1.04761734236367
  O   -1.51274924556085     -0.02003072679494      1.87866141862667
