15
Coordinates from ORCA-job run
  C   0.79020243415324     -0.69761827930439     -0.21883346105675
  C   -0.54607789303477      0.01972666663711     -0.25692713630072
  F   0.68754215366882     -1.83110070645653     -1.00290347651276
  H   -0.82915961899409      0.15523642229937     -1.30060316231375
  H   1.00789897449989     -1.04125887147825      0.79958489354596
  N   1.80409858378027      0.14315051542060     -0.81458853335266
  H   2.21600175762383      0.74223933258698     -0.10939109643004
  H   2.53783474485409     -0.46020339273407     -1.16764801963987
  C   -0.53577784175496      1.32638332593417      0.51238732118467
  H   -0.20966829631224      1.16615585543139      1.54201289248737
  H   -1.53541831525870      1.76407492043972      0.53119967709486
  H   0.13340480663114      2.03111179826742      0.01790252825481
  N   -1.58068109081414     -0.88548755537084      0.33507489055859
  O   -1.38145467215891     -1.27342412512682      1.48553717576344
  O   -2.55874572688345     -1.15998590654586     -0.35480449328313
