15
Coordinates from ORCA-job run
  C   1.09323886143171     -0.04875782322072     -0.08894554882520
  C   -0.41980110299693      0.09385071445785     -0.28481251572418
  F   1.38929522716844      0.55082769548918      1.14690705700415
  H   -0.67839737954299     -0.36600566079624     -1.24035115766829
  H   1.58738817838826      0.58095957699095     -0.83609171057419
  N   1.55951431052874     -1.36726940358749     -0.14237822260541
  H   0.87721775508396     -2.10460437697163     -0.11036695509358
  H   2.35232688856796     -1.54566065818628     -0.72939158070158
  C   -0.89935576565097      1.52487590395338     -0.18809993869848
  H   -0.62989261936856      1.95103574018860      0.77503492876160
  H   -1.98212546903488      1.58004958590859     -0.30893993100268
  H   -0.43292518608792      2.11261005309014     -0.98223510683098
  N   -1.10800677645804     -0.76323628681265      0.74202030849701
  O   -1.19641119476489     -1.96557220601601      0.47725620035812
  O   -1.51106572726390     -0.23310285448768      1.77039417310369
