17

C	-0.491667	0.081278	-1.445953
C	0.0	0.0	0.0
Cl	-0.188847	-1.4877	-2.26686
H	1.091395	0.0	0.0
H	-1.576642	0.20905	-1.454351
C	0.219662	1.187517	-2.203221
H	1.300097	1.046231	-2.122639
H	-0.077857	1.189507	-3.253748
H	-0.034549	2.159377	-1.770763
C	-0.547969	-1.158034	0.811235
H	-1.633261	-1.232601	0.720033
H	-0.283481	-1.022665	1.862224
H	-0.085115	-2.081726	0.467545
N	-0.467396	1.276187	0.637634
O	-1.690553	1.420165	0.748199
O	0.365867	2.10047	0.999879
Br	3.579791	0.0	0.0
