17

C	-0.488554	-0.031647	-1.445351
C	0.0	0.0	0.0
Cl	0.099989	1.415416	-2.330943
H	1.09067	0.0	0.0
H	0.03378	-0.873916	-1.903408
C	-1.985851	-0.155193	-1.660618
H	-2.195288	-0.22475	-2.729829
H	-2.374096	-1.051447	-1.173278
H	-2.504008	0.711425	-1.255805
C	-0.461213	-1.212685	0.792919
H	0.015414	-1.192388	1.77515
H	-1.54198	-1.240094	0.922075
H	-0.123545	-2.119909	0.286493
N	-0.484049	1.240543	0.680641
O	-1.679325	1.276733	0.998226
O	0.313926	2.151171	0.872341
Br	3.570647	0.0	0.0
