17

C	-0.49009	0.058157	-1.448056
C	0.0	0.0	0.0
Cl	-0.173835	-1.522297	-2.243606
H	1.091408	0.0	0.0
H	-1.576848	0.178555	-1.460606
C	0.217537	1.157476	-2.221524
H	-0.075497	1.139271	-3.273233
H	-0.046334	2.136198	-1.807855
H	1.299834	1.024979	-2.133996
C	-0.549091	-1.144821	0.828855
H	-0.084838	-2.073348	0.501571
H	-0.287731	-0.99245	1.878512
H	-1.63417	-1.221436	0.736613
N	-0.468038	1.286332	0.61557
O	-1.691284	1.430578	0.725395
O	0.364785	2.118524	0.960855
Br	3.57798	0.0	0.0
