17

C	-0.475117	-0.013612	-1.452211
C	0.0	0.0	0.0
Cl	0.170838	1.417774	-2.317529
H	1.090699	0.0	0.0
H	0.030786	-0.86959	-1.904672
C	-1.97148	-0.089043	-1.693936
H	-2.399886	-0.967219	-1.206893
H	-2.163112	-0.159869	-2.766564
H	-2.469482	0.798282	-1.307197
C	-0.502716	-1.19458	0.792083
H	-0.193739	-2.114033	0.289272
H	-0.036572	-1.188432	1.779526
H	-1.58607	-1.183116	0.909833
N	-0.467212	1.252906	0.673147
O	0.354044	2.131309	0.9098
O	-1.673428	1.329219	0.940498
Br	3.568222	0.0	0.0
