17

C	0.0	0.0	0.0
C	-0.389285	0.584251	-1.374706
F	1.393151	0.0	0.0
H	-0.276537	-0.195124	-2.129934
H	-0.33178	-1.041697	0.029685
C	-0.522189	0.751116	1.197706
H	-1.612977	0.685348	1.219424
H	-0.122872	0.297677	2.108505
H	-0.214084	1.795694	1.155401
N	0.661899	1.587846	-1.765529
O	1.339081	1.343914	-2.76353
O	0.767658	2.602133	-1.07982
C	-1.740566	1.257792	-1.461358
H	-2.554623	0.606462	-1.130756
H	-1.92891	1.557931	-2.495121
H	-1.754905	2.139889	-0.824254
Cl	-4.541245	0.0	0.0
