17

C	0.0	0.0	0.0
C	-0.397445	-0.415793	-1.433248
F	1.395829	0.0	0.0
H	0.50803	-0.856405	-1.860064
H	-0.301881	-0.824499	0.65347
C	-0.585304	1.286787	0.515725
H	-0.232976	2.138558	-0.066142
H	-1.677837	1.219776	0.461585
H	-0.294126	1.427236	1.558976
N	-0.605806	0.803163	-2.294338
O	-1.675033	0.947433	-2.879144
O	0.351319	1.579403	-2.368086
C	-1.560412	-1.377604	-1.518033
H	-1.273192	-2.292582	-0.989053
H	-1.768403	-1.634735	-2.557784
H	-2.470739	-0.97217	-1.066854
Cl	-4.357614	0.0	0.0
