17

C	0.0	0.0	0.0
C	-0.380732	0.331698	-1.444757
F	1.391746	0.0	0.0
H	0.12778	-0.399366	-2.075099
H	-0.322247	-1.033117	0.169179
C	-0.541169	0.885514	1.090794
H	-0.239004	1.921585	0.943467
H	-0.154948	0.533237	2.050595
H	-1.6323	0.818743	1.10482
N	0.270046	1.626384	-1.840868
O	-0.162019	2.663546	-1.339812
O	1.190498	1.572986	-2.657899
C	-1.861741	0.389839	-1.737329
H	-2.375826	1.140223	-1.143186
H	-2.026772	0.598789	-2.797078
H	-2.345133	-0.555677	-1.488915
Cl	-4.697703	0.0	0.0
