15

C	0.0	0.0	0.0
C	-0.262245	-0.100555	-1.509235
F	1.364292	0.0	0.0
H	0.323391	-0.978342	-1.801505
H	0.238153	0.764738	-1.948365
N	-0.370379	1.377866	0.540596
O	-0.438282	1.485885	1.759935
O	-0.46009	2.296382	-0.267586
C	-0.543792	-1.089725	0.864257
H	-1.635758	-1.021732	0.852786
H	-0.162966	-0.979169	1.878388
H	-0.221333	-2.048572	0.45195
C	-1.555973	-0.234016	-2.176624
N	-2.322971	-0.394452	-3.052809
Cl	-3.611631	0.0	0.0
