15

C	0.0	0.0	0.0
C	-0.561816	-0.413045	-1.346577
F	1.365415	0.0	0.0
H	-0.494773	-1.503653	-1.412318
H	-1.630707	-0.153693	-1.345613
N	-0.322576	1.482254	0.254826
O	-0.696774	2.16451	-0.692039
O	-0.086307	1.892831	1.387487
C	-0.522677	-0.832937	1.134772
H	-0.166689	-1.857515	1.002316
H	-0.145112	-0.437014	2.076617
H	-1.615402	-0.804668	1.117885
C	0.147855	0.15857	-2.486428
N	0.70084	0.567812	-3.4366
Cl	-3.6902	0.0	0.0
