15

C	0.0	0.0	0.0
C	-0.544018	-0.278413	-1.388639
F	1.372279	0.0	0.0
H	-1.643329	-0.237436	-1.316714
H	-0.204943	0.494814	-2.078334
N	-0.340138	1.452496	0.36122
O	-0.385775	2.262849	-0.560516
O	-0.4283	1.725678	1.552419
C	-0.506453	-0.937381	1.055858
H	-1.59767	-0.885719	1.079712
H	-0.185907	-1.948294	0.797074
H	-0.090461	-0.657691	2.021789
C	-0.097043	-1.583862	-1.856216
N	0.280487	-2.629491	-2.233388
Cl	-3.678391	0.0	0.0
