15

C	0.0	0.0	0.0
C	-0.554491	0.202146	-1.396874
F	1.359165	0.0	0.0
H	-1.653528	0.208941	-1.304202
H	-0.222534	1.163542	-1.789957
N	-0.340044	1.249706	0.82944
O	-0.396367	2.322111	0.232982
O	-0.414956	1.106274	2.044666
C	-0.50632	-1.234	0.687855
H	-1.594023	-1.177408	0.763653
H	-0.220354	-2.100658	0.087862
H	-0.055911	-1.311206	1.675989
C	-0.110891	-0.867683	-2.282106
N	0.251511	-1.717567	-3.006372
Cl	-3.68154	0.0	0.0
