13
Coordinates from ORCA-job run
  C   -0.65014474361069      0.27809682168639     -0.39996217963163
  C   0.35105084319273     -0.27956404257219      0.36164492943488
  N   -0.78031450311906      0.30899269155047     -1.77749191155152
  H   -1.30321430580557      1.09804788756387     -2.12600911597574
  H   0.07270719389074      0.10927023089529     -2.27764684533342
  C   -1.76987160272065      0.77376532279991      0.34012394802430
  N   -2.66481133679704      1.19976298732351      0.97759214126950
  N   1.59643092000395     -0.69898404290431     -0.24304671297269
  O   2.52532755596146     -0.95858353336085      0.52593757599200
  O   1.67724047633460     -0.74156155171735     -1.47758732682942
  N   0.28516524405249     -0.55449170093432      1.71664019768830
  H   1.16277623032665     -0.40012796120976      2.19204518443970
  H   -0.50334197170961     -0.13262310912066      2.18576011544572
