13
Coordinates from ORCA-job run
  C   -0.62574845243766      0.33839193397324     -0.40457715823528
  C   0.37967980933416     -0.19190900012954      0.37175903376248
  N   -0.76156876136311      0.32412850262601     -1.78119913867880
  H   -1.35847150488915      1.04957204545386     -2.14669164826981
  H   0.10105114484650      0.18678763040617     -2.28458534294952
  C   -1.73630205759199      0.85450525006600      0.33351963072120
  N   -2.62580341211564      1.26893421441138      0.98582312549800
  N   1.55629776368257     -0.77275917263949     -0.23446900438785
  O   1.68897951063904     -0.70349275753055     -1.46322759545125
  O   2.36462477922137     -1.31814799777541      0.52241737458057
  N   0.44835866977300     -0.12582017039122      1.75506808650129
  H   -0.45037995880206     -0.04600412472213      2.20878613287993
  H   1.02128246970296     -0.86418635374832      2.13837650402905
