13
Coordinates from ORCA-job run
  C   -0.73199137854281      0.18136966271398     -0.30644431645470
  C   0.43075129484651     -0.20886314830369      0.31847618282062
  N   -1.06277054060079      0.11269547243520     -1.64858021691524
  H   -0.27801366344095     -0.01768891423990     -2.26909791671224
  H   -1.73470507730007      0.80313067052021     -1.94687995395493
  C   -1.78955963930310      0.57708853210690      0.57173565256203
  N   -2.63056088679904      0.92356155182108      1.32083889700190
  N   1.60873231366768     -0.53962462557199     -0.45032843396311
  O   1.50797040682490     -0.65454815664631     -1.67851000477895
  O   2.66445576674897     -0.66378611966600      0.17632643400645
  N   0.59962232272458     -0.38877235140672      1.68089189170652
  H   1.53574115401758     -0.16656266390563      1.98863880566207
  H   -0.11967207284346      0.04100009014288      2.24393297901958
