13
Coordinates from ORCA-job run
  C   -0.64482320187315      0.37847501579279     -0.36519558285121
  C   0.38505649654316     -0.14827581281958      0.37299258831185
  N   -0.86274389556786      0.30786337739726     -1.70558234646987
  H   -0.32115323862057     -0.37216243776563     -2.21590342031825
  H   -1.78390821824121      0.53833180349488     -2.03779491055624
  C   -1.58571621920361      1.19841469765089      0.35375268402863
  N   -2.41069016964716      1.87227739193536      0.85219431590607
  N   1.36426236859970     -1.02695368537994     -0.24960090274898
  O   1.27845257396310     -1.25660807895690     -1.46444537832781
  O   2.23089021317392     -1.50252912886123      0.48520649314894
  N   0.49321883080454      0.11674182692930      1.74248570373534
  H   0.51954620525457     -0.74213931468434      2.27879379705458
  H   1.33660825481458      0.63756434526713      1.95309695908694
