13
Coordinates from ORCA-job run
  C   -0.66370966042266      0.29005636112837     -0.38122030209945
  C   0.39975844790432     -0.17053551415236      0.36135720343190
  N   -0.82101760688401      0.31059039686477     -1.75612706936822
  H   -1.78131872964262      0.35995122198041     -2.05922954610389
  H   -0.25108401262357     -0.35913676430701     -2.24931618493988
  C   -1.67725814482718      0.95821016580473      0.37403396274729
  N   -2.49511090583939      1.49892073160631      1.02776522147475
  N   1.49754378289407     -0.86712040765913     -0.26959610112563
  O   1.44173868074166     -1.08741604280982     -1.48635999386216
  O   2.44291860827096     -1.19572254251639      0.45347450053636
  N   0.48136641841772     -0.13930811281256      1.74493999528531
  H   1.43337064701118     -0.23368313965089      2.06826698317993
  H   -0.00719752500048      0.63419364652356      2.17201133084368
