13
Coordinates from ORCA-job run
  C   -0.70682267059812      0.18995034130337     -0.35470765536836
  C   0.44176781431534     -0.11200791310291      0.34057334172023
  N   -0.95539994519411      0.08086279235878     -1.71483858267127
  H   -0.12474048976285      0.06435601861624     -2.28562813388904
  H   -1.68464636660025      0.69510212476934     -2.04473838129116
  C   -1.82414820067998      0.55692410416892      0.45753410164205
  N   -2.71886460967363      0.86437094499854      1.16040600358474
  N   1.63463227447693     -0.55344567053293     -0.35135031589377
  O   1.63952942730833     -0.55235049594498     -1.58854321195567
  O   2.57565381705160     -0.93394306841541      0.34921435284655
  N   0.63985400699052      0.06552157268581      1.69616651399591
  H   -0.19598529953740      0.23566117360819      2.23151466180212
  H   1.27617024190362     -0.60100192451297      2.10439730547767
