13
Coordinates from ORCA-job run
  C   -0.60342070455379      0.43687147837383     -0.33454064183858
  C   0.44702037708040     -0.23488972913068      0.21920058285081
  N   -1.82233729988278     -0.22227761849392     -0.45128562161149
  H   -1.70407763901615     -1.22105488411275     -0.58247645516579
  H   -2.45661286617500      0.19816944929913     -1.11439537462419
  C   -0.60369249364855      1.81888358824353     -0.69148752924684
  N   -0.75837363843174      2.93539599260682     -1.03277836220131
  N   1.77169393430661      0.35654136584643      0.35488148824225
  O   2.64375511549542     -0.37515768032611      0.83377237745989
  O   1.94471808726760      1.51114927699161     -0.02534187537486
  N   0.29319559740099     -1.56069661856074      0.60976723549353
  H   1.18808987884203     -1.98336848624611      0.81945393357977
  H   -0.34095834868503     -1.65856613449102      1.39523024243680
