13
Coordinates from ORCA-job run
  C   -0.65312677052766      0.19985171889506     -0.44003644476294
  C   0.38590769354873     -0.13902793733576      0.39566580599385
  N   -0.65805446878725      0.30449499706707     -1.81994710465429
  H   -1.37853928551616      0.90312628971390     -2.19139443859875
  H   0.25528012272794      0.43018569401972     -2.22699380426660
  C   -1.92011697165953      0.36643478030086      0.20085298194585
  N   -2.95100296925154      0.50974904269977      0.75391715464275
  N   1.71593408040861     -0.36164280250703     -0.12474898236565
  O   1.92470730076113     -0.16802214119693     -1.32944590273986
  O   2.56792842220890     -0.75733279096918      0.67538714120683
  N   0.32874353782036     -0.18202750599226      1.77900475395598
  H   0.98581949418505     -0.83853711551263      2.17359139538222
  H   -0.60348018591858     -0.26625222918259      2.15514744426059
