13
Coordinates from ORCA-job run
  C   -0.53230529053131      0.29767934512518     -0.45016832915265
  C   0.47194668280617     -0.20066403678923      0.32714144261391
  N   -1.73940740650344     -0.46897837757986     -0.44463427469507
  H   -1.73600021339604     -1.15915501951276     -1.18930966342661
  H   -2.54487462078690      0.13088073125643     -0.57058514820101
  C   -0.47385990107785      1.49671592156957     -1.21184432302637
  N   -0.59439131432843      2.47035824486635     -1.86688660051125
  N   1.77770119872331      0.46125005704679      0.43058151421442
  O   2.06943054477287      1.30576902488195     -0.41045091182300
  O   2.48378737610896      0.11571017513387      1.38014156581010
  N   0.38265710495350     -1.36777572606489      1.02097523850518
  H   1.01047335511761     -1.43521602889421      1.80812999203094
  H   -0.57715751585845     -1.64757431103920      1.17790949766139
