13
Coordinates from ORCA-job run
  C   -0.65026048999163      0.20427947781964     -0.40864782124373
  C   0.42791162246454     -0.10309157022714      0.38422913246672
  N   -0.83834703511783      0.00184416022740     -1.76980449230390
  H   -1.79301634056357      0.15160645427854     -2.06137034410245
  H   -0.39654452926729     -0.81978424491547     -2.15015033352237
  C   -1.68090715697481      0.96363230775979      0.23060367845718
  N   -2.53587743850299      1.56373121086093      0.76237735374596
  N   1.54261755830647     -0.85846390657470     -0.14840645971680
  O   2.55324508967839     -0.93524281227160      0.55407632458609
  O   1.43022425173346     -1.37190191828410     -1.26558156180453
  N   0.53008730852424      0.10818381252727      1.75230433148819
  H   -0.08320224256075      0.83452000114010      2.09593620880522
  H   1.49506940227176      0.26068702765934      2.02543398314440
