13
Coordinates from ORCA-job run
  C   -0.50253145313401      0.24844829248511     -0.51156663126576
  C   0.42818195797724     -0.14155107739487      0.40603258269184
  N   -1.70342374067564     -0.52808376918331     -0.52495548991846
  H   -2.40409133089829     -0.12571980469860      0.08923954988692
  H   -2.08948439075536     -0.57276331433245     -1.45951330038823
  C   -0.35009553886524      1.32207403032047     -1.43157153736241
  N   -0.35224556181308      2.15819469951551     -2.26334036163233
  N   1.71500952945742      0.55051049961511      0.54990302928053
  O   2.60345821594919     -0.08006902694913      1.12607660412786
  O   1.82148174224168      1.68186722973392      0.08623460993028
  N   0.23953497363440     -1.15349525779504      1.29554279782253
  H   1.09027235310920     -1.57598152959242      1.63551925426460
  H   -0.49606675622750     -1.78443097172431      1.00339889256263
