13
Coordinates from ORCA-job run
  C   -0.59619893701087      0.35100707494577     -0.43211890217823
  C   0.45372521846719     -0.27655110302224      0.19860614614572
  N   -1.66770616235716      1.02805256985969      0.12323705446636
  H   -2.10217444902660      1.69016267897838     -0.50073146660751
  H   -1.50746453648143      1.36496042703551      1.05980811281660
  C   -0.64269425810896      0.16401037064069     -1.84899705467831
  N   -0.64349089542657     -0.00537656689294     -3.01509401157959
  N   0.62125500884916     -0.18081776019469      1.63181470753622
  O   1.54462264133282     -0.82932050814068      2.13159447747621
  O   -0.17033262307016      0.51824374909970      2.27720103018174
  N   1.50238982126261     -0.92474316943967     -0.43692965744866
  H   1.26840810261214     -1.28735620679169     -1.34937584820243
  H   1.93966106895781     -1.61127155607783      0.16098541207190
