13
Coordinates from ORCA-job run
  C   -0.50805377612336      0.30731217309952     -0.53335054484202
  C   0.41119407356617     -0.11496380100636      0.38530581170812
  N   -1.63811331179684     -0.44455015276732     -0.87348516997866
  H   -2.50753753056774      0.06661262634049     -0.89255007601697
  H   -1.71750682824082     -1.34667600144035     -0.43387437525299
  C   -0.39820067850557      1.52681662604338     -1.26848178654285
  N   -0.46310285862855      2.50657366565695     -1.91882530325690
  N   1.73218640214422      0.51159373808273      0.47999893078200
  O   2.60453818879565     -0.17536294698026      1.01533431318292
  O   1.89119908332683      1.63746234293694      0.01918855614828
  N   0.24999457643577     -1.14380468774036      1.28393499610099
  H   -0.67029014334012     -1.53841709627308      1.36534167541666
  H   1.01469280293437     -1.79359648595228      1.36946297255143
