13
Coordinates from ORCA-job run
  C   -0.51129745844451      0.28171010946915     -0.57054164640839
  C   0.38995357318354     -0.13471701537424      0.36529897047434
  N   -1.61949378211871     -0.51971830525304     -0.82271638887933
  H   -1.91493192857962     -1.03289757261293      0.00076549131672
  H   -2.37542430179674     -0.04385859445992     -1.29222390961244
  C   -0.35503840614815      1.41842055820344     -1.41965780186159
  N   -0.37198148050720      2.31716770939467     -2.18069519879651
  N   1.56158639976596      0.65005835581288      0.72924448697806
  O   2.26051154437236      0.18904870484465      1.63707613572645
  O   1.77034295075575      1.70710757398262      0.14020364138581
  N   0.15999017601722     -1.30873568542149      1.07390465901564
  H   0.21114785188357     -2.13137299728227      0.48294982320948
  H   0.79463486161654     -1.39121284130352      1.85739173745175
