13
Coordinates from ORCA-job run
  C   -0.55799772709426      0.33154899093269     -0.49527301321830
  C   0.41759320994236     -0.16643072822374      0.31818363119413
  N   -1.76478433632087     -0.35504609727906     -0.57638987734155
  H   -1.64398624663889     -1.35358885307256     -0.44566537935487
  H   -2.31919486377416     -0.12038632973719     -1.38656238296398
  C   -0.50253673442554      1.58282037203499     -1.17951066915125
  N   -0.60418670416036      2.57775335989965     -1.80142036801697
  N   1.72760537442514      0.45896841144326      0.44419869391294
  O   2.53411967352074     -0.11964106389538      1.17895976506183
  O   1.95420683039950      1.48726769171301     -0.18726471172591
  N   0.20691716430387     -1.35677819704444      1.00529469190070
  H   1.06750668803727     -1.69769949477870      1.41340119158121
  H   -0.51526232821479     -1.26978806199254      1.71204842812203
