13
Coordinates from ORCA-job run
  C   -0.56341684736102      0.31394384926866     -0.49384806605782
  C   0.37250384617192     -0.08943520307922      0.43055305302469
  N   -0.42710800667767      0.45613704878906     -1.86424880495824
  H   -1.28348897585756      0.32038601133806     -2.37991167609984
  H   0.37813440268607     -0.01437170818847     -2.24933902536462
  C   -1.80226930065187      0.77123031763285      0.05708018001018
  N   -2.82134389466525      1.11367268054471      0.53973732227768
  N   1.61414684085308     -0.70235271963391      0.01100508100060
  O   2.28075949733358     -1.25750970549819      0.88775602009201
  O   1.92193626990167     -0.66987465385477     -1.18747026410524
  N   0.28761829167658      0.08176194002733      1.80150665541038
  H   -0.62351689446809      0.37217454320797      2.12596603984053
  H   0.66604477105857     -0.69776240055408      2.32021348492970
