13
Coordinates from ORCA-job run
  C   -0.61354386677429      0.24913282539716     -0.43382616897331
  C   0.36539753079160     -0.18152598559896      0.40362225188969
  N   -0.38921580497528      0.33517575218925     -1.83287305924253
  H   -0.83328252940287     -0.42364474849784     -2.33407258361729
  H   -0.69592296064230      1.22335893702505     -2.20006630735871
  C   -1.85851850886612      0.60102295661128      0.18172881049477
  N   -2.84503834588346      0.87707783639301      0.76443268205381
  N   1.68657724884588     -0.52157244926569     -0.13858315569348
  O   1.75181078461152     -1.36601436623778     -1.02162418705274
  O   2.63011965960431      0.06076758931531      0.39890112833892
  N   0.28083550372042     -0.44647151006372      1.74149369564975
  H   1.10776668867037     -0.21982882040285      2.27625653540749
  H   -0.58598539969980     -0.18747801686422      2.19261035810364
