13
Coordinates from ORCA-job run
  C   -0.56239570937460      0.34645970086107     -0.47260938056734
  C   0.43253876020335     -0.17939939237875      0.29880622533225
  N   -1.78574457665006     -0.32273184047480     -0.50565636695232
  H   -2.37814351921659     -0.04873550438163     -1.27581282750036
  H   -1.66894421583773     -1.32840224447477     -0.43899459660754
  C   -0.51161093188480      1.60535901405246     -1.13956843177572
  N   -0.62363834161060      2.61775121089126     -1.73132378915132
  N   1.76224174492972      0.40875295105995      0.37256549066712
  O   2.56893645290581     -0.16675706382886      1.10975565370081
  O   2.00253518325435      1.40759712826970     -0.29997691716831
  N   0.22753568714725     -1.36493491976558      0.98987393286760
  H   1.07624411248843     -1.67651289884166      1.44346788190912
  H   -0.53955464635455     -1.29644614098840      1.64947312524601
