13
Coordinates from ORCA-job run
  C   -0.58946172184475      0.34521971936963     -0.44262880060332
  C   0.45782652440899     -0.26646690202402      0.20850338670618
  N   -1.71071643181759      0.95437585579848      0.09280618022199
  H   -1.60458006442706      1.25320205558788      1.04981114748692
  H   -2.14695271426077      1.62427517001242     -0.52124271634527
  C   -0.57014749780316      0.22076565772465     -1.86656142500076
  N   -0.53125820066715      0.11063288334338     -3.03910472867846
  N   0.55827296212754     -0.23440348467738      1.64920862715033
  O   -0.28315826499256      0.41077635727933      2.28883356853386
  O   1.48549703753809     -0.86808147254471      2.16221788733605
  N   1.55912283265943     -0.84196791763157     -0.40779014536801
  H   1.99568612598424     -1.54333043608242      0.17266911468111
  H   1.38186941309474     -1.16499748615568     -1.34772209612063
