13
Coordinates from ORCA-job run
  C   -0.70927602863904      0.16391266136008     -0.36601519241189
  C   0.52049745650974     -0.16619360725960      0.15652379278386
  N   -1.74831592903110      0.86125115423969      0.22532847133664
  H   -2.65110168642025      0.68143537027661     -0.18563841884238
  H   -1.73001729614081      0.86445553316346      1.23316417738129
  C   -0.87953051387230     -0.15357721196296     -1.74950033901913
  N   -0.98992020860255     -0.43513210475771     -2.88851958944628
  N   0.83830160748675      0.11466219432176      1.53862127637490
  O   -0.03796134684329      0.60412538650614      2.26249219430811
  O   1.98796831258854     -0.13760710653659      1.90999582345910
  N   1.50597848470258     -0.88735425413630     -0.50077688837176
  H   1.46673915472192     -0.81406516116172     -1.50724720034188
  H   2.42563799353981     -0.69691285405284     -0.12842810721062
