13
Coordinates from ORCA-job run
  C   -0.57032945580122      0.33786682522887     -0.47647227570804
  C   0.42694787302932     -0.17122310580895      0.30335567894691
  N   -1.78466760042585     -0.33823033140387     -0.52072531904515
  H   -1.66940842600290     -1.33806666848304     -0.39673115447599
  H   -2.36484658481344     -0.09416004812915     -1.30966630776150
  C   -0.52662427591538      1.59066495017305     -1.15879505093923
  N   -0.64055268162798      2.58871879473222     -1.77355330709413
  N   1.74550997869270      0.44208020676106      0.38937235089127
  O   1.96275225186040      1.46686190800274     -0.25121116918741
  O   2.56834348673692     -0.14241513884095      1.10105222778350
  N   0.22704678838119     -1.36142887846537      0.99411766958344
  H   1.09679981302091     -1.71151118199426      1.37395976637769
  H   -0.47097116713466     -1.26915733177235      1.72429689062865
