13
Coordinates from ORCA-job run
  C   -0.50431402115205      0.25978546190774     -0.50493949373068
  C   0.43010580225631     -0.14404215960785      0.40336569195445
  N   -1.72191637792211     -0.48789059167582     -0.49544176449568
  H   -2.13010404821581     -0.52366618056964     -1.42059231265579
  H   -2.39947129073898     -0.07643126597395      0.13810401642438
  C   -0.33402243179009      1.30423068980566     -1.45434878866141
  N   -0.32509610901959      2.11152662868368     -2.31430799811632
  N   1.73083102560596      0.52258503939751      0.52778719628601
  O   2.60942040640222     -0.11554033854452      1.11132844731982
  O   1.85817169398896      1.64381124173577      0.04600173033076
  N   0.22801102580669     -1.14642668459040      1.30204307436871
  H   -0.51687162107672     -1.76996791140517      1.01771352383906
  H   1.07525594585523     -1.57697392916301      1.64228667713670
