13
Coordinates from ORCA-job run
  C   -0.72255703548044      0.10381714102115     -0.35461539291196
  C   0.42624236184297     -0.11044148091437      0.37144545687591
  N   -1.08745695949428     -0.42762104743437     -1.58028589085906
  H   -0.31945247891651     -0.82442727873415     -2.10063044201897
  H   -1.70136432241835      0.16523287603232     -2.11809918244313
  C   -1.73123848297913      0.86677576400477      0.31448759634356
  N   -2.53538145459762      1.51710223802492      0.87927381753278
  N   1.57534676915733     -0.75410318418615     -0.22806227697569
  O   1.44979757126476     -1.28928692008889     -1.33704999315989
  O   2.63378383370160     -0.69476730738185      0.40239443873549
  N   0.60688155153232      0.18106493027977      1.71227736288759
  H   -0.12830439468574      0.74207693513790      2.11703700497874
  H   1.53370304107307      0.52357733423895      1.92182750101465
