13
Coordinates from ORCA-job run
  C   -0.67371888826399      0.19863331113769     -0.43499543006151
  C   0.46998344582815     -0.22790019156147      0.20087402798197
  N   -1.51484469423924      1.24433057572083     -0.10434207343552
  H   -1.47356733580344      1.52608702468456      0.86260347743407
  H   -2.44496932142813      1.16055960669813     -0.48506916221595
  C   -0.92770084471978     -0.42543183695284     -1.69532143932495
  N   -1.10719756253009     -0.93645309568088     -2.74089569255953
  N   0.80120883045935      0.24772115963949      1.52297263378275
  O   1.80462823331182     -0.23377458011651      2.05990138389989
  O   0.06903676940398      1.09707077571672      2.04939986529301
  N   1.31337964867131     -1.21200235759744     -0.29449384123473
  H   2.10167799667061     -1.36094476259461      0.31813809622901
  H   1.58208372263945     -1.07789562909366     -1.25777184578850
