13
Coordinates from ORCA-job run
  C   -0.61792636069209      0.29657192558941     -0.41120971429823
  C   0.42394526057438     -0.33186500515035      0.23364281523945
  N   -1.68186072919013      0.97947467313194      0.15127957279095
  H   -1.48270111631294      1.49124446403310      0.99460042705219
  H   -2.29409149045446      1.43268279525037     -0.50177238676673
  C   -0.66295623955999      0.09859604389165     -1.82592049192682
  N   -0.64726069564173     -0.05373807903876     -2.99433396379511
  N   0.67770812841441     -0.09485823008897      1.63605650173249
  O   -0.05242271406681      0.70877071406481      2.23668588623533
  O   1.66046478893793     -0.65454319803021      2.12839661402850
  N   1.27551142087101     -1.26385562944073     -0.32428131986972
  H   2.23249050130009     -1.20514012148927     -0.00466449465695
  H   1.16909924582034     -1.40234035272298     -1.31947944576535
