13
Coordinates from ORCA-job run
  C   -0.53584831619390      0.31470046260340     -0.56399870562210
  C   0.39102745239194     -0.18115322845307      0.30574882117826
  N   -1.65897527881174     -0.41654450243773     -0.87176590342498
  H   -1.75117874420874     -1.26333421861352     -0.32868557242284
  H   -2.50138212718853      0.10974075231352     -1.03277954537648
  C   -0.41640890887194      1.55114426885292     -1.26715014787701
  N   -0.47621155767507      2.54170177903190     -1.89747155225817
  N   1.69696356458735      0.45108686192047      0.49025909415017
  O   2.52020818291436     -0.20272677590027      1.13647955935914
  O   1.89777992460039      1.55980715582544      0.00699469299514
  N   0.14540302727507     -1.38317217569419      0.97968004622351
  H   1.01132483692351     -1.86288421728394      1.17054798559061
  H   -0.32170205574270     -1.22036616216494      1.87114122748475
