13
Coordinates from ORCA-job run
  C   -0.60461197027163      0.38503467622988     -0.36863295518309
  C   0.44495850069443     -0.21894801724037      0.26335259297383
  N   -1.83587901511273     -0.24790293100231     -0.55779343304836
  H   -2.63692757664858      0.36407328695281     -0.52031091298257
  H   -1.98642834341487     -1.08119468576996     -0.01249253015517
  C   -0.52890308466037      1.67391018897584     -0.98000277369309
  N   -0.61133109867578      2.77853152029857     -1.38370622014064
  N   1.75135381560455      0.42478136646409      0.32474955101237
  O   2.69909052003446     -0.31044533543200      0.63245332375610
  O   1.82434367432499      1.64602461225185      0.21863170023197
  N   0.42113972449936     -1.45147929729166      0.88215701532522
  H   1.33762037696638     -1.86616997196839      0.95419158419740
  H   -0.27342552334021     -2.09721541246835      0.54740305770601
