13
Coordinates from ORCA-job run
  C   -0.52749805833252      0.29533843320581     -0.55560038957145
  C   0.38998737894312     -0.14685983815671      0.35167290714350
  N   -1.66377265900834     -0.46575305069872     -0.78596177724099
  H   -2.43541900577625      0.04908803965979     -1.18419600004098
  H   -1.91531502403389     -1.02363206197927      0.02316053965529
  C   -0.36084859812521      1.42862979735085     -1.41026338344828
  N   -0.37203340827035      2.32729877897085     -2.17087104646118
  N   1.59888625159057      0.60455123236618      0.67131703326166
  O   1.82556094789029      1.64742488292374      0.06440627229566
  O   2.30538803142467      0.13279388103001      1.56742497599898
  N   0.14384539066910     -1.32132813732295      1.06245937823852
  H   0.26943328248622     -2.14855542573489      0.48851824657308
  H   0.74178547054258     -1.37799653161467      1.87693324359619
