13
Coordinates from ORCA-job run
  C   -0.58965436271709      0.38155623158682     -0.41689515356548
  C   0.44100726530334     -0.20276428427051      0.25979017219552
  N   -1.85191133817570     -0.19451599456928     -0.32273083046093
  H   -2.49165732010594      0.09155204187214     -1.04911161796139
  H   -1.80299951942157     -1.20024030850450     -0.20009682360175
  C   -0.51710641685342      1.62112710933619     -1.12011060917007
  N   -0.61160670992232      2.62007999470925     -1.73693777427556
  N   1.80627140339667      0.30183911407183      0.19762129632012
  O   2.03526978621129      1.30435333425232     -0.47330527139318
  O   2.65102665239668     -0.34611135772565      0.82349415970280
  N   0.22183783054718     -1.37012753416550      0.98284656196100
  H   1.09659989945615     -1.78614323499003      1.27463277416365
  H   -0.38707717011528     -1.21960511160308      1.77980311608526
