13
Coordinates from ORCA-job run
  C   -0.59568571378956      0.39058885335045     -0.39932565713973
  C   0.44117102048325     -0.20367804269260      0.25882364206851
  N   -1.75260087202977     -0.34977572332022     -0.61624850327062
  H   -2.56575739897241      0.20877837347833     -0.82976495242487
  H   -1.91160662787192     -1.03142301306639      0.11780011467531
  C   -0.55475598132497      1.67929146037414     -1.01158301819762
  N   -0.67528223881304      2.71449859279480     -1.56005931230421
  N   1.68059034468514      0.49847022275247      0.56514988224839
  O   2.51938597368614     -0.14096483110470      1.20752944841201
  O   1.80648857053783      1.66263328768540      0.19571339555905
  N   0.30647507293022     -1.50413214525481      0.73285648717575
  H   1.06408259579634     -1.74230869627115      1.35951369172851
  H   0.23749525468275     -2.18197833872572     -0.01840521853047
