13
Coordinates from ORCA-job run
  C   -0.52715088498912      0.26988872667743     -0.56281152726495
  C   0.40086339785423     -0.13373568318992      0.35213995063058
  N   -1.73705839410240     -0.41215178809051     -0.62348289421452
  H   -2.00882034491904     -0.78673227265796      0.27903049419185
  H   -2.47521268403658      0.09662857031981     -1.08723219583564
  C   -0.31814491506497      1.26104101895805     -1.56857239002947
  N   -0.30078570232436      2.04958131703509     -2.44312122048331
  N   1.68391183759085      0.53726293710591      0.51520896555477
  O   2.41008471292509      0.10369125058091      1.41510966639794
  O   1.95283486610056      1.48397452769759     -0.21904423098899
  N   0.10468672883209     -1.17475452524256      1.22594295218116
  H   0.02498603801998     -2.06612300455433      0.74863434046945
  H   0.78880534411369     -1.22957107463952      1.96919808939113
