13
Coordinates from ORCA-job run
  C   -0.58069826275092      0.37114881976660     -0.43871502308346
  C   0.43071038112315     -0.19106229164745      0.28396495775575
  N   -1.73429087511444     -0.37426983015290     -0.65386068698236
  H   -1.91817466498035     -1.01866130693974      0.10750936864719
  H   -2.53764321696922      0.17547426891798     -0.92057135597969
  C   -0.51250997378618      1.62498773855250     -1.11781045593790
  N   -0.60838994400110      2.62873022414033     -1.72626447210486
  N   1.66398444112361      0.52097808234793      0.59088550433539
  O   2.47620204452428     -0.08440107418966      1.29734317926734
  O   1.81063482787298      1.66153594817088      0.16028423197888
  N   0.27228192858495     -1.46421420576974      0.82191193224408
  H   0.23492975752488     -2.18087011682366      0.10516474341815
  H   1.00296355684835     -1.66837625637309      1.49115807644149
