13
Coordinates from ORCA-job run
  C   -0.65391791176378      0.24858223324333     -0.44998370004784
  C   0.33713825891800     -0.10894865427101      0.42922529745118
  N   -0.82846472408382     -0.12948925410431     -1.74427867758222
  H   -1.46277965374917      0.41424492231891     -2.30472600653788
  H   -0.04407664623643     -0.57413783688131     -2.19519881343147
  C   -1.71125506076817      1.06791651764057      0.08394999637072
  N   -2.61115395672457      1.74658658703631      0.41988608802458
  N   1.47659377165929     -0.89302280134094     -0.02301360059071
  O   1.50940095783791     -1.28062726511943     -1.19985126095331
  O   2.35869132903000     -1.12115253117973      0.80582297648748
  N   0.29337392631188      0.30687027171456      1.76462995027911
  H   0.19859098567082     -0.48146630366662      2.39424632462712
  H   1.13885872389803      0.80364411460966      2.01829142590325
