13
Coordinates from ORCA-job run
  C   -0.57665703658792      0.42136831230302     -0.39566931386606
  C   0.42931157794043     -0.22447127460712      0.26176840586897
  N   -1.73516581766866     -0.28832470702611     -0.69221678152177
  H   -1.92819156913523     -1.00671492947307     -0.00270314534995
  H   -2.53314708537490      0.29317563438410     -0.90161092389282
  C   -0.49780958185445      1.74171109073413     -0.93202697498749
  N   -0.58693342023138      2.80793438370736     -1.42417763130869
  N   1.66713369119066      0.44026691087737      0.64743077942266
  O   2.47610749268689     -0.24737110953236      1.27818299227301
  O   1.82060220739776      1.62150356751541      0.34948154193490
  N   0.26161420078238     -1.54740946158556      0.65644407370639
  H   0.99583159837791     -1.83241043408753      1.29136628421393
  H   0.20730374247653     -2.18025798320964     -0.13426930649308
