13
Coordinates from ORCA-job run
  C   -0.59081644524310      0.38003906995713     -0.32745149063050
  C   0.49375702986730     -0.22376831735585      0.24013052601667
  N   -1.75512013611936     -0.42554716845280     -0.42880562140927
  H   -1.65689667480994     -1.14089102885663     -1.14175720450044
  H   -2.57990287821340      0.12797336834929     -0.61402259974597
  C   -0.64638351750765      1.73253482129571     -0.76098801083520
  N   -0.85884724450756      2.83528453883892     -1.12136039369913
  N   1.78320822631730      0.44795490059549      0.38608217038018
  O   2.61516289852576     -0.12352544455302      1.09486925570310
  O   1.95242426477382      1.51723817608636     -0.19335644289099
  N   0.48005084482869     -1.52810693639031      0.64949315779817
  H   1.21025508872684     -1.75866819183548      1.30757788141762
  H   -0.44789145663869     -1.83951778767880      0.90958877239575
