13
Coordinates from ORCA-job run
  C   -0.62566483969623      0.45931524166515     -0.25441085717224
  C   0.46337675460221     -0.25196836911449      0.15710094535878
  N   -1.88234599325774     -0.12182907853886     -0.12414648025707
  H   -1.84383432267155     -1.13177248750180     -0.21040355142298
  H   -2.59552490012301      0.30351563460063     -0.69812809858516
  C   -0.60723726626216      1.81791627741229     -0.69163585646073
  N   -0.75342175484759      2.92275114595230     -1.07246441174116
  N   1.82400780473470      0.25332085492930      0.02882222531484
  O   1.99591587761836      1.37267268616733     -0.44570869284365
  O   2.72150071580309     -0.51126800776700      0.39640537187732
  N   0.30243446051981     -1.54277180115642      0.64882661745214
  H   -0.19463866607039     -1.55829369760832      1.53278155156585
  H   1.19443212965051     -2.01258839904012      0.73296123691405
