13
Coordinates from ORCA-job run
  C   -0.55798798558930      0.32409234040810     -0.50057118238246
  C   0.41956120336332     -0.16456538765071      0.31616080272934
  N   -1.75217969767873     -0.38145586672149     -0.59830341517973
  H   -1.97495690796770     -0.87332424349796      0.26029394165443
  H   -2.52205053312959      0.15945998948305     -0.96375717309544
  C   -0.41784717851327      1.43967621258351     -1.37989655981898
  N   -0.45741453718869      2.33182340161766     -2.14767887095409
  N   1.69140117284821      0.51881654191407      0.51228119068566
  O   2.46949344582560     -0.00713977386104      1.31417970533952
  O   1.90086723871468      1.56321060233084     -0.09839161327106
  N   0.18907827166477     -1.31767251233289      1.05889185466163
  H   0.10193954187762     -2.14093544061421      0.47294312553033
  H   0.91109596577307     -1.45098586365893      1.75484819410085
