13
Coordinates from ORCA-job run
  C   -0.53535899958382      0.33785045178988     -0.44908407571811
  C   0.45107793889981     -0.19069359688067      0.33167113993454
  N   -1.70399652485724     -0.45429644261520     -0.57960293280147
  H   -2.31317322718139     -0.11526496080066     -1.31067903081702
  H   -2.21527534805288     -0.51759337108428      0.29458482863960
  C   -0.45229369086754      1.55605182453102     -1.17610049303693
  N   -0.52345432685121      2.51979622928704     -1.85207167146136
  N   1.70140582356695      0.51513640258550      0.59754793513849
  O   1.78218561276155      1.69875662161452      0.28161138683027
  O   2.59760972603586     -0.15131879851010      1.12205042265491
  N   0.31190420103037     -1.38834346761831      0.98132322927666
  H   1.19183518045521     -1.78289725617971      1.28209958284265
  H   -0.29346636535567     -2.02518363611903      0.47664967851776
