13
Coordinates from ORCA-job run
  C   -0.60508740729006      0.21601085685401     -0.43634449513978
  C   0.48277547505989     -0.27439075155600      0.21234233960953
  N   -1.62247333471070      0.90206613730514      0.28243035877190
  H   -1.58313790039901      1.90067461912109      0.12033761294908
  H   -2.53882362096992      0.56156566989258      0.02273592972123
  C   -0.68587648124432     -0.01661347491100     -1.84393814018192
  N   -0.74115391289072     -0.22523901726950     -3.00342254497797
  N   0.60746468383402      0.00148890962339      1.65020044826540
  O   0.58716395994276     -0.97097745209516      2.39968665335491
  O   0.75379688712746      1.17737326909088      1.97096847484455
  N   1.47120583039243     -1.07999255821624     -0.26838819019108
  H   1.49526023910772     -1.19567837537070     -1.27110116375507
  H   2.37788558204045     -0.99628783246849      0.16449271672922
