13
Coordinates from ORCA-job run
  C   -0.55267990912135      0.37893780199992     -0.35746182603610
  C   0.50157333614332     -0.21484982506371      0.26466485598378
  N   -1.73272798958410     -0.37760875922869     -0.46186235820591
  H   -1.62409323509967     -1.22374752918502     -0.99357574891806
  H   -2.53125992567342      0.15268688512981     -0.75408659062255
  C   -0.67519560069968      1.73168711705516     -0.76886138868815
  N   -0.88371267745639      2.85068776680172     -1.07543629268063
  N   1.79301903571461      0.41625764035238      0.34704526004953
  O   1.99450843153002      1.44981837858916     -0.27512893295644
  O   2.61108953866524     -0.11515385761569      1.10210772752707
  N   0.46766895789537     -1.51848397094752      0.68384797892241
  H   -0.47778388678471     -1.82520099926126      0.86484218118133
  H   1.11059392447074     -1.70603064862625      1.42290513444371
