13
Coordinates from ORCA-job run
  C   -0.62762398355029      0.43793173767615     -0.28580584996392
  C   0.46261633196804     -0.23605192307191      0.18152558111449
  N   -1.86030873416656     -0.20517180608748     -0.26906957109777
  H   -2.54920270585884      0.20738847771819     -0.88069141647868
  H   -1.76809380019257     -1.20878505544491     -0.38280413197499
  C   -0.64499323443528      1.81117243124661     -0.67483631927468
  N   -0.81726402720203      2.92106746601423     -1.02896111200294
  N   1.80150488780212      0.33871486629811      0.17490155640991
  O   1.95129237587845      1.48180791169892     -0.24767155632015
  O   2.70655013965223     -0.39461750291289      0.58515025250266
  N   0.33037709587828     -1.55032941632137      0.61701161321683
  H   1.23613774021686     -1.98163695882639      0.74708602735690
  H   -0.22299208599042     -1.62049022798726      1.46416492651234
