13
Coordinates from ORCA-job run
  C   -0.57287512471579      0.36517894473829     -0.45271488477985
  C   0.42854797776041     -0.18888995151083      0.28991796232304
  N   -1.75460104994674     -0.35206832367370     -0.60794063796755
  H   -2.54085423420435      0.20869165257684     -0.90161670538798
  H   -1.95394360001889     -0.93483634725947      0.19800490929753
  C   -0.47057397467196      1.57266434189282     -1.20661756586268
  N   -0.54131873686222      2.54205465818462     -1.87168975116179
  N   1.69009744812752      0.49570521311191      0.53977785110574
  O   1.86642877972590      1.60675121246655      0.04770220609937
  O   2.49469968837232     -0.10026303155376      1.26269410406578
  N   0.23518922643473     -1.42103134457970      0.90449959633424
  H   0.97693317898280     -1.61884331301086      1.56333597645677
  H   0.14227042101626     -2.17511371138272      0.23264693947738
