16

C	-0.427533	-0.016997	-1.451275
C	0.0	0.0	0.0
Br	-2.404097	-0.02497	-1.580358
H	1.094122	0.0	0.0
H	-0.126649	-0.962972	-1.897818
C	0.146847	1.167515	-2.194202
H	-0.218415	2.098507	-1.762293
H	-0.111593	1.125682	-3.254217
H	1.235353	1.132922	-2.079096
N	-0.384472	-1.337269	0.638476
O	-0.911775	-1.314682	1.750198
O	-0.105358	-2.355982	0.015047
N	-0.46255	1.125445	0.72715
H	0.111789	1.254364	1.548804
H	-1.426282	1.008415	1.010541
Br	3.45174	0.0	0.0
