16

C	-0.423529	-0.20457	-1.438302
C	0.0	0.0	0.0
Br	-2.400119	-0.223378	-1.570323
H	1.099496	0.0	0.0
H	-0.124489	-1.201094	-1.756725
C	0.155945	0.871674	-2.327318
H	-0.20509	1.852206	-2.019359
H	1.244201	0.847366	-2.207041
H	-0.101865	0.695038	-3.373719
N	-0.400486	-1.236148	0.806665
O	-0.122797	-2.332527	0.32999
O	-0.958759	-1.060232	1.889552
N	-0.457577	1.215693	0.569229
H	0.115753	1.446586	1.369381
H	-1.421432	1.13971	0.867029
Br	3.451593	0.0	0.0
