16

C	-0.507321	-0.004677	-1.446947
C	0.0	0.0	0.0
Br	0.202802	-1.538365	-2.437397
H	1.090007	0.0	0.0
H	-0.031727	0.861533	-1.913304
C	-2.014644	0.031249	-1.644106
H	-2.478542	-0.885588	-1.281269
H	-2.461748	0.875526	-1.110909
H	-2.243224	0.142462	-2.705863
N	-0.521778	-1.222891	0.70341
O	-1.697194	-1.171409	1.077967
O	0.219709	-2.188797	0.842255
N	-0.408227	1.145679	0.765126
H	0.284898	1.877333	0.67205
H	-1.3377	1.476959	0.548202
Br	3.53741	0.0	0.0
