16

C	-0.567614	-0.001179	-1.420296
C	0.0	0.0	0.0
Br	-0.066908	-1.607459	-2.414559
H	1.090104	0.0	0.0
H	-0.042717	0.812264	-1.922211
C	-2.070607	0.191628	-1.50668
H	-2.380737	0.258854	-2.550965
H	-2.342069	1.121979	-1.00373
H	-2.603198	-0.636597	-1.038573
N	-0.479477	-1.238231	0.742386
O	-1.58928	-1.162721	1.28724
O	0.23005	-2.236376	0.738099
N	-0.425629	1.201738	0.661531
H	-1.318611	1.057136	1.112914
H	0.269289	1.450264	1.352181
Br	3.512503	0.0	0.0
