15

C	0.0	0.0	0.0
C	-0.487663	0.063431	-1.448191
Br	1.945258	0.0	0.0
H	0.011615	-0.695347	-2.052128
H	-1.555208	-0.165336	-1.38627
N	-0.502393	0.997246	0.860209
H	-0.416981	1.865548	0.337031
H	-1.506411	0.803512	0.96015
N	-0.353163	-1.377854	0.577217
O	-0.567213	-1.458058	1.776188
O	-0.345315	-2.314445	-0.214617
N	-0.292757	1.42678	-1.939428
H	-1.150138	1.760276	-2.353359
H	0.441264	1.460248	-2.631059
Cl	-3.595897	0.0	0.0
