15

C	0.0	0.0	0.0
C	-0.535793	-0.140789	-1.419661
Br	1.93521	0.0	0.0
H	-0.364579	0.839645	-1.870357
H	-1.617586	-0.275591	-1.299287
N	-0.543288	1.135768	0.617041
H	-0.323379	1.127051	1.606096
H	-1.56419	1.070662	0.506542
N	-0.321645	-1.295258	0.825366
O	-0.497348	-2.347563	0.222066
O	-0.344476	-1.16461	2.04361
N	0.123442	-1.153637	-2.23772
H	-0.128843	-0.981206	-3.203381
H	-0.246111	-2.057743	-1.976639
Cl	-3.65909	0.0	0.0
