15

C	0.0	0.0	0.0
C	-0.648289	0.191367	-1.381283
Br	1.981288	0.0	0.0
H	-1.425729	-0.574011	-1.442433
H	0.094939	0.011807	-2.160624
N	-0.538285	0.845215	0.922809
H	-0.795153	1.742526	0.537091
H	-0.188078	0.804081	1.862745
N	-0.220175	-1.458198	0.474264
O	-0.257123	-1.640691	1.683548
O	-0.275634	-2.327081	-0.386924
N	-1.227527	1.52806	-1.473546
H	-1.199485	1.846641	-2.432601
H	-2.206501	1.420196	-1.19101
Cl	-3.792668	0.0	0.0
