15

C	0.0	0.0	0.0
C	-0.48268	0.011392	-1.466017
Br	2.003859	0.0	0.0
H	-0.511236	-1.03154	-1.797977
H	0.278951	0.527326	-2.0519
N	-0.501766	1.05129	0.729643
H	-0.603922	0.844673	1.712503
H	-1.34051	1.414198	0.278519
N	-0.28021	-1.376086	0.68744
O	-0.255693	-2.385762	-0.003056
O	-0.46166	-1.342785	1.899302
N	-1.718866	0.756265	-1.569931
H	-1.907604	1.008389	-2.529018
H	-2.540962	0.27933	-1.185903
Cl	-4.391259	0.0	0.0
