13

C	-0.461578	-0.002792	-1.430385
C	0.0	0.0	0.0
F	-1.85573	-0.087184	-1.532606
H	1.09186	0.0	0.0
H	-0.338041	0.892437	0.522238
C	-0.068195	1.282477	-2.044113
N	0.229245	2.302576	-2.54436
C	0.113525	-1.087863	-2.24766
N	0.576567	-1.882927	-2.977497
N	-0.456633	-1.156053	0.729177
O	-0.572948	-2.226229	0.116806
O	-0.59118	-1.029265	1.95274
H	2.503115	0.0	0.0
