13

C	-0.474449	-0.03672	-1.425343
C	0.0	0.0	0.0
F	-1.868093	0.030157	-1.51437
H	1.091826	0.0	0.0
H	-0.328872	-0.881657	0.544476
C	0.077143	1.03367	-2.280082
N	0.557627	1.819726	-3.007732
C	-0.070827	-1.335233	-2.008986
N	0.230038	-2.365904	-2.483513
N	-0.448744	1.170923	0.707438
O	-0.525994	1.077501	1.939341
O	-0.606166	2.224405	0.071932
H	2.504892	0.0	0.0
