13

C	-0.462766	-0.002751	-1.427715
C	0.0	0.0	0.0
F	-1.856422	0.013623	-1.534074
H	1.106953	0.0	0.0
H	-0.327008	-0.897429	0.522182
C	0.048282	1.11396	-2.249625
N	0.408765	1.919092	-3.024918
C	-0.005385	-1.267392	-2.045984
N	0.305302	-2.293755	-2.523904
N	-0.445038	1.151289	0.734376
O	-0.579424	2.22396	0.124108
O	-0.53082	1.030495	1.966212
H	2.474388	0.0	0.0
