13

C	-0.484507	-0.078786	-1.417796
C	0.0	0.0	0.0
F	-1.880778	-0.005764	-1.497768
H	1.104653	0.0	0.0
H	-0.30923	0.93987	0.454701
C	0.039601	1.095342	-2.148664
N	0.397844	2.041782	-2.744064
C	-0.073386	-1.28763	-2.158283
N	0.21072	-2.179068	-2.867942
N	-0.4811	-1.077183	0.82319
O	-0.563228	-0.854628	2.039406
O	-0.670812	-2.186849	0.299388
H	2.485174	0.0	0.0
