13

C	-0.460419	-0.10047	-1.441333
C	0.0	0.0	0.0
F	-0.217807	1.138736	-2.0242
H	1.089882	0.0	0.0
H	-0.35102	0.926749	0.449803
C	0.261403	-1.114727	-2.238915
N	0.776831	-1.870494	-2.976456
C	-1.913748	-0.347143	-1.556161
N	-3.078369	-0.453971	-1.673651
N	-0.437468	-1.122422	0.772229
O	-0.660459	-2.186102	0.156114
O	-0.419301	-1.015925	2.007207
H	2.47391	0.0	0.0
