13

C	-0.46409	0.047647	-1.441966
C	0.0	0.0	0.0
F	-0.16052	1.319838	-1.915413
H	1.105003	0.0	0.0
H	-0.329132	0.888837	0.535094
C	0.212409	-0.928652	-2.322557
N	0.70785	-1.649965	-3.105565
C	-1.928694	-0.112477	-1.567884
N	-3.100286	-0.124253	-1.661261
N	-0.458778	-1.176563	0.66545
O	-0.395594	-1.198081	1.903179
O	-0.762048	-2.15989	-0.044079
H	2.456929	0.0	0.0
