13

C	-0.474315	0.035819	-1.425623
C	0.0	0.0	0.0
F	-1.871052	0.014524	-1.507198
H	1.091913	0.0	0.0
H	-0.346415	0.882489	0.535062
C	-0.035232	1.315726	-2.022196
N	0.253102	2.35124	-2.492101
C	0.023127	-1.055479	-2.286452
N	0.373088	-1.836281	-3.091787
N	-0.473538	-1.167269	0.701581
O	-0.494073	-2.244796	0.088408
O	-0.71973	-1.04249	1.910155
H	2.511448	0.0	0.0
