13

C	-0.472179	0.127403	-1.431057
C	0.0	0.0	0.0
F	0.183537	-0.73531	-2.281481
H	1.10466	0.0	0.0
H	-0.292646	0.860711	0.599909
C	-1.928411	-0.094289	-1.577507
N	-3.094371	-0.194806	-1.682309
C	-0.192082	1.509546	-1.883315
N	-0.00418	2.61076	-2.245506
N	-0.483695	-1.193199	0.639567
O	-0.769716	-2.170939	-0.074511
O	-0.461453	-1.209889	1.878868
H	2.4726	0.0	0.0
