13

C	-0.434544	0.230703	-1.419834
C	0.0	0.0	0.0
F	-1.818955	0.390348	-1.535682
H	1.10371	0.0	0.0
H	-0.352598	-0.95699	0.378532
C	0.195253	1.396823	-2.072139
N	0.657628	2.265609	-2.713272
C	-0.081422	-0.974167	-2.200879
N	0.150972	-1.950378	-2.810832
N	-0.445706	1.041604	0.885105
O	-0.474034	2.203477	0.447459
O	-0.651031	0.732418	2.067822
H	2.480542	0.0	0.0
