13

C	-0.470941	0.114841	-1.432126
C	0.0	0.0	0.0
F	0.203768	-0.742191	-2.27445
H	1.104776	0.0	0.0
H	-0.292934	0.861557	0.598418
C	-1.921981	-0.132765	-1.59085
N	-3.081637	-0.260459	-1.729003
C	-0.209041	1.498122	-1.891815
N	-0.027441	2.596376	-2.265769
N	-0.467964	-1.19565	0.644984
O	-0.759525	-2.173654	-0.067379
O	-0.412777	-1.218396	1.883889
H	2.466898	0.0	0.0
