16

C	-0.585045	-0.010874	-1.425679
C	0.0	0.0	0.0
Br	0.179018	-1.402225	-2.52658
H	1.092096	0.0	0.0
C	-2.031469	-0.192519	-1.351781
N	-3.180476	-0.382709	-1.187112
N	-0.295272	1.329167	-2.099467
O	-1.262903	1.974592	-2.492385
O	0.878733	1.642505	-2.179974
N	-0.404679	-1.233003	0.644404
H	-1.28942	-1.134114	1.12653
H	0.312182	-1.514671	1.299522
N	-0.431669	1.261246	0.588043
H	-1.266718	1.146777	1.151239
H	0.317324	1.629031	1.163001
Br	3.487066	0.0	0.0
