16

C	-0.507878	-0.023188	-1.454217
C	0.0	0.0	0.0
Br	0.196013	-1.54871	-2.439331
H	1.09662	0.0	0.0
C	-1.963055	-0.048792	-1.516416
N	-3.137951	-0.080402	-1.537992
N	-0.00617	1.230988	-2.182259
O	-0.853824	1.908828	-2.755123
O	1.193149	1.434258	-2.13218
N	-0.563388	-1.161709	0.691137
H	-0.232896	-1.097507	1.649911
H	-0.129358	-1.997838	0.310904
N	-0.467752	1.242096	0.560843
H	0.232691	1.620406	1.185787
H	-1.346413	1.103816	1.047069
Br	3.560714	0.0	0.0
