16

C	-0.586165	-0.037228	-1.419641
C	0.0	0.0	0.0
Br	0.158905	-1.486893	-2.481983
H	1.096737	0.0	0.0
C	-2.037625	-0.174476	-1.385667
N	-3.205834	-0.291503	-1.328606
N	-0.232096	1.274346	-2.124919
O	0.953414	1.545062	-2.179615
O	-1.166462	1.936679	-2.562906
N	-0.519806	-1.164254	0.728534
H	-0.151794	-2.004021	0.289588
H	-0.075004	-1.12814	1.642444
N	-0.46725	1.235346	0.585645
H	0.271123	1.654518	1.134676
H	-1.287356	1.066315	1.154967
Br	3.53244	0.0	0.0
