14
Coordinates from ORCA-job run
  C   -0.44497800573090      0.10853544966565      0.48840571320253
  C   0.81368833865363      0.58205264626354     -0.28587404294976
  F   -0.71164469912561      1.10553448030785      1.41009758119756
  H   0.54855887646443      1.54171425855468     -0.74727468014426
  C   -1.64581378160850     -0.05617029130997     -0.42016918828247
  H   -1.48351150564240     -0.85396860689927     -1.14598742087849
  H   -1.83459495149748      0.88371778793533     -0.94343850409173
  H   -2.51694247202550     -0.30162442679026      0.18846169511692
  C   -0.14590291394778     -1.13410418619569      1.21706939858664
  N   0.07628546190105     -2.14130604973840      1.77891074763055
  C   1.16299498255811     -0.37373414701018     -1.33878211646796
  N   1.40764413988337     -1.14580638839521     -2.18894446755578
  C   1.93986268755643      0.80086220408746      0.62645357073662
  N   2.83635384256117      0.98329726952449      1.36207171389963
