14
Coordinates from ORCA-job run
  C   -0.28026836299240     -0.17806747107691      0.50752836281680
  C   0.80797225435487      0.00590841580780     -0.58530329636192
  F   0.18900507042113      0.42564597837947      1.65649812181255
  H   0.47895398323297     -0.52370136787574     -1.48838133446300
  C   -1.60265500658747      0.45356781038712      0.12225401827269
  H   -1.46595871533259      1.52708196429189     -0.01561392129435
  H   -1.99324058043787      0.01164550282691     -0.79645279313985
  H   -2.32084760949409      0.28942274654599      0.92628628729720
  C   -0.43453126480120     -1.62071034392449      0.76226736675879
  N   -0.58676908970252     -2.77287517500930      0.93166712188043
  C   2.08349935976168     -0.56844818600720     -0.14547007549808
  N   3.09804898788226     -1.04317411444149      0.20563328827329
  C   0.96570611869362      1.42757996979760     -0.90752688707205
  N   1.05908485500158      2.56712427029835     -1.17338625928251
