14
Coordinates from ORCA-job run
  C   -0.38671641648212      0.04997219826514      0.54404936715691
  C   0.77915927184298      0.61677637604251     -0.30869893217149
  F   -0.54388564213881      0.93572589947669      1.59536427601054
  H   0.46814580553135      1.61919384248687     -0.62889202697790
  C   -1.68264556751958     -0.02215897899610     -0.23701706997367
  H   -2.48106412869218     -0.34117239036226      0.43402468048973
  H   -1.60642964130240     -0.73256959431062     -1.06114009985269
  H   -1.92475391591237      0.96875562765297     -0.62730765943656
  C   -0.01320003277443     -1.26381599647843      1.09121685184449
  N   0.26481238689611     -2.32610619913882      1.50814447761640
  C   1.00425979527485     -0.21429608883955     -1.49317609811189
  N   1.14963331869499     -0.88586790445172     -2.44529216566671
  C   2.00129483398810      0.74270300585342      0.49061976409700
  N   2.97438993259353      0.85186020279991      1.13810463497584
