14
Coordinates from ORCA-job run
  C   -0.44568933436497      0.11240988030790      0.39651894403384
  C   0.96995755137690     -0.00765958235473     -0.23110303091148
  F   -0.67877714480047      1.45309569684308      0.62512669586807
  H   1.19535582027837     -1.07336348021347     -0.36477245806926
  C   -1.53010419854251     -0.43033639957152     -0.51224756323369
  H   -2.49522754931794     -0.32192801575992     -0.01634085465296
  H   -1.36231925686102     -1.48645302449081     -0.73187350785749
  H   -1.54433042402771      0.14068762359170     -1.44161761755310
  C   -0.43428001539608     -0.59224626647433      1.69012385387538
  N   -0.43343579628606     -1.19219986795875      2.69983108973773
  C   1.98092785475265      0.57528845467141      0.65699428818448
  N   2.78723775926350      1.03033630480680      1.37847512659883
  C   0.99749450728553      0.64492021645585     -1.54387022384131
  N   0.99419022663982      1.14644846014679     -2.60524474217903
