14
Coordinates from ORCA-job run
  C   -0.38915004468167      0.06123388134721      0.54114900897747
  C   0.79893927990760      0.59349648386277     -0.30315452558368
  F   -0.52619355840862      0.95028461733387      1.59253571514008
  H   0.52037011961942      1.60485819255958     -0.62509835183258
  C   -1.68171992000080      0.02929183369874     -0.24796196862588
  H   -2.49335384223762     -0.26741074745997      0.41741964458503
  H   -1.89161487805233      1.02791243781296     -0.63722291283325
  H   -1.62172717798985     -0.68124386455717     -1.07330603679479
  C   -0.05900028145696     -1.26372532720406      1.08909251335314
  N   0.18460329171934     -2.33360280468654      1.50805389340345
  C   1.00839896397740     -0.24329709663337     -1.48654925698900
  N   1.14089959273292     -0.91871373220825     -2.43780661343511
  C   2.01836636113188      0.68228867742651      0.50537861317887
  N   2.99018209373929      0.75962744870772      1.15947027745626
