14
Coordinates from ORCA-job run
  C   -0.32471546472874     -0.11951041263166      0.65420924155175
  C   1.09299639713256      0.08908870969008      0.05050090238733
  F   -0.34237819319436      0.61289816165531      1.82772344187342
  H   1.81961916037265     -0.24453613771217      0.80143638149729
  C   -1.44046987252127      0.35781839327111     -0.24949152103766
  H   -1.45051437705156     -0.20435396787869     -1.18472962092723
  H   -1.30612750165697      1.42017383619058     -0.46033091694668
  H   -2.39397775767123      0.21594834723777      0.26053594752059
  C   -0.47524769424068     -1.54365322014865      0.99667680914073
  N   -0.59915051121989     -2.68166445255366      1.25942009776621
  C   1.31855454639225      1.51193661519094     -0.22047527984450
  N   1.48293662865037      2.65473967353500     -0.43246919020220
  C   1.25748098239626     -0.70958715823609     -1.16597995829323
  N   1.36199365734062     -1.36129838760989     -2.13702633448584
