14
Coordinates from ORCA-job run
  C   -0.41353564041783      0.12194043119089      0.42945410052538
  C   0.95010904240764     -0.04771959267588     -0.29359798795824
  F   -0.55652684215148      1.46281902482260      0.72295570248578
  H   1.10701925981687     -1.11777717742058     -0.48005628807914
  C   -1.58211117711693     -0.32515642834531     -0.42548532202922
  H   -1.62334602662785      0.28213961513686     -1.33086325868792
  H   -1.48774038886585     -1.37925797581550     -0.69365879764135
  H   -2.50633654558917     -0.18519592407845      0.13617092859321
  C   -0.35981684907227     -0.63472889449099      1.69217278315320
  N   -0.32889213209384     -1.27824205754672      2.67422668434234
  C   2.04739488576935      0.44306212659227      0.54631885526743
  N   2.92746622448697      0.81394080328687      1.22873988115390
  C   0.93185064971905      0.65267354183297     -1.58159087022384
  N   0.89446553973535      1.19150250751097     -2.62378641090153
