14
Coordinates from ORCA-job run
  C   -0.36999616223428      0.05470332161323      0.55584574159846
  C   0.78215647451305      0.60242320396101     -0.32717445990530
  F   -0.47855712503288      0.93805817709425      1.61540235729494
  H   0.48211559393403      1.61289938130567     -0.63212948738577
  C   -1.68882307061601      0.01304843621757     -0.18834269986678
  H   -1.91981722770720      1.00931752019518     -0.57170613778296
  H   -2.47509914746963     -0.28843875081086      0.50492963938671
  H   -1.65146173828437     -0.69846001191634     -1.01412191248243
  C   -0.00926601225456     -1.26949187992374      1.08609510103329
  N   0.25622711513517     -2.33972266216994      1.49074232355903
  C   0.95594477735118     -0.22461017218470     -1.52305993831182
  N   1.06107459296213     -0.89172255539104     -2.48359241784236
  C   2.02962379368499      0.69909779438443      0.43619449070034
  N   3.02487813601838      0.78389819762528      1.05291740000463
