14
Coordinates from ORCA-job run
  C   -0.40407682221435      0.04418282102128      0.53194261032931
  C   0.83254370185140      0.57565281989114     -0.24016135170046
  F   -0.54083598687190      0.87426543939645      1.63064699420076
  H   0.60624426708833      1.61657991864812     -0.50342793335455
  C   -1.66910942535338      0.11388838838770     -0.29835403863608
  H   -2.51465502393071     -0.18378827538627      0.32294988817519
  H   -1.82380860181504      1.14100335080329     -0.63597193064369
  H   -1.61079274343349     -0.55098712060308     -1.16105165018368
  C   -0.14689540273711     -1.32367344333944      1.00875884278119
  N   0.03872719135479     -2.42619280281257      1.36877678027663
  C   1.04564343601497     -0.19185029871752     -1.46874229760989
  N   1.18192006873028     -0.80807149570942     -2.45889154756188
  C   2.02745277342535      0.56114141681227      0.60846501425416
  N   2.97964256789087      0.55784928160805      1.29506061967298
