14
Coordinates from ORCA-job run
  C   -0.36792641820521      0.04283143105854      0.55748279100687
  C   0.78773876767888      0.60346872132555     -0.31297942597812
  F   -0.46737305051269      0.90007481952756      1.63914570161983
  H   0.49719919777024      1.62545017602821     -0.58776995594255
  C   -1.68831723615251      0.03122459067254     -0.18482632429490
  H   -2.47531979495850     -0.28351124866828      0.50154468494001
  H   -1.91233666054360      1.03940331510009     -0.53987200377019
  H   -1.65825278584061     -0.65714369203247     -1.03022890801708
  C   -0.01788642353315     -1.29700051082435      1.05414370667374
  N   0.23719699656952     -2.37868438959093      1.43400378886498
  C   0.94958879381598     -0.18980483614691     -1.53314593928400
  N   1.04193050239348     -0.82598886467340     -2.51546870567146
  C   2.03756070514210      0.66600228929277      0.45018711696244
  N   3.03419740637608      0.72367819893108      1.06778347289045
