14
Coordinates from ORCA-job run
  C   -0.27763657475598     -0.17516423181390      0.50973969233645
  C   0.80326949691392     -0.00420334138821     -0.59239901727551
  F   0.20998265916283      0.42021070584056      1.65531191708189
  H   0.46012626132472     -0.52901378120687     -1.49298884570735
  C   -1.59480289288336      0.47485281033103      0.13718144212825
  H   -1.99873870899891      0.04044938372403     -0.77939127345373
  H   -1.44521302870432      1.54687814668218      0.00097209237202
  H   -2.30842128327643      0.31784451257393      0.94674813270973
  C   -0.44957116141966     -1.61603022384674      0.76345849150251
  N   -0.61618578273547     -2.76620047297519      0.93224695656360
  C   2.07508761152368     -0.59481321290148     -0.16353813895199
  N   3.08571675795257     -1.08310420188095      0.18014548728402
  C   0.97595344084794      1.41552643589792     -0.91542963337856
  N   1.07943320504847      2.55376747096367     -1.18305730321131
