14
Coordinates from ORCA-job run
  C   -0.36718149581848      0.04834652018094      0.55716391641530
  C   0.77672608679009      0.60962845914395     -0.32851881837825
  F   -0.47598533769618      0.92502942994717      1.62244875453856
  H   0.47013119429426      1.62174177413565     -0.62145295769752
  C   -1.69006254838432      0.00215603078331     -0.17918324109537
  H   -1.65255512446486     -0.70094622269701     -1.01214487477479
  H   -2.46920610302670     -0.31221980336339      0.51623415211416
  H   -1.93136012359635      1.00013221687120     -0.55145170899187
  C   0.00675020797917     -1.27552231491216      1.07882001388588
  N   0.28523081856879     -2.34390657005438      1.47940247013287
  C   0.94673759385843     -0.20475138669084     -1.53346376012433
  N   1.04910037870592     -0.85959804342383     -2.50265088961211
  C   2.02794064359434      0.70426656663694      0.42905366802467
  N   3.02473380919591      0.78564334344246      1.04374327556281
