14
Coordinates from ORCA-job run
  C   -0.32931424965474     -0.13645049113072      0.64892645323521
  C   1.08758572490877      0.12822910225656      0.06573996930981
  F   -0.38818423797374      0.58450475546887      1.82812350075031
  H   1.81528641374337     -0.18309180318573      0.82512853186526
  C   -1.45010046453764      0.30853098471853     -0.26484066460506
  H   -2.40413666984464      0.12844972479566      0.23189017190613
  H   -1.35125817599888      1.37663532145946     -0.46522622521892
  H   -1.42844770167594     -0.24546188873346     -1.20462438292253
  C   -0.43228926633339     -1.56788488276148      0.97792185842748
  N   -0.51654802255532     -2.71128174575805      1.23277364400287
  C   1.26426268358686      1.56007259792646     -0.19423457216134
  N   1.38918659411053      2.70897530616633     -0.40109532807919
  C   1.29900927989557     -0.65547388548685     -1.15323251171544
  N   1.44594809232919     -1.29475309573558     -2.12725044479457
