14
Coordinates from ORCA-job run
  C   -0.31239413507114     -0.13114871395619      0.65825868308579
  C   1.09192614165636      0.11122381536071      0.03551611962663
  F   -0.32751513333208      0.59159984948126      1.83785593418608
  H   1.83588871065102     -0.21190931944402      0.77384269063902
  C   -1.45075482792971      0.33056302394205     -0.22509769333343
  H   -2.39375056055528      0.16427480629526      0.29692467780955
  H   -1.46236185346416     -0.22324118784104     -1.16529848768951
  H   -1.34151819760699      1.39737884844318     -0.42778941235031
  C   -0.42831450812727     -1.56083041635054      0.99109501812078
  N   -0.52373927292702     -2.70386240521379      1.24415105002699
  C   1.28270566107353      1.54033590874404     -0.22872745063339
  N   1.41511511160312      2.68827730641147     -0.43520965776417
  C   1.25539437189006     -0.67567445928731     -1.18861803215757
  N   1.36031849213956     -1.31798705658506     -2.16590343956644
