14
Coordinates from ORCA-job run
  C   -0.32454417658099     -0.12391673950866      0.65351897339319
  C   1.09501400796113      0.07057533733910      0.04896015345452
  F   -0.32736310110895      0.59151052479758      1.83759392188014
  H   1.81767199564425     -0.28516943925502      0.79340843857192
  C   -1.43466188402483      0.38456500839138     -0.24004306401589
  H   -1.45627345295719     -0.16359766950145     -1.18337327464505
  H   -1.28355997308698      1.44757923844610     -0.43577265303301
  H   -2.38904647162414      0.25086069996097      0.27053693698345
  C   -0.49663871623770     -1.55033500778351      0.97583218620390
  N   -0.63664128251314     -2.68985757233966      1.22386643208929
  C   1.34191903176973      1.49344462328744     -0.20238884774897
  N   1.51964874478918      2.63691840256409     -0.39925774803198
  C   1.24289234494964     -0.71270190024588     -1.17947703175045
  N   1.33158293301999     -1.34887550615249     -2.16240442335106
