14
Coordinates from ORCA-job run
  C   -0.34346623549790     -0.12808867191267      0.48327202740969
  C   0.88585681219959     -0.01016650214334     -0.45844240690433
  F   -0.09139414170069      0.66452480828166      1.58465758379100
  H   0.72989238989069     -0.68341643536989     -1.31092623822638
  C   -1.62644316019454      0.33580355283194     -0.17628229529607
  H   -2.44798442603791      0.22784052892883      0.53271602421379
  H   -1.84570809217964     -0.25957459870061     -1.06474006952947
  H   -1.53369418408948      1.38721260664843     -0.45208185737176
  C   -0.44982749571777     -1.52920350254833      0.92525282939361
  N   -0.55738511698767     -2.65559678122766      1.24001838496792
  C   2.11126411014948     -0.41477831869949      0.23796938996175
  N   3.08704526167204     -0.75416733342286      0.79530675381633
  C   1.00745494495502      1.36173995656478     -0.96142712233162
  N   1.07338933353878      2.45787069076919     -1.37629300389445
