14
Coordinates from ORCA-job run
  C   -0.34350626940580     -0.12547681324254      0.64313768776301
  C   1.09146582271097      0.08389297182931      0.08238512527480
  F   -0.39059706113677      0.59179319029543      1.82529164124972
  H   1.79451463322151     -0.25876285115656      0.85133845265238
  C   -1.43137320381700      0.36956650948327     -0.28476717324290
  H   -1.28672905598052      1.43433833369665     -0.47599730559486
  H   -2.39948374763232      0.22458489683368      0.19603226743403
  H   -1.41717058413098     -0.17875123863956     -1.22821524438865
  C   -0.51073554216534     -1.55313795984392      0.96272738674119
  N   -0.65035609985184     -2.69307472624401      1.20898361630941
  C   1.32992937945164      1.50812133159875     -0.16937677654910
  N   1.50481307553950      2.65190430315287     -0.36697538478759
  C   1.28902155586442     -0.70453505333173     -1.13576607207814
  N   1.42120709733251     -1.34846289443163     -2.10879822078329
