14
Coordinates from ORCA-job run
  C   -0.38795779552648      0.03288556749080      0.54501265055910
  C   0.84399043855246      0.55896311317065     -0.23794672186763
  F   -0.46717149351365      0.81622099337096      1.68294938336836
  H   0.64476204455134      1.61714384496336     -0.44929427185610
  C   -1.67206205978343      0.18052149148554     -0.24488668574997
  H   -2.50996027884414     -0.11671650793685      0.38692257762186
  H   -1.80114881143489      1.22603031226899     -0.53319107621200
  H   -1.65960769794830     -0.44713347193814     -1.13684778422784
  C   -0.16392987960322     -1.36287003579347      0.95273136960874
  N   -0.00683288811059     -2.48679989710397      1.25561101612454
  C   0.99893974200891     -0.15944214529402     -1.50446771700817
  N   1.08998521029212     -0.73447617215177     -2.52419104305490
  C   2.06050460791429      0.46897854420908      0.57472468209417
  N   3.03048886144558      0.40469436325884      1.23287362059984
