14
Coordinates from ORCA-job run
  C   -0.33295246433808     -0.21284959213383      0.45880726764498
  C   0.84704549659355      0.00616073272171     -0.52702638894587
  F   0.09748187380934      0.19391454514822      1.70577010926050
  H   0.54100289326980     -0.36173246206207     -1.51482296562041
  C   -1.56411741036682      0.58354672967470      0.07706168048495
  H   -1.32611185532555      1.64780976885658      0.08365088795989
  H   -1.92527067794648      0.29358926662770     -0.91100762615480
  H   -2.34888696647497      0.39333248540611      0.80938920640290
  C   -0.62674141889865     -1.65518541736838      0.51082397674421
  N   -0.88449743814055     -2.80095935596012      0.52029588502856
  C   2.02898187907991     -0.74625465811348     -0.09469988734103
  N   2.96730993251027     -1.36356550618457      0.24665955722077
  C   1.15556959537264      1.43559815592371     -0.63528898717726
  N   1.37118656085558      2.58559530746372     -0.72961271550739
