14
Coordinates from ORCA-job run
  C   -0.32531360886321     -0.12644352115641      0.65247285651453
  C   1.08768474303988      0.13345544434632      0.05784325904629
  F   -0.38135948627110      0.61511188615939      1.81908013351652
  H   1.82036106433763     -0.16267883847268      0.81843472449752
  C   -1.45222388039099      0.29804258396785     -0.26361695727349
  H   -1.35910118055812      1.36322651927785     -0.48225905677768
  H   -1.43224543229674     -0.27153777672983     -1.19422451674792
  H   -2.40321875109817      0.12202900537721      0.24042356086378
  C   -0.42098946083938     -1.55223999789783      1.00758838743819
  N   -0.50055299436950     -2.69098972755039      1.28423462551837
  C   1.25781262198617      1.56133703031863     -0.22663247497693
  N   1.37639943344592      2.70735175196856     -0.45163631693632
  C   1.29548332805357     -0.66977494713521     -1.14888084178806
  N   1.43826360382403     -1.32488941247346     -2.11282738289478
