14
Coordinates from ORCA-job run
  C   -0.34268747175725     -0.11739358491059      0.64422657333878
  C   1.08812219380459      0.10780409705420      0.07856672665194
  F   -0.40387189454157      0.62400366767928      1.81077625245242
  H   1.79694939791120     -0.20248541414464      0.85610318088496
  C   -1.43984413941875      0.33658573281284     -0.29331035214318
  H   -1.41065315523017     -0.22653565009427     -1.22748047357708
  H   -1.31919304523360      1.40094842958263     -0.50159026926909
  H   -2.40560148689248      0.17764522803385      0.18770228892670
  C   -0.48004931775867     -1.54050841482501      0.99594758011230
  N   -0.58921712486209     -2.67561285658168      1.27726051021866
  C   1.29839602800567      1.53024296080231     -0.20586035613499
  N   1.45094651667851      2.67198028444622     -0.43161499463552
  C   1.30367166943597     -0.70705934380157     -1.11881007693918
  N   1.45303182985865     -1.37961513605358     -2.06991658988673
