14
Coordinates from ORCA-job run
  C   -0.38504343741767      0.03379187070560      0.54703761352312
  C   0.84712032121611      0.55410201070572     -0.24001827055160
  F   -0.45286781113985      0.81250237229378      1.68871440702941
  H   0.65503813796648      1.61463599341249     -0.44626988872717
  C   -1.67180653829871      0.19423869856525     -0.23592697451950
  H   -1.66865126672202     -0.43002510981618     -1.13030065994722
  H   -2.50904722850968     -0.09875394174556      0.39866978684579
  H   -1.79403255095864      1.24176349881431     -0.51975094050859
  C   -0.16793882312824     -1.36531855392495      0.94711093106447
  N   -0.01447276670045     -2.49097368040602      1.24544117059921
  C   0.98906084175552     -0.16028050876827     -1.51024034333825
  N   1.06607337911227     -0.73223175953073     -2.53272111762503
  C   2.06662029323492      0.45123742735139      0.56652548010324
  N   3.03894744958996      0.37431168234317      1.21972880605214
