14
Coordinates from ORCA-job run
  C   -0.35737288076084      0.06127517974425      0.56285235395624
  C   0.77641947219707      0.59662707606541     -0.35137676306135
  F   -0.43996350772049      0.95583628868275      1.61531493606508
  H   0.47286295117815      1.60508008462520     -0.65963262460177
  C   -1.69276388883785      0.01598694986307     -0.15079754343665
  H   -2.46319296879239     -0.28021337857092      0.56212726495379
  H   -1.93104889176572      1.01028646729789     -0.53476400040027
  H   -1.67545173586922     -0.70043035002841     -0.97305309650557
  C   0.01260536405395     -1.25800197800243      1.09870541866915
  N   0.28694465776423     -2.32374059154172      1.50912505018618
  C   0.92087881788014     -0.24321868057871     -1.54212479410248
  N   1.00079718992322     -0.92070573752392     -2.49774533670318
  C   2.04056947815051      0.69672649025520      0.38365918886915
  N   3.04871594259925      0.78449217971235      0.97870994611168
