14
Coordinates from ORCA-job run
  C   -0.42398373429114      0.13214027332868      0.50060440364054
  C   0.82770416405535      0.54365323798472     -0.31904029187930
  F   -0.62397276167285      1.15404968498040      1.41178572757132
  H   0.58475524891969      1.50530009605468     -0.78859602273827
  C   -1.65735077847083     -0.00091085591749     -0.36884597383116
  H   -1.82481767690258      0.93601211233904     -0.90455003366524
  H   -1.54865939515748     -0.81769971976725     -1.08346976849715
  H   -2.51857693021779     -0.20018185041555      0.27000254320779
  C   -0.15159476522163     -1.10938397634505      1.24151173841762
  N   0.04431330526802     -2.11783057259557      1.81096347696938
  C   1.10670921516098     -0.43944493035447     -1.36761776269090
  N   1.28913673645390     -1.22570332922158     -2.22031671565609
  C   1.98788488904974      0.73604762963298      0.55559272957024
  N   2.90945248302663      0.90495220029646      1.26297594958123
