14
Coordinates from ORCA-job run
  C   -0.36744376293158      0.01610628391661      0.55965352884587
  C   0.86116743822892      0.53497408003367     -0.23382150885669
  F   -0.37142677066324      0.72945945720303      1.74575469524508
  H   0.70815091430234      1.61340071951152     -0.36694672773532
  C   -1.66910858683800      0.27042802515400     -0.17186185551380
  H   -2.49800904731060     -0.03111681992638      0.46912097958230
  H   -1.71512500567484     -0.29647338211773     -1.10214940456924
  H   -1.75990556333856      1.33703598415876     -0.38713241606142
  C   -0.19359633569590     -1.41027998602843      0.87511342866992
  N   -0.07268150942108     -2.55410030633503      1.11306003217086
  C   0.93419740941162     -0.10216265806717     -1.55030442600760
  N   0.95618767161546     -0.60554193463649     -2.61080778737845
  C   2.09937714922126      0.33035049574793      0.52329226897633
  N   3.08721599909420      0.16992004138572      1.13702919263215
