14
Coordinates from ORCA-job run
  C   -0.31298162734655     -0.12169298742356      0.65844441063844
  C   1.09163677295428      0.09092707953062      0.02578226809835
  F   -0.30718326722775      0.60754952829577      1.83431809249769
  H   1.83352084051448     -0.24388192605861      0.76108373102461
  C   -1.44814032501533      0.35727833163746     -0.21956517643009
  H   -1.32075784920733      1.42168713269147     -0.42493305434457
  H   -2.39097281733904      0.20895020844679      0.30822457301853
  H   -1.47520067828236     -0.19779398642116     -1.15880786675342
  C   -0.45089840715260     -1.54677524096779      1.00193293247779
  N   -0.55570408969767     -2.68466811304184      1.27367165397202
  C   1.31046289432624      1.51463866206512     -0.24530832622862
  N   1.47055314721134      2.65842724740814     -0.45536517819697
  C   1.23272896054219     -0.70575958873289     -1.19477424881950
  N   1.32193644572013     -1.35988634742952     -2.16570381095424
