16
Coordinates from ORCA-job run
  C   0.53881617410608      0.20716992314552      0.41212963287492
  C   -0.97425506389250      0.30093408666854      0.18310897173241
  H   0.88062647966704      1.19623473826864      0.73132887042870
  H   -1.46424443932842      0.68561795368663      1.07835008312167
  C   1.30745385407357     -0.29632828625723     -0.78808932406557
  H   0.98309051133935     -1.29975806338828     -1.06803332227473
  H   1.15048058774922      0.37433204955103     -1.63535427424075
  H   2.37277270505626     -0.32669982432156     -0.56757225548424
  N   0.75084007066184     -0.67894101798291      1.62354417198895
  O   -0.05932372068470     -0.55555584657785      2.53887662583005
  O   1.73350851561682     -1.41005814654658      1.62687764599233
  C   -1.55130626305719     -0.97703341619723     -0.20990752934530
  N   -1.98456617069527     -2.03223313372953     -0.48890757671804
  N   -1.18996460961312      1.34551497447101     -0.89283912811360
  O   -0.87266947669620      2.48311477642619     -0.56337916332149
  O   -1.62125915430279      0.98568923278361     -1.98013342840532
