16
Coordinates from ORCA-job run
  C   0.57746018854926      0.06139895375594      0.48935124838807
  C   -0.78277190044785      0.68137334678271      0.13368552376326
  H   0.84086761825054      0.43264720614534      1.48210567287391
  H   -0.64185497263407      1.75584258311302     -0.00860205821720
  C   1.67053868536509      0.33753901892039     -0.52156122215129
  H   1.79833154278343      1.41501572347618     -0.64289786743750
  H   2.61029845313775     -0.08542674941763     -0.16232762317170
  H   1.43924590165505     -0.10095240689534     -1.48948491886441
  N   0.38991796965052     -1.42168510513709      0.67904034721612
  O   0.46271146301797     -2.12420722263704     -0.32577243447993
  O   0.16234099327112     -1.80384954579001      1.82403115974600
  C   -1.79784101650086      0.43945811475285      1.15230663412869
  N   -2.61889834074375      0.29495384870190      1.97943328952224
  N   -1.26677700311369      0.16323100766330     -1.20622039894915
  O   -2.00915135685372     -0.80985635632611     -1.20023936570296
  O   -0.83441822538678      0.76451758289160     -2.18384798666414
