16
Coordinates from ORCA-job run
  C   0.58011126771790     -0.01288221633632      0.42348448695272
  C   -0.72218091396673      0.70781499715595      0.06863142339945
  H   0.85233169291597      0.30945472248546      1.43504598302689
  H   -0.47318021536710      1.71281445293698     -0.29171847639451
  C   1.74610815794108      0.23885449294782     -0.51455879926784
  H   1.53977436527797     -0.14802242243269     -1.50965570756708
  H   2.64116431003178     -0.24240860104288     -0.12509475459097
  H   1.93305910350630      1.31365285379218     -0.57489045341256
  N   0.30751506795736     -1.49323311012797      0.58493584386216
  O   -0.85676521867210     -1.82971178058602      0.77709661724568
  O   1.28122763314997     -2.23505270330445      0.56693832645330
  C   -1.63269398358742      0.83981022670662      1.20070193298429
  N   -2.30184795865427      1.00894715609053      2.15051094255021
  N   -1.45971503418092      0.07430815683836     -1.10505641359879
  O   -0.79102178505150     -0.59907207374607     -1.87684395228957
  O   -2.64388648901830      0.35472584862250     -1.20952699935337
