16
Coordinates from ORCA-job run
  C   0.38944743265800     -0.12729355560156      0.44602980704125
  C   -0.69322534890828      0.34015545855460     -0.51022830372446
  H   0.12630558132519      0.13124409537759      1.47143749794117
  H   -0.52332448330749     -0.04398477503592     -1.51749357296423
  C   1.76791765664024      0.38859745687714      0.06488469817123
  H   2.50795746162006     -0.01431081067061      0.75718509659087
  H   2.02753571892679      0.08114331223011     -0.95077389403936
  H   1.79557995238365      1.47746048217476      0.12445754677975
  N   0.42958368676988     -1.63159963734946      0.41997426139349
  O   0.02731123357695     -2.19589030851062     -0.59526760679574
  O   0.91484536628349     -2.17094783306173      1.40634445102778
  C   -0.78689679867239      1.79507233710519     -0.52537331439603
  N   -0.82965131782093      2.96895746199383     -0.51969612674460
  N   -2.05745942080831     -0.20951185638980     -0.11485492271033
  O   -2.18397272648062     -0.63026993489556      1.02809697308917
  O   -2.91295399418622     -0.15982189279797     -0.98672259065995
