17

C	0.0	0.0	0.0
C	-0.596675	-0.158379	-1.403825
Cl	1.801082	0.0	0.0
H	-1.703206	-0.195206	-1.104927
C	-0.402453	1.303102	0.54534
N	-0.59002	2.372216	0.9933
C	-0.462785	-1.120023	0.928174
H	-0.088338	-2.07534	0.552055
H	-1.558284	-1.065277	0.898618
H	-0.072645	-0.956246	1.935635
C	-0.174565	-1.417741	-1.99497
N	0.137861	-2.429286	-2.506654
C	-0.320017	1.015855	-2.337998
H	-0.751253	0.817209	-3.321651
H	-0.793725	1.912975	-1.934791
H	0.751885	1.199022	-2.458403
F	-2.828307	0.0	0.0
