17

C	0.0	0.0	0.0
C	-0.472452	-0.053846	-1.495922
Cl	1.798532	0.0	0.0
H	0.425647	0.101898	-2.104594
C	-0.394191	1.258415	0.640712
N	-0.545197	2.272065	1.216174
C	-0.429259	-1.167463	0.886832
H	0.002905	-1.027212	1.880113
H	-1.522472	-1.11	0.900312
H	-0.055552	-2.107418	0.476453
C	-1.363911	1.05119	-1.864417
N	-1.913008	1.948534	-2.389927
C	-1.109402	-1.384258	-1.894708
H	-2.005528	-1.478422	-1.283857
H	-1.377575	-1.345391	-2.954039
H	-0.412436	-2.214403	-1.749176
F	-2.629564	0.0	0.0
