14

C	-0.403553	-0.053674	-1.463773
C	0.0	0.0	0.0
F	-1.779395	-0.253279	-1.601419
H	1.096691	0.0	0.0
H	0.098348	-0.90873	-1.927493
C	-0.055435	1.167688	-2.205368
N	0.187957	2.152598	-2.796534
C	-0.457901	-1.263305	0.733771
H	-1.545166	-1.356824	0.740987
H	-0.020511	-2.138875	0.247921
H	-0.090818	-1.236347	1.760474
C	-0.522861	1.199344	0.646701
N	-0.960017	2.138929	1.199713
Cl	3.277533	0.0	0.0
