14

C	-0.503717	-0.051116	-1.439074
C	0.0	0.0	0.0
F	-0.071379	1.048179	-2.151295
H	1.095596	0.0	0.0
H	-1.600909	-0.031547	-1.45623
C	-0.070676	-1.277888	-2.131799
N	0.20405	-2.265911	-2.702271
C	-0.46654	-1.226201	0.790591
H	-1.556019	-1.334664	0.779841
H	-0.007193	-2.124381	0.374924
H	-0.134785	-1.133868	1.825345
C	-0.511282	1.227482	0.605027
N	-0.990205	2.186269	1.085892
Cl	3.289485	0.0	0.0
