14

C	-0.411999	0.001494	-1.472587
C	0.0	0.0	0.0
F	-0.002928	-1.1775	-2.066947
H	1.09618	0.0	0.0
H	0.081416	0.827121	-1.992684
C	-1.874556	0.106846	-1.649256
N	-3.038319	0.177393	-1.787123
C	-0.517741	-1.225799	0.748541
H	-0.136481	-2.124218	0.263105
H	-1.61082	-1.25907	0.772292
H	-0.139989	-1.208628	1.771698
C	-0.473582	1.241315	0.606121
N	-0.890203	2.228796	1.087649
Cl	3.296947	0.0	0.0
