14

C	-0.513646	0.01427	-1.435103
C	0.0	0.0	0.0
F	-0.075091	1.136371	-2.106613
H	1.095614	0.0	0.0
H	-1.610669	0.046396	-1.443702
C	-0.095143	-1.18861	-2.178318
N	0.213285	-2.141767	-2.789811
C	-0.468419	-1.255425	0.742412
H	-0.026037	-2.139801	0.280391
H	-0.119518	-1.211917	1.77474
H	-1.559377	-1.350842	0.744015
C	-0.478896	1.203721	0.67531
N	-0.914065	2.139949	1.235803
Cl	3.28955	0.0	0.0
