14

C	-0.411856	0.001798	-1.472562
C	0.0	0.0	0.0
F	-0.003684	-1.177519	-2.066971
H	1.096153	0.0	0.0
H	0.082526	0.827011	-1.992296
C	-1.874375	0.108384	-1.650052
N	-3.038406	0.178013	-1.787454
C	-0.518191	-1.225879	0.747863
H	-0.141387	-1.208737	1.77129
H	-0.136485	-2.12416	0.2627
H	-1.611291	-1.259362	0.770794
C	-0.473274	1.241302	0.606288
N	-0.889666	2.229018	1.087486
Cl	3.298787	0.0	0.0
