17

C	-0.288224	-0.020821	-1.522746
C	0.0	0.0	0.0
Br	-2.24814	-0.07451	-1.808754
H	1.094839	0.0	0.0
C	0.286055	1.18489	-2.240593
H	1.345296	1.263634	-1.976928
H	0.178176	1.011365	-3.312027
H	-0.214609	2.108372	-1.961753
N	0.276915	-1.214331	-2.104447
H	-0.063302	-2.041497	-1.624799
H	1.287299	-1.164631	-1.964314
C	-0.494393	-1.201664	0.653421
N	-0.845273	-2.218319	1.12596
N	-0.501489	1.209799	0.718076
O	0.009703	2.281638	0.407717
O	-1.384459	1.06044	1.56177
Cl	3.187153	0.0	0.0
