17

C	-0.544201	-0.000385	-1.453372
C	0.0	0.0	0.0
Br	0.080164	1.678843	-2.288759
H	1.091189	0.0	0.0
C	0.106637	-1.148173	-2.206082
H	-0.213809	-1.112532	-3.248627
H	-0.22811	-2.09514	-1.766783
H	1.192645	-1.087768	-2.126157
N	-1.975523	-0.041524	-1.633146
H	-2.296527	-0.979913	-1.408459
H	-2.41588	0.603358	-0.986013
C	-0.531617	-1.162944	0.690388
N	-0.973684	-2.126651	1.197018
N	-0.448045	1.199254	0.795807
O	-1.663904	1.465436	0.784079
O	0.414789	1.986169	1.17657
Cl	3.004357	0.0	0.0
