17

C	-0.45925	-0.00487	-1.486703
C	0.0	0.0	0.0
Br	0.171202	-1.728798	-2.223395
H	1.091338	0.0	0.0
C	-1.972678	0.019903	-1.6245
H	-2.420528	-0.823207	-1.091403
H	-2.386748	0.946652	-1.208792
H	-2.227982	-0.04139	-2.682909
N	0.136675	1.0396	-2.269482
H	1.12651	1.111203	-2.043467
H	-0.304449	1.92239	-2.037648
C	-0.528094	-1.112722	0.780478
N	-0.939976	-2.021051	1.400598
N	-0.458335	1.28195	0.64076
O	-1.524545	1.27989	1.260708
O	0.252965	2.257327	0.46066
Cl	3.2547	0.0	0.0
