17

C	0.0	0.0	0.0
C	-0.348063	0.09365	-1.528774
F	1.407364	0.0	0.0
H	-0.246914	-0.949411	-1.885931
C	-0.377323	1.262681	0.666217
N	-0.59265	2.266697	1.234725
C	-0.62451	-1.182384	0.677663
H	-0.331381	-1.229303	1.730559
H	-1.715672	-1.013027	0.579488
H	-0.316254	-2.102708	0.172488
N	0.624938	0.991976	-2.154106
H	1.546358	0.579971	-2.161311
H	0.30479	1.105022	-3.109016
N	-1.64315	0.583284	-1.900582
H	-2.383421	0.222203	-1.227412
H	-1.622645	1.582283	-1.715101
F	-3.213171	0.0	0.0
