17

C	0.0	0.0	0.0
C	-0.499875	-0.186722	-1.476535
F	1.392635	0.0	0.0
H	0.430007	-0.223729	-2.059889
C	-0.361401	1.349595	0.493785
N	-0.548354	2.421108	0.935285
C	-0.461326	-1.035176	1.005458
H	-0.17849	-2.023079	0.643897
H	0.018626	-0.830903	1.966903
H	-1.547697	-0.940954	1.071377
N	-1.338717	0.887436	-1.998082
H	-0.869605	1.782188	-1.891926
H	-2.151735	0.865666	-1.359266
N	-1.197574	-1.457887	-1.577707
H	-2.053095	-1.263462	-1.033206
H	-1.491956	-1.521794	-2.547637
F	-2.891461	0.0	0.0
