14

C	0.0	0.0	0.0
C	-0.43583	-0.023505	-1.487117
F	1.360354	0.0	0.0
H	0.507039	-0.007344	-2.052082
H	-0.387957	-0.852145	0.542363
N	-0.357905	1.198982	0.820711
O	-0.581402	1.003338	2.010549
O	-0.238837	2.299221	0.287868
C	-1.206652	1.136411	-1.957892
N	-1.726085	2.027127	-2.520218
N	-1.177213	-1.22969	-1.845132
H	-0.613248	-2.030467	-1.574622
H	-1.972122	-1.130898	-1.188235
F	-2.413402	0.0	0.0
