14

C	0.0	0.0	0.0
C	-0.446164	0.114635	-1.447662
F	1.359734	0.0	0.0
H	-0.232179	1.146238	-1.76154
H	-0.373837	-0.883978	0.499955
N	-0.38127	1.174209	0.852379
O	-0.388676	2.285593	0.328865
O	-0.533699	0.95626	2.050796
C	-1.886742	-0.159088	-1.714317
N	-2.61233	-0.425399	-2.619515
N	0.333445	-0.879826	-2.209877
H	1.234033	-0.487896	-2.4541
H	-0.190798	-1.05152	-3.059568
F	-2.425103	0.0	0.0
