14

C	0.0	0.0	0.0
C	-0.541482	-0.305769	-1.388471
F	1.343167	0.0	0.0
H	-1.656244	-0.233245	-1.173657
H	-0.4064	-0.694593	0.727438
N	-0.427066	1.356017	0.505883
O	-0.689364	2.250898	-0.290876
O	-0.367599	1.494716	1.72485
C	-0.176158	-1.684119	-1.693638
N	0.086159	-2.793682	-1.980549
N	0.035829	0.577937	-2.423476
H	-0.212617	0.187	-3.325903
H	-0.454477	1.460222	-2.33487
F	-2.627374	0.0	0.0
