14

C	0.0	0.0	0.0
C	-0.579052	0.137454	-1.381482
F	1.358583	0.0	0.0
H	-1.707705	0.240287	-1.043208
H	-0.389148	-0.87408	0.512306
N	-0.384938	1.162201	0.894539
O	-0.849067	2.187838	0.422683
O	-0.119992	0.980262	2.085162
C	-0.446414	-1.1371	-2.077918
N	-0.329081	-2.1315	-2.696932
N	0.028492	1.243401	-2.118732
H	-0.691451	1.735642	-2.631155
H	0.726056	0.909921	-2.77257
F	-2.661801	0.0	0.0
