16

C	-0.309475	-0.00741	-1.502257
C	0.0	0.0	0.0
Cl	-2.112901	-0.082618	-1.814248
H	1.097681	0.0	0.0
C	0.124616	1.267797	-2.081164
N	0.412996	2.289477	-2.585185
C	0.382495	-1.173669	-2.181949
H	0.259378	-1.12843	-3.26515
H	1.443478	-1.109336	-1.906634
H	-0.03114	-2.111045	-1.807406
C	-0.480896	-1.233625	0.607556
N	-0.840634	-2.242131	1.09408
N	-0.426923	1.160258	0.745378
H	-1.318774	1.513919	0.418704
H	0.286548	1.875154	0.646119
H	2.64931	0.0	0.0
