16

C	-0.453942	0.060978	-1.469172
C	0.0	0.0	0.0
Cl	-0.109346	-1.521623	-2.259679
H	1.095009	0.0	0.0
C	-1.900123	0.286134	-1.557127
N	-3.05669	0.494168	-1.604497
C	0.328663	1.150932	-2.189127
H	0.079162	2.111727	-1.737465
H	0.082375	1.160362	-3.252661
H	1.392025	0.949032	-2.034183
C	-0.522906	-1.167715	0.699561
N	-0.957337	-2.064512	1.325478
N	-0.350484	1.257409	0.65394
H	0.452996	1.537385	1.210542
H	-1.16055	1.1624	1.252444
H	2.69113	0.0	0.0
