16

C	-0.549732	-0.02631	-1.438658
C	0.0	0.0	0.0
Cl	0.207668	1.316971	-2.364057
H	1.100227	0.0	0.0
C	-0.18483	-1.280266	-2.104739
N	0.061185	-2.30154	-2.631735
C	-2.060679	0.166659	-1.485678
H	-2.412431	0.20836	-2.518624
H	-2.291707	1.106044	-0.981724
H	-2.553798	-0.662394	-0.969986
C	-0.480305	-1.171082	0.715777
N	-0.878302	-2.095438	1.327651
N	-0.367795	1.25019	0.663784
H	-0.989204	1.086675	1.444239
H	0.50345	1.638387	1.020279
H	2.628325	0.0	0.0
