16

C	-0.446411	0.044882	-1.471267
C	0.0	0.0	0.0
Cl	-0.040964	-1.528683	-2.252018
H	1.095015	0.0	0.0
C	-1.89811	0.214988	-1.56873
N	-3.060162	0.383502	-1.621381
C	0.302321	1.15611	-2.191632
H	1.369737	0.99417	-2.020487
H	0.071817	1.144908	-3.258801
H	0.01189	2.110689	-1.753521
C	-0.514274	-1.171959	0.701411
N	-0.944507	-2.070261	1.328343
N	-0.372801	1.254504	0.64728
H	0.389658	1.510797	1.264665
H	-1.223843	1.160049	1.183968
H	2.696733	0.0	0.0
