16

C	-0.4577	0.005936	-1.478778
C	0.0	0.0	0.0
Cl	0.174709	1.496238	-2.270946
H	1.095569	0.0	0.0
C	0.104119	-1.145487	-2.191909
N	0.451285	-2.088483	-2.801411
C	-1.974629	-0.00489	-1.654237
H	-2.234909	0.036819	-2.713878
H	-2.414291	0.862703	-1.157789
H	-2.38616	-0.916422	-1.215374
C	-0.521813	-1.210878	0.621984
N	-0.936239	-2.206499	1.093766
N	-0.344663	1.174811	0.77728
H	-1.159645	1.661037	0.427435
H	0.460681	1.792483	0.729636
H	2.630574	0.0	0.0
