16

C	-0.388053	-0.013824	-1.471286
C	0.0	0.0	0.0
Cl	-2.204139	-0.117066	-1.675261
H	1.096597	0.0	0.0
C	0.011155	1.25318	-2.087943
N	0.346247	2.237844	-2.633548
C	0.273804	-1.183126	-2.179958
H	-0.108571	-2.121612	-1.774004
H	1.349126	-1.111895	-1.975262
H	0.082044	-1.150137	-3.253684
C	-0.439476	-1.225358	0.658928
N	-0.794885	-2.190389	1.231185
N	-0.410525	1.216617	0.674922
H	0.360524	1.512423	1.266432
H	-1.238844	1.080913	1.237279
H	2.647678	0.0	0.0
