16

C	-0.551973	0.00123	-1.438338
C	0.0	0.0	0.0
Cl	0.204204	1.363649	-2.336405
H	1.094152	0.0	0.0
C	-0.191056	-1.238297	-2.132529
N	0.01018	-2.241948	-2.710794
C	-2.062656	0.195118	-1.478522
H	-2.415736	0.259503	-2.509796
H	-2.554817	-0.644897	-0.980622
H	-2.291594	1.122975	-0.953185
C	-0.481576	-1.18403	0.693954
N	-0.88655	-2.121114	1.281135
N	-0.369031	1.237969	0.687695
H	-0.968472	1.055984	1.481133
H	0.506135	1.631565	1.029775
H	2.636905	0.0	0.0
