16

C	-0.549931	-0.011813	-1.437648
C	0.0	0.0	0.0
Cl	0.196655	1.348642	-2.345692
H	1.100197	0.0	0.0
C	-0.172768	-1.251571	-2.120384
N	0.090268	-2.261965	-2.658004
C	-2.061624	0.168993	-1.482291
H	-2.414566	0.225033	-2.514099
H	-2.54645	-0.67192	-0.981669
H	-2.299886	1.096639	-0.962652
C	-0.476497	-1.17873	0.703086
N	-0.870512	-2.108695	1.306328
N	-0.372699	1.239408	0.675761
H	0.494662	1.642686	1.021991
H	-0.976611	1.065463	1.464084
H	2.632337	0.0	0.0
