16

C	-0.456417	0.017259	-1.478783
C	0.0	0.0	0.0
Cl	0.187074	1.506465	-2.26365
H	1.095572	0.0	0.0
C	0.103366	-1.134923	-2.192865
N	0.454658	-2.074358	-2.806838
C	-1.972498	0.019035	-1.653476
H	-2.234405	0.069106	-2.712427
H	-2.403959	0.888365	-1.151767
H	-2.39207	-0.89039	-1.2181
C	-0.524376	-1.210024	0.620116
N	-0.954154	-2.189203	1.109325
N	-0.341502	1.172433	0.784963
H	-1.145468	1.670091	0.428819
H	0.471129	1.78273	0.745493
H	2.629835	0.0	0.0
