16
Coordinates from ORCA-job run
  C   0.86018083572878     -0.50134969567148     -0.09694064201647
  C   -0.56702846423788     -0.02661322199768     -0.41922538638818
  H   1.31856469041090     -0.83939936011627     -1.04121638820008
  H   -1.14264720352883     -0.94214775237492     -0.64384813705159
  N   0.82187180111100     -1.54105555710120      0.93248449776900
  H   0.40988693807227     -2.37882640474235      0.53724892766975
  H   1.76207089369330     -1.77270476505434      1.23030226174550
  C   1.67310524892132      0.62212991301540      0.38316474178372
  N   2.34340425264374      1.49318448517283      0.79424067211842
  N   -0.48489696299858      0.88876303626638     -1.55123010538633
  H   -0.32459144881252      0.38210523539710     -2.41407086313811
  H   -1.35524085489179      1.39646155385339     -1.65196255481898
  C   -1.20815026620408      0.67222821623125      0.76606217760848
  H   -2.26490104818971      0.86969869663593      0.56453887132606
  H   -0.70779892951571      1.62605629140435      0.94858424898299
  H   -1.13282948220223      0.05346932908161      1.65986767799583
