16
Coordinates from ORCA-job run
  C   0.76267958372203     -0.28804026801609      0.39658973327136
  C   -0.46160781054673      0.30518978758343     -0.31100269379499
  H   0.58150603883239     -0.18481400468049      1.47173524541029
  H   -0.25181389814482      0.26951600541708     -1.39588763090261
  N   1.94953884044243      0.49991210111216      0.06414284288631
  H   2.71034518628863      0.27216198945005      0.69315786578451
  H   2.25489032599117      0.27210896578977     -0.87592250709868
  C   0.91446919202226     -1.72095606312593      0.08149307770424
  N   1.07952809684364     -2.84836591495880     -0.20538672920869
  N   -0.60760880083514      1.65976646724061      0.20545366744804
  H   0.26933810596535      2.15049902884734      0.07296917926815
  H   -1.32986063317653      2.14871153979968     -0.30990949509222
  C   -1.72369508968284     -0.49211041572354     -0.02657265830765
  H   -1.65303057995572     -1.51322601880730     -0.40673059318431
  H   -1.90924373030082     -0.51790559615563      1.04996105376055
  H   -2.58443482746530     -0.01544760377235     -0.50309035794430
