15

C	0.0	0.0	0.0
C	-0.48112	-0.04539	-1.449597
Cl	1.798448	0.0	0.0
H	-1.562874	-0.228207	-1.353411
H	-0.002952	-0.895189	-1.946462
N	-0.586479	1.116801	0.663291
H	-0.405553	1.045363	1.661339
H	-1.622311	0.925962	0.52228
C	-0.312159	-1.304892	0.645696
N	-0.482395	-2.343683	1.169627
C	-0.234486	1.252101	-2.204686
H	-0.581302	1.145866	-3.237493
H	0.825571	1.51922	-2.224166
H	-0.786334	2.067687	-1.738354
H	-3.017767	0.0	0.0
