15

C	0.0	0.0	0.0
C	-0.459341	-0.025742	-1.460775
Cl	1.802209	0.0	0.0
H	-1.554371	0.049896	-1.366217
H	-0.073687	0.891767	-1.922971
N	-0.55439	1.080797	0.759245
H	-0.419153	1.926892	0.209397
H	-1.586247	0.859843	0.705425
C	-0.350577	-1.270891	0.671056
N	-0.516637	-2.293415	1.224412
C	-0.071393	-1.258442	-2.263308
H	1.008395	-1.424515	-2.28041
H	-0.551658	-2.145854	-1.843996
H	-0.416166	-1.153061	-3.296265
H	-2.997646	0.0	0.0
