15

C	0.0	0.0	0.0
C	-0.47999	-0.03954	-1.45099
Cl	1.798548	0.0	0.0
H	-1.561843	-0.222102	-1.357015
H	-0.001098	-0.887737	-1.950042
N	-0.587952	1.112811	0.666342
H	-1.624307	0.919396	0.525794
H	-0.406064	1.037835	1.663885
C	-0.31145	-1.309072	0.638135
N	-0.476063	-2.355614	1.147545
C	-0.23111	1.26057	-2.200145
H	-0.583629	1.160967	-3.231847
H	-0.776341	2.075842	-1.726111
H	0.829731	1.523268	-2.224197
H	-3.009653	0.0	0.0
