15

C	0.0	0.0	0.0
C	-0.21673	-0.046544	-1.557234
Cl	1.805827	0.0	0.0
H	0.168431	0.9212	-1.90601
H	0.475692	-0.799523	-1.944241
N	-0.630222	1.049444	0.717063
H	-0.515441	1.905317	0.17921
H	-1.660076	0.785935	0.648209
C	-0.368755	-1.301612	0.58857
N	-0.543373	-2.377384	1.026779
C	-1.582569	-0.311917	-2.169646
H	-1.449647	-0.321598	-3.261454
H	-1.983677	-1.272723	-1.849267
H	-2.330929	0.414725	-1.87014
H	-3.123231	0.0	0.0
