15

C	0.0	0.0	0.0
C	-0.450635	-0.020371	-1.466275
Cl	1.802047	0.0	0.0
H	0.04745	-0.8487	-1.980887
H	-1.531551	-0.214048	-1.389478
N	-0.559778	1.037498	0.8101
H	-1.592987	0.833852	0.722476
H	-0.388927	1.923989	0.345152
C	-0.339285	-1.300738	0.619488
N	-0.496612	-2.344968	1.132829
C	-0.212965	1.295995	-2.193057
H	-0.424808	1.175071	-3.258741
H	0.818246	1.646249	-2.094669
H	-0.887615	2.068841	-1.818684
H	-2.999591	0.0	0.0
