15

C	0.0	0.0	0.0
C	-0.266807	0.106796	-1.539574
Cl	1.79186	0.0	0.0
H	-0.055288	1.159255	-1.758554
H	0.521251	-0.478591	-2.017988
N	-0.636676	1.051303	0.712717
H	-0.507423	0.899473	1.710713
H	-1.666311	0.859833	0.519773
C	-0.333156	-1.365069	0.478199
N	-0.514351	-2.456115	0.877531
C	-1.584509	-0.326836	-2.166912
H	-2.432979	0.244402	-1.802913
H	-1.4678	-0.23632	-3.256185
H	-1.81087	-1.366916	-1.924834
H	-3.139436	0.0	0.0
