15

C	0.0	0.0	0.0
C	-0.484785	0.064809	-1.445304
Cl	1.795165	0.0	0.0
H	-0.131524	1.023492	-1.837193
H	-1.581256	0.10148	-1.338904
N	-0.564927	1.100651	0.713865
H	-1.600184	0.931877	0.58474
H	-0.369869	0.990273	1.705814
C	-0.327101	-1.32399	0.592354
N	-0.496673	-2.377985	1.085033
C	-0.068921	-1.101756	-2.327312
H	1.016083	-1.202177	-2.406147
H	-0.474806	-2.039962	-1.940453
H	-0.469855	-0.960711	-3.334957
H	-3.021204	0.0	0.0
