15

C	0.0	0.0	0.0
C	-0.457421	-0.021124	-1.465458
Cl	1.802818	0.0	0.0
H	0.042131	-0.846821	-1.983222
H	-1.537127	-0.221239	-1.381337
N	-0.565412	1.030122	0.814981
H	-0.404784	1.918734	0.349979
H	-1.598119	0.819056	0.728624
C	-0.340812	-1.307485	0.607029
N	-0.516158	-2.362208	1.094037
C	-0.237589	1.294788	-2.197346
H	-0.904761	2.066509	-1.80692
H	-0.477156	1.171236	-3.257114
H	0.795749	1.646569	-2.125645
H	-3.004919	0.0	0.0
