15

C	0.0	0.0	0.0
C	-0.464488	-0.18736	-1.438698
Cl	1.843555	0.0	0.0
H	0.02582	-1.074465	-1.850219
H	-1.545813	-0.372431	-1.331451
N	-0.586768	1.166916	0.555008
H	-0.421388	1.179543	1.558306
H	-1.625844	0.959089	0.421305
C	-0.284483	-1.238243	0.771106
N	-0.441193	-2.209458	1.414955
C	-0.229841	1.036471	-2.310597
H	-0.550793	0.82381	-3.335015
H	-0.809463	1.879768	-1.936604
H	0.824565	1.324385	-2.333086
H	-2.992995	0.0	0.0
