15

C	0.0	0.0	0.0
C	-0.457427	-0.011849	-1.469778
Cl	1.796929	0.0	0.0
H	0.045964	-0.83959	-1.987985
H	-1.539037	-0.21482	-1.386478
N	-0.54892	1.041032	0.815878
H	-1.581111	0.859422	0.722166
H	-0.350724	1.928993	0.366548
C	-0.352445	-1.304087	0.605328
N	-0.463082	-2.369131	1.087613
C	-0.233874	1.312916	-2.187428
H	-0.449874	1.19192	-3.253366
H	-0.920403	2.073311	-1.80208
H	0.795665	1.673793	-2.088643
H	-2.991282	0.0	0.0
