16

C	0.0	0.0	0.0
C	-0.617953	-0.011292	-1.384799
Cl	1.791995	0.0	0.0
H	-0.313565	-0.93631	-1.879518
H	-1.716999	0.031549	-1.154878
N	-0.412912	1.282324	0.715536
O	-0.545416	2.280952	0.017831
O	-0.516032	1.247541	1.934072
C	-0.513973	-1.191761	0.768349
H	-0.163476	-2.101541	0.276312
H	-0.13933	-1.163868	1.790042
H	-1.611801	-1.085567	0.71853
N	-0.242906	1.081177	-2.326993
O	0.948941	1.272887	-2.571953
O	-1.167389	1.680379	-2.871886
F	-2.863143	0.0	0.0
