16

C	0.0	0.0	0.0
C	-0.668776	0.135207	-1.343241
Cl	1.788825	0.0	0.0
H	-0.475652	1.098151	-1.803023
H	-1.798429	0.046854	-1.006006
N	-0.357329	1.304282	0.749812
O	-0.386125	2.341019	0.095632
O	-0.514308	1.236522	1.960576
C	-0.472486	-1.173722	0.827885
H	-0.165491	-2.088432	0.326969
H	-1.562238	-1.082613	0.857081
H	-0.033222	-1.128784	1.822499
N	-0.331841	-0.887285	-2.335652
O	0.101086	-1.986836	-1.985259
O	-0.564946	-0.591728	-3.510951
F	-2.867858	0.0	0.0
