16

C	0.0	0.0	0.0
C	-0.66491	0.092016	-1.353371
Cl	1.770252	0.0	0.0
H	-0.419475	1.009129	-1.8814
H	-1.784895	0.05532	-1.042149
N	-0.371029	1.313023	0.719071
O	-0.451576	2.328324	0.035814
O	-0.480216	1.276938	1.936978
C	-0.496123	-1.160284	0.834807
H	-1.586787	-1.053383	0.844217
H	-0.07063	-1.110931	1.835462
H	-0.188843	-2.084136	0.350271
N	-0.361944	-1.012413	-2.28104
O	0.312748	-1.980515	-1.921695
O	-0.841566	-0.895129	-3.410997
F	-2.8858	0.0	0.0
