16
Coordinates from ORCA-job run
  C   -0.99726599961739     -0.19058733737617      0.01079893628220
  C   0.49217759283239     -0.46601054284777      0.26859504179341
  F   -1.66960557644226     -0.62701801520518      1.17070570248181
  H   0.60617858775757     -1.53806351778925      0.43073502267205
  C   -1.44460613423073     -1.07764659227461     -1.08247622641936
  N   -1.77616322902958     -1.79144729871768     -1.95346962871854
  N   -1.27518000243182      1.14414392024122     -0.32880639057942
  H   -0.93442102781526      1.77875261801714      0.38223910542831
  H   -2.26037239984350      1.28627744252175     -0.50812970666096
  N   0.87944774527696      0.14793462823660      1.58293684906179
  O   1.38278537608294     -0.59359403590025      2.41892790648739
  O   0.69860451507237      1.35856616389565      1.71464655244834
  C   1.40710978986101      0.05202963757795     -0.82203569408982
  H   1.31395146715943      1.13283421259801     -0.91460475521184
  H   1.13658289353464     -0.40342970663831     -1.77639719739323
  H   2.44177640183321     -0.21074157633912     -0.59366551758214
