16
Coordinates from ORCA-job run
  C   -0.94563992842248     -0.04640515406373     -0.22917681193479
  C   0.42431086646310     -0.43841203253406      0.34216693440833
  F   -1.44163966470846     -1.24614638962210     -0.78786073559979
  H   0.24268754219101     -1.24178176125925      1.05934745183646
  C   -0.84085268012414      0.90524257200928     -1.35003753858915
  N   -0.77721792882419      1.63666479789738     -2.26586025419621
  N   -1.77292250433328      0.48830944937600      0.77120876367720
  H   -2.68574649287800      0.75115196453897      0.42480209514240
  H   -1.84930958898094     -0.11964395411532      1.57657338570659
  N   0.93267944973403      0.71086185699374      1.15593212214762
  O   1.37805441211064      1.67418237704402      0.53913191776277
  O   0.85372016862923      0.60382460302078      2.37753235925284
  C   1.43328185373316     -0.84085818269791     -0.71085901517155
  H   1.03477308467189     -1.67082715931201     -1.29502439852082
  H   2.36144169587189     -1.16219010922015     -0.23496858659881
  H   1.65137971486653     -0.00397287805564     -1.37390768932309
