16

C	-0.374656	0.033043	-1.467634
C	0.0	0.0	0.0
F	-1.789927	0.052016	-1.572051
H	1.093968	0.0	0.0
H	-0.36581	-0.926082	0.467789
N	0.101179	1.228842	-2.118954
H	1.116972	1.145399	-2.144227
H	-0.089542	1.977425	-1.455985
C	0.127543	-1.197714	-2.18656
H	1.205869	-1.291321	-2.027657
H	-0.091947	-1.108784	-3.252893
H	-0.367476	-2.087661	-1.789922
N	-0.45288	1.220158	0.675249
H	0.239572	1.465509	1.37096
H	-1.336177	1.067791	1.140271
H	3.036755	0.0	0.0
