16

C	-0.503743	0.082379	-1.425471
C	0.0	0.0	0.0
F	-0.10223	-1.125535	-2.063635
H	1.092757	0.0	0.0
H	-0.348373	-0.955711	0.42827
N	-1.939671	0.15585	-1.462528
H	-2.304002	-0.699823	-1.055643
H	-2.2401	0.182014	-2.431498
C	0.132941	1.216158	-2.189155
H	-0.141743	2.159106	-1.719895
H	-0.195521	1.203635	-3.234146
H	1.216348	1.09328	-2.140799
N	-0.419257	1.186261	0.748011
H	-1.345069	1.064001	1.135924
H	0.243041	1.326389	1.501385
H	3.11589	0.0	0.0
