16

C	-0.525343	0.034899	-1.419093
C	0.0	0.0	0.0
F	-0.082159	-1.165958	-2.042732
H	1.094721	0.0	0.0
H	-0.33665	-0.946161	0.459527
N	-1.96432	0.044533	-1.432126
H	-2.282253	0.01957	-2.395809
H	-2.281004	-0.811829	-0.987186
C	0.045549	1.181189	-2.216072
H	-0.304848	1.135168	-3.253203
H	-0.261178	2.118888	-1.757093
H	1.133809	1.107796	-2.190895
N	-0.419038	1.201017	0.724155
H	0.283773	1.395312	1.422493
H	-1.306685	1.063529	1.182334
H	3.102283	0.0	0.0
