16

C	-0.519754	0.054697	-1.430731
C	0.0	0.0	0.0
F	-0.302803	-1.214924	-1.993935
H	1.097294	0.0	0.0
H	-0.387509	-0.91785	0.449625
N	-1.940307	0.28981	-1.424019
H	-2.100698	0.951734	-0.669881
H	-2.226232	0.716911	-2.297673
C	0.280473	1.026483	-2.27868
H	0.118536	2.046066	-1.91664
H	-0.048229	0.965382	-3.322255
H	1.344666	0.791451	-2.203074
N	-0.485464	1.182605	0.755594
H	-0.653953	0.897406	1.712983
H	0.299234	1.828897	0.803681
H	3.102775	0.0	0.0
