16

C	-0.433342	0.015257	-1.458591
C	0.0	0.0	0.0
F	-0.1865	-1.248065	-2.017018
H	1.093793	0.0	0.0
H	-0.32776	0.945017	0.457907
N	-1.879076	0.174631	-1.557982
H	-2.134221	0.260922	-2.537114
H	-2.134728	1.039528	-1.096045
C	0.389828	1.001343	-2.264224
H	0.187377	2.022859	-1.928782
H	1.451911	0.792023	-2.106271
H	0.136545	0.920576	-3.327039
N	-0.518146	-1.13426	0.76049
H	-1.406772	-1.408412	0.35502
H	0.127767	-1.901474	0.614764
H	3.124118	0.0	0.0
