16

C	-0.466032	-0.032503	-1.443429
C	0.0	0.0	0.0
F	-1.905681	-0.254357	-1.420187
H	1.092703	0.0	0.0
H	-0.34356	-0.930985	0.464183
N	-0.21228	1.192253	-2.115435
H	-0.530918	1.966231	-1.548159
H	-0.699286	1.205854	-3.002605
C	0.139554	-1.193625	-2.192624
H	1.226656	-1.108083	-2.130364
H	-0.175634	-2.134389	-1.736745
H	-0.182161	-1.188626	-3.239093
N	-0.481871	1.135848	0.782073
H	0.154712	1.914041	0.670744
H	-1.415345	1.405192	0.497169
H	3.102609	0.0	0.0
