14

C	0.0	0.0	0.0
C	-0.446169	-0.013611	-1.461537
Br	1.979646	0.0	0.0
H	-0.184788	-1.006713	-1.861475
H	-1.543763	0.043504	-1.356715
C	-0.328022	1.302549	0.610084
N	-0.504132	2.349889	1.111723
N	-0.581335	-1.04218	0.778587
H	-0.464087	-1.91056	0.259768
H	-1.615027	-0.794267	0.710464
N	0.061574	1.107009	-2.232601
H	-0.604735	1.355932	-2.95145
H	0.945526	0.879578	-2.667419
H	-2.992453	0.0	0.0
