14

C	0.0	0.0	0.0
C	-0.522775	0.051846	-1.448189
Br	1.966837	0.0	0.0
H	-1.506778	0.527203	-1.337641
H	0.139878	0.649252	-2.079313
C	-0.305837	1.292786	0.643739
N	-0.484404	2.356046	1.111507
N	-0.543705	-1.062157	0.783376
H	-1.57	-0.841321	0.765067
H	-0.424448	-1.900933	0.218995
N	-0.672862	-1.308418	-1.958223
H	-0.510224	-1.321826	-2.955945
H	-1.644909	-1.56089	-1.793049
H	-3.036847	0.0	0.0
