14

C	0.0	0.0	0.0
C	-0.440539	0.44804	-1.379344
Br	2.043084	0.0	0.0
H	-1.538469	0.502507	-1.262085
H	-0.20088	-0.37634	-2.064374
C	-0.239677	1.066575	0.99846
N	-0.416605	1.854763	1.853986
N	-0.625976	-1.22551	0.296608
H	-0.482126	-1.452108	1.277853
H	-1.677502	-0.942107	0.196341
N	0.092553	1.749771	-1.750467
H	1.020162	1.647263	-2.142542
H	-0.506609	2.160373	-2.455932
H	-2.944618	0.0	0.0
