14

C	0.0	0.0	0.0
C	-0.284856	-0.020651	-1.537309
Br	1.966417	0.0	0.0
H	0.452885	-0.717718	-1.947979
H	-0.000897	0.983159	-1.893402
C	-0.349708	1.295073	0.616199
N	-0.555368	2.321444	1.153212
N	-0.549658	-1.142484	0.654911
H	-1.573072	-1.057669	0.503714
H	-0.395625	-1.056485	1.655842
N	-1.615121	-0.451874	-1.921888
H	-1.887311	0.060707	-2.753782
H	-2.32742	-0.219979	-1.18297
H	-3.229562	0.0	0.0
