14

C	0.0	0.0	0.0
C	-0.371308	-0.446942	-1.467217
Br	1.945651	0.0	0.0
H	-0.313479	-1.541364	-1.430556
H	0.431434	-0.092532	-2.120277
C	-0.309848	1.44118	0.142044
N	-0.509191	2.59566	0.251129
N	-0.628918	-0.837353	0.967472
H	-1.650162	-0.744274	0.7496
H	-0.502501	-0.440563	1.894314
N	-1.630065	-0.015985	-2.012186
H	-2.390599	-0.144142	-1.309729
H	-1.59254	0.985097	-2.170778
H	-3.26658	0.0	0.0
