14

C	0.0	0.0	0.0
C	-0.402982	-0.147954	-1.516587
Br	1.965078	0.0	0.0
H	0.438543	0.200505	-2.118839
H	-0.494235	-1.230676	-1.65864
C	-0.292505	1.382458	0.44007
N	-0.490735	2.485454	0.798158
N	-0.618423	-1.01145	0.790778
H	-0.491199	-0.798926	1.776876
H	-1.640485	-0.88631	0.591291
N	-1.602359	0.51602	-1.953786
H	-2.377585	0.288097	-1.292753
H	-1.46531	1.520212	-1.890571
H	-3.247705	0.0	0.0
