14

C	0.0	0.0	0.0
C	-0.492598	0.023903	-1.445408
Br	1.952847	0.0	0.0
H	-1.581418	-0.110005	-1.341743
H	-0.048068	-0.840969	-1.943487
C	-0.319238	1.291685	0.657003
N	-0.512038	2.320432	1.194276
N	-0.577611	-1.139035	0.639706
H	-0.365959	-1.110158	1.63337
H	-1.613159	-0.948912	0.53454
N	-0.113985	1.260568	-2.128768
H	-0.807042	1.963676	-1.891701
H	-0.185107	1.110166	-3.127305
H	-3.029456	0.0	0.0
