14

C	0.0	0.0	0.0
C	-0.332979	-0.316457	-1.511711
Br	1.94778	0.0	0.0
H	-0.202459	-1.405222	-1.595911
H	0.440333	0.14526	-2.132111
C	-0.343051	1.409432	0.259706
N	-0.543815	2.558596	0.404043
N	-0.629936	-0.830309	0.972946
H	-1.646453	-0.590779	0.894142
H	-0.536932	-1.794918	0.665397
N	-1.624192	0.078372	-1.999655
H	-1.630413	1.086802	-2.114675
H	-2.362246	-0.098409	-1.279507
H	-3.273367	0.0	0.0
