17

C	-0.468986	-0.021055	-1.45498
C	0.0	0.0	0.0
Br	0.01948	1.774279	-2.305144
H	1.092231	0.0	0.0
N	0.169117	-1.109714	-2.087946
H	-0.079849	-1.175635	-3.068344
H	1.18083	-1.041919	-1.963204
C	-1.9223	-0.10706	-1.635301
N	-3.073652	-0.250079	-1.82646
C	-0.553195	-1.173959	0.790706
H	-0.136976	-1.142717	1.7998
H	-1.643833	-1.131351	0.843501
H	-0.243863	-2.103551	0.315287
N	-0.453929	1.24863	0.690417
O	0.383527	1.907836	1.29718
O	-1.659909	1.504004	0.645002
Br	3.362486	0.0	0.0
