16

C	-0.432441	-0.04069	-1.472589
C	0.0	0.0	0.0
F	-0.167367	1.201067	-2.039988
H	1.095029	0.0	0.0
C	0.338875	-1.099395	-2.230819
H	0.067626	-1.063677	-3.288088
H	1.404511	-0.894339	-2.101553
H	0.111518	-2.081529	-1.818415
C	-1.894491	-0.252275	-1.563801
N	-3.051643	-0.44474	-1.613283
N	-0.432134	-1.23172	0.651318
H	-1.355696	-1.124407	1.05658
H	0.226202	-1.453275	1.390366
C	-0.500358	1.219796	0.650749
N	-0.924862	2.151616	1.227718
Cl	3.302286	0.0	0.0
