16

C	-0.442166	0.027059	-1.4622
C	0.0	0.0	0.0
F	-1.843163	0.089539	-1.505659
H	1.095389	0.0	0.0
C	0.12737	1.215459	-2.208982
H	-0.178795	1.179722	-3.256352
H	-0.251814	2.134977	-1.757833
H	1.217876	1.195332	-2.131503
C	-0.054637	-1.238621	-2.113318
N	0.262053	-2.210796	-2.690283
N	-0.471217	-1.209124	0.650642
H	-1.416639	-1.095933	0.995666
H	0.14642	-1.434438	1.421231
C	-0.470774	1.234149	0.65593
N	-0.873021	2.177034	1.231147
Cl	3.261899	0.0	0.0
