16

C	-0.435661	-0.059754	-1.473365
C	0.0	0.0	0.0
F	-0.235829	1.191901	-2.04607
H	1.095248	0.0	0.0
C	0.383365	-1.082043	-2.229698
H	1.437139	-0.821794	-2.110088
H	0.212128	-2.071521	-1.80682
H	0.102651	-1.072225	-3.285037
C	-1.88373	-0.34609	-1.557597
N	-3.033246	-0.579978	-1.609958
N	-0.41869	-1.230036	0.664091
H	0.268988	-1.466186	1.369308
H	-1.323508	-1.120312	1.106557
C	-0.511357	1.217353	0.641952
N	-0.970966	2.137098	1.211056
Cl	3.306944	0.0	0.0
