16

C	-0.435909	-0.030402	-1.472215
C	0.0	0.0	0.0
F	-0.174982	1.214619	-2.034082
H	1.095021	0.0	0.0
C	0.329251	-1.086282	-2.238849
H	1.394874	-0.883766	-2.11137
H	0.101263	-2.070517	-1.831779
H	0.055408	-1.04443	-3.295149
C	-1.89718	-0.243828	-1.557141
N	-3.054784	-0.435613	-1.604764
N	-0.435037	-1.232152	0.648078
H	-1.355048	-1.120967	1.062771
H	0.229911	-1.463956	1.379252
C	-0.496453	1.216884	0.657659
N	-0.919134	2.144825	1.241947
Cl	3.30695	0.0	0.0
