16

C	-0.434706	0.053553	-1.462195
C	0.0	0.0	0.0
F	-1.83085	0.207267	-1.515502
H	1.101664	0.0	0.0
C	0.219719	1.197505	-2.206723
H	1.304835	1.09873	-2.126317
H	-0.085973	1.185648	-3.254382
H	-0.088903	2.141826	-1.753953
C	-0.140444	-1.233691	-2.117661
N	0.058333	-2.195784	-2.759671
N	-0.467532	-1.216652	0.644178
H	-1.369298	-1.081231	1.082856
H	0.208845	-1.492745	1.34427
C	-0.454314	1.225754	0.675851
N	-0.858511	2.165918	1.254004
Cl	3.267874	0.0	0.0
