16

C	-0.376578	-0.030071	-1.502029
C	0.0	0.0	0.0
F	-0.10021	1.21486	-2.051475
H	1.096412	0.0	0.0
C	0.437875	-1.071022	-2.243624
H	1.493835	-0.881202	-2.036516
H	0.238928	-0.994696	-3.314311
H	0.178001	-2.076049	-1.90739
C	-1.827016	-0.267225	-1.658322
N	-2.974257	-0.502413	-1.751103
N	-0.424635	-1.166041	0.751313
H	0.230267	-1.923486	0.611314
H	-1.368913	-1.457128	0.525977
C	-0.536975	1.218311	0.613586
N	-1.017768	2.174101	1.097227
Cl	3.312376	0.0	0.0
