15

C	-0.36675	-0.014023	-1.47204
C	0.0	0.0	0.0
Br	-2.432592	-0.427982	-1.656452
H	1.09742	0.0	0.0
H	0.042093	-0.900238	-1.953612
N	-0.006244	1.142762	-2.141461
H	-0.180257	1.122089	-3.13396
H	-0.343195	1.993778	-1.713617
C	-0.430084	-1.23782	0.783763
H	-0.103418	-2.131456	0.246569
H	-1.509758	-1.281956	0.927998
H	0.072636	-1.231194	1.752794
C	-0.476675	1.229573	0.624845
N	-0.879222	2.228151	1.095881
Br	3.465842	0.0	0.0
