15

C	-0.235219	-0.030935	-1.512679
C	0.0	0.0	0.0
Br	-2.167512	-0.044829	-1.943142
H	1.101533	0.0	0.0
H	0.136544	-0.988463	-1.883319
N	0.407767	1.023613	-2.246713
H	0.1342	1.919764	-1.85514
H	1.410048	0.915671	-2.084902
C	-0.512725	-1.214349	0.762
H	-1.603751	-1.257989	0.761649
H	-0.118535	-2.121265	0.296651
H	-0.153122	-1.184763	1.792422
C	-0.474177	1.254456	0.570537
N	-0.87585	2.263593	1.019836
Br	3.456831	0.0	0.0
