15

C	-0.432729	-0.085711	-1.473453
C	0.0	0.0	0.0
Br	-0.09998	1.640472	-2.370289
H	1.096819	0.0	0.0
H	-1.514735	-0.225475	-1.550915
N	0.234675	-1.118367	-2.212362
H	1.22795	-1.105658	-1.989857
H	-0.152231	-2.020588	-1.962987
C	-0.437091	-1.265996	0.749786
H	-0.14692	-1.18793	1.79873
H	0.07389	-2.135692	0.335192
H	-1.520743	-1.415616	0.696419
C	-0.539365	1.169225	0.68159
N	-1.021435	2.055676	1.283802
Br	3.494877	0.0	0.0
