15

C	-0.358207	-0.118609	-1.484921
C	0.0	0.0	0.0
Br	-0.251489	1.718663	-2.380237
H	1.096858	0.0	0.0
H	-1.409	-0.363382	-1.651483
N	0.496388	-1.07137	-2.066114
H	0.367838	-1.156246	-3.064466
H	1.471727	-0.872168	-1.843525
C	-0.453396	-1.26331	0.746183
H	-0.107193	-1.218999	1.780504
H	-1.54416	-1.357189	0.743394
H	-0.011447	-2.136003	0.266842
C	-0.54908	1.178637	0.653448
N	-1.03709	2.064336	1.251702
Br	3.49311	0.0	0.0
