15

C	-0.561865	-0.004507	-1.421543
C	0.0	0.0	0.0
Br	0.193842	1.465947	-2.458213
H	1.094863	0.0	0.0
H	-1.635934	0.228035	-1.383838
N	-0.254092	-1.254017	-2.095795
H	-0.925905	-1.955118	-1.802089
H	-0.342016	-1.134447	-3.097195
C	-0.437498	-1.264493	0.752543
H	-1.526851	-1.388641	0.752844
H	-0.095268	-1.207041	1.786682
H	0.040566	-2.129482	0.292163
C	-0.493626	1.182362	0.705385
N	-0.953749	2.105183	1.268612
Br	3.553433	0.0	0.0
