15

C	-0.370042	-0.013863	-1.471028
C	0.0	0.0	0.0
Br	-2.435569	-0.416561	-1.652057
H	1.09747	0.0	0.0
H	0.034097	-0.903285	-1.952466
N	-0.001199	1.140062	-2.14166
H	-0.324598	1.995193	-1.712536
H	-0.177602	1.122635	-3.133702
C	-0.430355	-1.237617	0.784329
H	0.071687	-1.230527	1.75353
H	-0.103189	-2.131379	0.247655
H	-1.50992	-1.28174	0.928278
C	-0.474293	1.229672	0.62601
N	-0.875502	2.229195	1.09649
Br	3.465437	0.0	0.0
