15

C	-0.499361	0.022838	-1.460089
C	0.0	0.0	0.0
Br	0.024077	-1.633958	-2.359724
H	1.095433	0.0	0.0
H	0.044625	0.806921	-1.989341
N	-1.91639	0.218262	-1.674733
H	-2.441152	-0.484158	-1.167012
H	-2.174013	1.131394	-1.313063
C	-0.491881	-1.172389	0.847961
H	-0.082366	-2.102744	0.456406
H	-0.132143	-1.050283	1.871032
H	-1.584203	-1.238735	0.873427
C	-0.452736	1.26411	0.584632
N	-0.872835	2.282109	0.996309
Br	3.4981	0.0	0.0
