15

C	-0.492003	0.011891	-1.447347
C	0.0	0.0	0.0
Br	0.27077	-1.590672	-2.409912
H	1.094163	0.0	0.0
H	-0.029316	0.841509	-1.981009
N	-1.905508	0.086005	-1.552554
H	-2.34028	-0.733694	-1.148937
H	-2.193941	0.156998	-2.519499
C	-0.48526	-1.183938	0.838151
H	-0.167267	-2.117901	0.37411
H	-1.571829	-1.184696	0.967988
H	-0.025026	-1.126132	1.825745
C	-0.440877	1.256111	0.614056
N	-0.810167	2.245818	1.128144
Br	3.509633	0.0	0.0
