12

C	-0.442875	-0.000827	-1.44346
C	0.0	0.0	0.0
F	-1.835158	0.081425	-1.568762
H	1.093612	0.0	0.0
H	-0.321223	0.937614	0.463378
C	0.111593	1.171504	-2.149877
N	0.536194	2.092371	-2.741387
C	-0.026487	-1.230383	-2.144605
N	0.266597	-2.19923	-2.739874
C	-0.543727	-1.132582	0.722246
N	-0.950005	-2.0548	1.327904
H	2.616932	0.0	0.0
