12

C	-0.437582	-0.009039	-1.456354
C	0.0	0.0	0.0
F	-0.043763	1.16193	-2.071648
H	1.09364	0.0	0.0
H	-0.310405	-0.933898	0.479479
C	0.167513	-1.150037	-2.179031
N	0.595942	-2.034103	-2.821768
C	-1.906743	-0.112196	-1.606124
N	-3.074499	-0.200301	-1.70651
C	-0.557244	1.138721	0.702271
N	-0.972379	2.068634	1.289788
H	2.626231	0.0	0.0
