12

C	-0.44484	-0.000456	-1.443959
C	0.0	0.0	0.0
F	-1.8358	-0.083392	-1.566624
H	1.09367	0.0	0.0
H	-0.318844	-0.938792	0.464849
C	-0.02593	1.228344	-2.14444
N	0.268575	2.200172	-2.73497
C	0.111424	-1.167581	-2.157165
N	0.533082	-2.095506	-2.741075
C	-0.545053	1.129951	0.723725
N	-0.95483	2.049728	1.330775
H	2.618524	0.0	0.0
