12

C	-0.438652	0.032508	-1.455782
C	0.0	0.0	0.0
F	-0.046216	-1.128845	-2.089521
H	1.093585	0.0	0.0
H	-0.310842	0.925924	0.494698
C	-1.907826	0.138456	-1.60131
N	-3.075457	0.229211	-1.696443
C	0.165799	1.184009	-2.162549
N	0.591648	2.076729	-2.795483
C	-0.556757	-1.150555	0.682814
N	-0.968871	-2.093298	1.251963
H	2.625467	0.0	0.0
