12

C	-0.439789	-0.018025	-1.444143
C	0.0	0.0	0.0
F	-1.831471	0.060756	-1.573791
H	1.093588	0.0	0.0
H	-0.32269	0.942522	0.451756
C	0.115491	1.146168	-2.164086
N	0.533726	2.059487	-2.771359
C	-0.019801	-1.254182	-2.132063
N	0.2711	-2.228481	-2.719626
C	-0.54435	-1.124778	0.733688
N	-0.953719	-2.042117	1.344431
H	2.617366	0.0	0.0
