15
Coordinates from ORCA-job run
  C   -0.46359103529203      0.02128627519819      0.00130179809985
  C   1.03781920036063      0.08805398883725     -0.26177908385703
  F   -0.92017888229083     -1.09264180180316     -0.75359979924318
  H   1.23496731564143      0.37638452900412     -1.29148525465377
  H   1.51692233533056      0.76995262298039      0.44098839910143
  N   -0.74606076062897     -0.12149319076694      1.37940713479164
  H   -1.74231815132648     -0.21724004415413      1.52803232113335
  H   -0.26064749583273     -0.91843857357124      1.77099401180064
  C   -1.15839708498104      1.23908660219181     -0.56955587615174
  H   -2.23051310577750      1.16809876811909     -0.37306638531409
  H   -1.01284234285857      1.28659362117092     -1.64927484591745
  H   -0.77907139382291      2.14921519837569     -0.10350669056513
  N   1.67809809951123     -1.24800327515718     -0.08674047650663
  O   2.26148966389824     -1.72735766936223     -1.05277216106385
  O   1.58332363806897     -1.77349705106258      1.02205690834598
