15
Coordinates from ORCA-job run
  C   -0.61678527896051     -0.10911959609021     -0.14190112219686
  C   0.68699152427967     -0.68166945254185     -0.69708011046863
  F   -1.58802053147468     -0.64992399020229     -1.03223190456480
  H   0.60770925938578     -1.76526642869619     -0.76986589082257
  H   0.91020989028617     -0.24608991331345     -1.66955597789223
  N   -0.80373392170422     -0.55358904263713      1.18408446035282
  H   -1.66460421215928     -0.20040337327371      1.57952403457494
  H   -0.77719311173664     -1.56218331017388      1.26049344440862
  C   -0.73672000624981      1.39382716997464     -0.23933091566377
  H   -1.72747870187236      1.69653804327451      0.10767970341162
  H   0.02439082505859      1.88121758726821      0.36688587869232
  H   -0.62854234172527      1.70934308290080     -1.27723148078830
  N   1.82356747245826     -0.38186577399410      0.21034104927809
  O   2.29201446126617      0.75395904837315      0.15900532875546
  O   2.19919467314815     -1.28177405086850      0.95718350292328
