15
Coordinates from ORCA-job run
  C   -0.54057688131068     -0.28448830125265      0.06269448671164
  C   0.91001257830905     -0.73776200371126      0.20782963626845
  F   -1.12255791790729     -1.03235774878318     -0.94998842259393
  H   0.93836679924860     -1.82330632310463      0.14109224376408
  H   1.33017570526433     -0.38439245262878      1.14774354091404
  N   -1.20597118069364     -0.69396291479691      1.28340357446739
  H   -1.02771131390361     -0.02193947408673      2.02073223363266
  H   -2.20489109479817     -0.71151201115800      1.11045050543602
  C   -0.69721359086775      1.17562043268891     -0.31556869622973
  H   -0.19925866769677      1.82192461221060      0.41002223884346
  H   -0.27476916006858      1.37173634432527     -1.30206387868324
  H   -1.76142587493049      1.41749792389516     -0.34113888729293
  N   1.75337467548222     -0.18273254645480     -0.88039020100351
  O   1.73420225536870     -0.76936216423366     -1.95974354777864
  O   2.36824366850408      0.85603662709066     -0.63607482645575
