15
Coordinates from ORCA-job run
  C   -0.51556041228292     -0.12603508316137      0.05908196650833
  C   0.91627158271605     -0.60236407619956      0.29138371802154
  F   -0.92498928258677     -0.72097010434233     -1.15650423525294
  H   1.36810099738598     -0.05492431322978      1.11656484241722
  H   0.92768542057179     -1.67562657255986      0.47638967949039
  N   -1.28746029872716     -0.59573051483462      1.15497072687595
  H   -1.33087613345872     -1.60773071582842      1.15779715032066
  H   -2.23026908231415     -0.22984701729427      1.11423254929041
  C   -0.67080321884561      1.36820959263801     -0.10805188427529
  H   -0.35026787331819      1.88709971580635      0.79568695187956
  H   -0.08402306256723      1.72313567100771     -0.95225545718774
  H   -1.72316179505566      1.59249522164376     -0.29739101330113
  N   1.76032456164365     -0.37980236918188     -0.91339039411782
  O   1.99302153622378     -1.34977965683708     -1.62880472795609
  O   2.15300706061517      0.76987022237333     -1.10970987271306
