15
Coordinates from ORCA-job run
  C   -0.66760556430176     -0.22503132059001     -0.24008990853395
  C   0.70905518002912     -0.70734842583136     -0.69909398023863
  F   -1.50826421454056     -0.61263594268905     -1.29707908751725
  H   0.74857558273271     -1.79511926224217     -0.64290367971624
  H   0.90441683532228     -0.35357411505948     -1.70787040646155
  N   -1.06813916787019     -0.92829233162275      0.93083273486042
  H   -0.28051496247997     -1.17396537858020      1.51444782987277
  H   -1.74879478047347     -0.41177378427491      1.47059717801266
  C   -0.77066117552942      1.28575074357790     -0.15566437224120
  H   -0.46981435121945      1.75561428405914     -1.09347578372077
  H   -0.15093038623850      1.67525820581321      0.65374246075320
  H   -1.81189020964997      1.55082114316806      0.04256559555326
  N   1.77653009540691     -0.16319082997305      0.17786294323187
  O   2.45118350988565      0.76876953338250     -0.25312234243277
  O   1.88685360892662     -0.66528251913782      1.29825081857817
