15
Coordinates from ORCA-job run
  C   -0.52288634825075      0.00903824868853      0.05319161271849
  C   0.90668277651962     -0.17109989426417     -0.48342957488209
  F   -1.19003507814685     -1.14886009182841     -0.36211844775902
  H   0.91152855073196     -0.19922696298995     -1.57116606545847
  H   1.56073998780947      0.61363368900675     -0.10208088494885
  N   -0.66216978256626      0.10483666994662      1.46630212770317
  H   -0.00229237673108     -0.48542944270141      1.95495196073025
  H   -0.58629540968668      1.05760146924213      1.79038269268038
  C   -1.18423612243051      1.19079668596784     -0.62501049671651
  H   -1.23602138305296      1.02448277949750     -1.70118865537933
  H   -2.19864880186303      1.28678099524096     -0.23584644896988
  H   -0.63716304852881      2.11733772848760     -0.43417889877568
  N   1.47423549192851     -1.47217860374932     -0.03587713770172
  O   1.67707935230502     -2.33100980549103     -0.88710869171313
  O   1.69048219196235     -1.59670346505366      1.17117690847240
