15
Coordinates from ORCA-job run
  C   -0.51094249612349     -0.12415279309108      0.09881496479263
  C   0.92492067829579     -0.64150017148346      0.14362081084629
  F   -1.05280011646791     -0.60198268129932     -1.11663194735025
  H   1.46723823541118     -0.18116279381815      0.96744259808156
  H   0.92768144734634     -1.72743528132295      0.22759020778100
  N   -1.18208184820819     -0.67726277189578      1.22152074707543
  H   -1.24757964551925     -1.68495211521680      1.14267503818691
  H   -2.11561436291509     -0.29591429723697      1.30739905819655
  C   -0.64487801468864      1.38139085436660      0.07834794616658
  H   -1.70547068518423      1.63919492333645      0.03004465396643
  H   -0.21114162595752      1.81513342040764      0.97966749392867
  H   -0.14748029735956      1.79817111639671     -0.79451269912753
  N   1.65296468590024     -0.31901282954945     -1.11267569783682
  O   2.05335609739356      0.83789245364495     -1.23894279947030
  O   1.79182794807678     -1.22040703323839     -1.93436037523713
