15
Coordinates from ORCA-job run
  C   -0.54428746347938     -0.28308328104470      0.03070193913785
  C   0.90098568937615     -0.77294350765282      0.07726247422678
  F   -1.15611898426171     -0.86340648171099     -1.07057844939590
  H   0.90915388971640     -1.83680657812274     -0.15017455455780
  H   1.34469861550263     -0.56912989855344      1.05015140771301
  N   -1.19457153220826     -0.86124940137917      1.18936489705573
  H   -2.19713996335065     -0.82789805777759      1.04154328759136
  H   -0.98197232375708     -0.31669940508244      2.01720757295130
  C   -0.68433255719272      1.21910718736258     -0.12322986982323
  H   -1.74495370287809      1.47562081659406     -0.09147810618448
  H   -0.27624717441117      1.55480577280107     -1.07758091805469
  H   -0.16382181961122      1.74355399043242      0.68061141978622
  N   1.73324269699697     -0.07440646148628     -0.93418945770485
  O   2.36525356795142      0.91150333490365     -0.55298001474508
  O   1.68911106160670     -0.49796802928361     -2.08663162799622
