15
Coordinates from ORCA-job run
  C   -0.61770255140873     -0.11264129379880     -0.13481961005735
  C   0.68345746439368     -0.64718976668521     -0.73216396475327
  F   -1.59685927823136     -0.63534614923118     -1.02761621778374
  H   0.88371271054606     -0.17564423483445     -1.69283950229716
  H   0.61652667602744     -1.72851397841480     -0.84202558994891
  N   -0.77553296622657     -0.60630238387044      1.17718755700595
  H   -0.73431699702467     -1.61639733446324      1.21840663965237
  H   -1.63241875463073     -0.27814268750860      1.60159899697016
  C   -0.76027860122500      1.39093432460234     -0.17637130720752
  H   -1.75056344053384      1.66564637094311      0.19447420813489
  H   0.00222666240240      1.86688790492556      0.43712592520614
  H   -0.67121160991170      1.74577605919969     -1.20332169205739
  N   1.83248626807234     -0.36368930376780      0.16491713401253
  O   2.23572742929420     -1.28476971260207      0.87036443186770
  O   2.28274698845649      0.78039218550589      0.14708299125558
