15
Coordinates from ORCA-job run
  C   -0.69428278153255     -0.15717266473113     -0.21495894214656
  C   0.61752320230628     -0.72054186342441     -0.76288071390711
  F   -1.60920110625065     -0.44383770702905     -1.24446154556527
  H   0.80240494207736     -0.32173218572276     -1.75679165904403
  H   0.56638372906636     -1.80918107858598     -0.77442146336197
  N   -1.08752663604584     -0.86632161194316      0.95191590545505
  H   -0.30305642800741     -1.25481375113998      1.45570093064499
  H   -1.65843152193480     -0.30811822913555      1.57042796067856
  C   -0.68318307732236      1.35265244113307     -0.07498243141953
  H   -1.68944286533920      1.68242668372695      0.19436647218920
  H   -0.40562253420996      1.83342804795447     -1.01420998742004
  H   0.00984566835317      1.66854220759018      0.70641971942741
  N   1.76230552511564     -0.32436607032502      0.09566974329532
  O   2.47698959028616      0.59600451199535     -0.29405800539386
  O   1.89429429343780     -0.92796873036297      1.16226401656784
