17

C	0.0	0.0	0.0
C	-0.523509	0.013078	-1.45169
Br	1.912239	0.0	0.0
H	0.009439	0.817761	-1.974222
N	-0.533516	1.18863	0.748372
O	-0.589264	2.264924	0.088638
O	-0.362099	1.122678	1.991281
N	-0.521903	-1.258542	0.758092
O	-1.733426	-1.221098	1.012472
O	0.237228	-2.165724	1.044372
C	-1.965707	0.325842	-1.459777
N	-3.124979	0.552529	-1.608065
C	-0.301418	-1.336169	-2.143007
H	-0.879941	-2.131307	-1.663236
H	0.755014	-1.599008	-2.117257
H	-0.631558	-1.25856	-3.179858
H	-1.558764	0.0	0.0
