14

C	0.0	0.0	0.0
C	-0.498727	-0.096828	-1.48582
Cl	1.786726	0.0	0.0
H	0.350278	-0.001146	-2.162638
H	-1.190053	0.732214	-1.640111
C	-0.352051	1.339293	0.515658
N	-0.518327	2.438761	0.891351
N	-0.516249	-0.983677	0.900988
H	-0.432245	-1.867287	0.4041
H	-1.535853	-0.741323	0.854842
N	-1.164066	-1.383395	-1.673591
H	-1.351404	-1.496277	-2.663652
H	-2.056868	-1.208757	-1.188627
F	-2.767142	0.0	0.0
