14

C	0.0	0.0	0.0
C	-0.446857	0.114974	-1.459763
Cl	1.835124	0.0	0.0
H	0.069787	0.965759	-1.914375
H	-1.522766	0.296081	-1.362605
C	-0.328996	1.259095	0.706719
N	-0.519265	2.251716	1.306405
N	-0.583539	-1.157161	0.58645
H	-1.625183	-0.898915	0.450547
H	-0.371629	-1.173225	1.578894
N	-0.119951	-1.124628	-2.183592
H	-0.171649	-1.865948	-1.488607
H	-0.885958	-1.29983	-2.824821
F	-2.795671	0.0	0.0
