14

C	0.0	0.0	0.0
C	-0.283017	0.146866	-1.562797
Cl	1.798648	0.0	0.0
H	-0.174041	-0.883355	-1.935898
H	0.539364	0.727385	-1.989256
C	-0.386393	1.258636	0.660163
N	-0.605592	2.310973	1.132518
N	-0.614441	-1.096994	0.665575
H	-1.638991	-0.837453	0.578067
H	-0.462543	-1.921344	0.089859
N	-1.526591	0.713728	-2.01305
H	-1.477658	1.717213	-1.870098
H	-2.272709	0.38232	-1.363377
F	-2.930954	0.0	0.0
