17
Coordinates from ORCA-job run
  C   0.77259922618349      0.15794990515845      0.43096728855286
  C   -0.66722154674503     -0.27703170180055      0.11640990968830
  F   0.79130264006700      0.68921684441549      1.72133904003252
  H   -0.86560792574478     -1.12152092876414      0.78701650212428
  C   1.76820937529054     -0.98155371126761      0.37460727937531
  H   1.77004099390347     -1.42436430062280     -0.61945094674087
  H   2.76540436276573     -0.61677920923533      0.62559363389727
  H   1.47363785415112     -1.73664960543385      1.10686621553117
  C   1.15694751481401      1.23828129352837     -0.49892073317726
  N   1.42668457966526      2.07968333367694     -1.27224243061166
  N   -0.67966388790646     -0.78636760107838     -1.25218519916254
  H   -1.48228440531636     -1.38732171153244     -1.39048873875344
  H   -0.76554588561609     -0.01347191530349     -1.90435607042867
  C   -1.67188444078070      0.83589221855421      0.39751601457419
  H   -1.48926333273760      1.69194091127016     -0.25912643115747
  H   -2.68418430458272      0.47171374810389      0.20542798445558
  H   -1.61717081741088      1.17738243033108      1.43202668180042
