17
Coordinates from ORCA-job run
  C   0.73409382743421      0.03678897628394      0.51338967931012
  C   -0.69696217284137     -0.24987520903723      0.03565462391930
  F   0.70789878469832      0.08292499878801      1.91032141338703
  H   -0.98301938311444     -1.18032247078183      0.54997050852402
  C   1.72124493495686     -1.03675152684344      0.10269165974506
  H   1.36609027538787     -2.00584518747471      0.46257568594105
  H   1.82589679323647     -1.05879046684086     -0.98174161560994
  H   2.69433389389689     -0.83232415693584      0.55161767853081
  C   1.17490582881549      1.35849592669449      0.03416719686438
  N   1.52914703737259      2.41463007628218     -0.33592936626856
  N   -0.66389255068113     -0.38767574769168     -1.41607667412948
  H   -1.52057119760447     -0.04290500203718     -1.82817256052155
  H   -0.55180071728977     -1.35398429352267     -1.69255945048168
  C   -1.65279411033380      0.85731187882619      0.44860902379798
  H   -2.68310831872828      0.55897591740181      0.23843065532763
  H   -1.43464429749208      1.77219845867820     -0.10849098197628
  H   -1.56781862771334      1.06914782821061      1.51454252364012
