17
Coordinates from ORCA-job run
  C   0.70959873932817     -0.28067355731154      0.58795889582671
  C   -0.78645259677482     -0.19506909794158      0.25558689021799
  F   0.90385502490836     -1.51842983816956      1.21645344212564
  H   -1.30483933147193     -0.25197386143646      1.22630357995398
  C   1.63244492256509     -0.21760963943380     -0.61118764334984
  H   1.63058681714261      0.77989995510403     -1.05249961654822
  H   2.64809389574239     -0.45501984665713     -0.29109417442089
  H   1.29499035080220     -0.94346601244574     -1.34946413397504
  C   1.05427669992089      0.76053511724715      1.57324831256197
  N   1.31337408467125      1.61307975468275      2.33769772536791
  N   -1.10505855139319     -1.31378376679224     -0.62381002112226
  H   -2.06578333502190     -1.23504388112765     -0.93488127469732
  H   -1.01609553512476     -2.18383726034208     -0.11286444019509
  C   -1.14857115210172      1.11553371664836     -0.42430541693298
  H   -2.23330423975524      1.18310890193585     -0.54180855289486
  H   -0.69953704250519      1.16453356654771     -1.41779300082987
  H   -0.82657875093218      1.97821574949192      0.16245942891218
