17
Coordinates from ORCA-job run
  C   0.75391340001626     -0.33146235412436      0.28557211569378
  C   -0.71495933047661      0.10125117109352      0.23649453676636
  F   0.86334891982960     -1.51735377532153     -0.45343729246068
  H   -0.80711109315395      0.96321966640701      0.90804509061301
  C   1.73399898383614      0.66674073320430     -0.30011369189336
  H   1.63841756712260      1.63455772117473      0.19653033657328
  H   2.75333316124632      0.30230513421961     -0.16749271661048
  H   1.54328259669046      0.78561225136758     -1.36661641092041
  C   1.12551366676679     -0.64506839831373      1.67787755526200
  N   1.48725879424557     -0.82943039332119      2.77901805853345
  N   -1.49217687566095     -0.98502710048576      0.81898919546185
  H   -2.45388599047936     -0.69696208593473      0.94847299983705
  H   -1.48507199511770     -1.78040549327719      0.19139410637826
  C   -1.14351866338837      0.50990226931020     -1.17346242194584
  H   -2.21957229004235      0.69841996579039     -1.18080116622164
  H   -0.93491944760532     -0.29547332301645     -1.88189627687712
  H   -0.64685140382911      1.41917401122760     -1.51957401818951
