17
Coordinates from ORCA-job run
  C   0.66577446112232      0.01297293084749      0.51741778842262
  C   -0.78585927390170     -0.19543996255389      0.03196687780240
  F   0.62583431631580      0.28034826447645      1.88660622944980
  H   -1.14780202271128     -1.06787109568612      0.59025124419922
  C   1.55662049407987     -1.19952500796966      0.32103914944204
  H   2.52156378314967     -1.02232455428858      0.79812340572958
  H   1.08625639102239     -2.06696949115150      0.78969811223927
  H   1.72713215886055     -1.40332401062658     -0.73619921975285
  C   1.24060914612934      1.19069777018902     -0.15929652346445
  N   1.67024116700980      2.11002111829973     -0.75033094905779
  N   -0.89943378247923     -0.49411586689678     -1.38375471384735
  H   -0.56211124172402      0.27717581614182     -1.94798123678221
  H   -0.40108773880021     -1.33483223998648     -1.64231240761651
  C   -1.65792195499635      1.00506690064011      0.36631463320087
  H   -1.34734137989726      1.88090918240130     -0.21128743946566
  H   -2.69114743700863      0.77534894511896      0.10376532894458
  H   -1.60232708617108      1.25386130104473      1.42597972055646
