17
Coordinates from ORCA-job run
  C   0.72397391734784     -0.27454599588268      0.62616514515956
  C   -0.77534792044401     -0.22013864645196      0.26879339907041
  F   0.91063926752593     -1.45269242878613      1.35227321272583
  H   -1.28697827902469     -0.32789985744849      1.23442197292019
  C   1.65513972889166     -0.31384188038701     -0.56609285788722
  H   2.67140412351505     -0.50470228065091     -0.21835057509407
  H   1.33104251431402     -1.12339316567654     -1.21869852304456
  H   1.64555742370613      0.63244069341229     -1.10961021317725
  C   1.06641313942415      0.84389549232713      1.52518376049990
  N   1.32724938524884      1.76540144662053      2.20474474538358
  N   -1.07207326473445     -1.34925534508250     -0.60361701378931
  H   -1.57033060897166     -1.05359999532648     -1.43107856390665
  H   -1.61263226159407     -2.05743724796348     -0.13033416102299
  C   -1.17094666775319      1.10894217329794     -0.35989289259768
  H   -0.63143556563366      1.27355435049992     -1.29651939399920
  H   -0.97014296339118      1.95027768939266      0.30518227097035
  H   -2.24053196842670      1.10299499810573     -0.58157031221089
