17
Coordinates from ORCA-job run
  C   0.80502961792691     -0.29326491885902      0.13630799223259
  C   -0.70433265277840      0.01141010439933      0.12970924489505
  F   1.09483049547550     -1.18293548773965     -0.88951451460418
  H   -0.84597925483839      0.85397704921103      0.82729763472959
  C   1.68310016658515      0.93285207767012     -0.04648665549104
  H   1.48114639032671      1.39109881122079     -1.01484370909462
  H   2.73210221508589      0.63491427912655     -0.01905828628658
  H   1.50335192623939      1.66281389639102      0.74490284048015
  C   1.14554475146574     -0.95399886824141      1.41252194188723
  N   1.39389049895497     -1.42332564645249      2.45965191707167
  N   -1.42302803224361     -1.19273981268323      0.52721282685403
  H   -2.39846985847558     -1.11701995290242      0.26847745277496
  H   -1.37775689975231     -1.33155681572936      1.52969418843149
  C   -1.17424742673914      0.42645698106272     -1.25764719170706
  H   -1.05130224456394     -0.40854064776698     -1.94777517925773
  H   -2.23298220129789      0.69608257607939     -1.21950649158848
  H   -0.63089749137099      1.29077637521359     -1.63994401132708
