17
Coordinates from ORCA-job run
  C   0.69665847757091     -0.28881992067895      0.59994782154724
  C   -0.79313206696751     -0.17914111768535      0.24692111227567
  F   0.86106531907677     -1.52493877054139      1.23980551877999
  H   -1.32567883404011     -0.21875806119603      1.21080197220598
  C   1.63561332918022     -0.25078318738595     -0.58780322631750
  H   2.64280928514700     -0.50406879018750     -0.25340152260497
  H   1.29446349495831     -0.97591993706222     -1.32509981917358
  H   1.65704566055920      0.74342363832992     -1.03597733365255
  C   1.04669788277228      0.75348052449798      1.58202277501745
  N   1.31057534093149      1.60730176019026      2.34348993932496
  N   -1.12049076544627     -1.29919116755874     -0.62718933951528
  H   -2.07375076083938     -1.20447737524112     -0.95611272895004
  H   -1.05664833115078     -2.16653328409478     -0.10798316234977
  C   -1.12199132005032      1.13224600443332     -0.44819623468276
  H   -2.20400259558360      1.22128066124264     -0.57511043630904
  H   -0.66386979300431      1.16195257650591     -1.43829828833276
  H   -0.78636432311390      1.99394644643201      0.13218295273697
