17
Coordinates from ORCA-job run
  C   0.75061805074956     -0.35709247588434      0.26311658897531
  C   -0.71378230841139      0.09352401252909      0.24306899286080
  F   0.84673327681039     -1.49509851177062     -0.54898057141860
  H   -0.79649343891124      0.91252692885276      0.96750229564988
  C   1.74130494901256      0.66539250501794     -0.25971736897071
  H   1.55102040482993      0.85382360804731     -1.31622472588560
  H   2.75652835577638      0.28172066279732     -0.15193007028564
  H   1.65704439327812      1.60068373975324      0.29763837804099
  C   1.11925678341649     -0.76095033724364      1.63272176875943
  N   1.47877593731406     -1.01702861804536      2.72014533237580
  N   -1.50195467152262     -1.01920494238877      0.75676415377153
  H   -2.45933616544065     -0.72865585981970      0.91052343782056
  H   -1.50788937468769     -1.77140956584756      0.07802547983571
  C   -1.13850214409918      0.59454883818661     -1.13797658495336
  H   -0.93855082059812     -0.16674719567094     -1.89593533770006
  H   -0.63226997927103      1.51851781842500     -1.42653458107363
  H   -2.21250324824557      0.79444939306167     -1.13220718780241
