17
Coordinates from ORCA-job run
  C   0.69728024754285     -0.35043420581414      0.20940969787774
  C   -0.76215727751078      0.15380108638117      0.19363410262566
  F   0.76271578009805     -1.47779317709631     -0.61773313604838
  H   -0.81400411988874      0.98668504209726      0.90503749812447
  C   1.73288987144725      0.64514271794394     -0.27445284357012
  H   2.73479870177203      0.22900281100299     -0.16001505854760
  H   1.56415485001749      0.85889755857416     -1.32963717382443
  H   1.66822032106055      1.57336545661413      0.29731075876020
  C   1.01989884431484     -0.80027868921278      1.57720347659254
  N   1.26808502827340     -1.11152487115524      2.68188350749176
  N   -1.71305689562390     -0.85558027040985      0.63406512717484
  H   -1.60169078304794     -1.69217986701355      0.07271343207386
  H   -1.55316842230924     -1.10749965822836      1.60266731654760
  C   -1.16404025972204      0.64934244792458     -1.19027935116782
  H   -0.60560757983794      1.53603734338450     -1.49365339034962
  H   -2.22514988005186      0.89714125814101     -1.16925544193479
  H   -1.00816842653401     -0.13312498313350     -1.93689852182591
