17
Coordinates from ORCA-job run
  C   0.76326176302970      0.02845591505300      0.46926399061652
  C   -0.69107845769250     -0.25899862823957      0.06921648270767
  F   0.82087821721668      0.02786897918806      1.86634789586228
  H   -0.93759593108975     -1.20787601549741      0.57016739986621
  C   1.73428556385259     -1.01950065909504     -0.03514923455478
  H   2.72983813163492     -0.82045535235712      0.36414246491081
  H   1.40886803313452     -2.00413875607681      0.31031164698146
  H   1.77692309217656     -1.00340387429783     -1.12387295574746
  C   1.16095881038814      1.37073922388095      0.01055629399253
  N   1.47927866433395      2.44426429446302     -0.34181780294708
  N   -0.74427824983320     -0.35140144683888     -1.38560492408357
  H   -1.63023974432130     -0.00966295464333     -1.73347981958842
  H   -0.63406113547867     -1.30677767417618     -1.69864181289248
  C   -1.63025724154752      0.82486375485262      0.57251076748752
  H   -1.45568007627569      1.75741221530654      0.02951173519867
  H   -1.48125293391264      1.00726008257035      1.63685094729294
  H   -2.66884850561578      0.52135089590763      0.41768692489718
