17
Coordinates from ORCA-job run
  C   0.75274460789400      0.02516070647309      0.48649988897247
  C   -0.69215627323997     -0.26211395784691      0.05350049675657
  F   0.78166349114548      0.00661637864782      1.88406147662778
  H   -0.94627949048469     -1.21615728261763      0.54071834788803
  C   1.73814163291036     -1.01219052803469     -0.01209251102929
  H   1.80432193493396     -0.97881993207628     -1.09927637962995
  H   1.40898924378450     -2.00322083705076      0.31093479162945
  H   2.72377096434177     -0.81546701585312      0.41230622569445
  C   1.15485824226916      1.37466673565664      0.05226358869366
  N   1.47758651308985      2.45208949948885     -0.28323594197649
  N   -0.71526345568711     -0.34059742877620     -1.40299376778409
  H   -0.58925013626879     -1.29194118216215     -1.72257512214746
  H   -1.59867507455807     -0.00604358522005     -1.76431302620900
  C   -1.64411240229469      0.81516045832312      0.54661506452146
  H   -2.67893845073001      0.50682556758330      0.37822588920137
  H   -1.51006793864430      0.99679128241933      1.61283791154109
  H   -1.46733340846143      1.74924112104564      0.00752306724995
