17
Coordinates from ORCA-job run
  C   0.66150877307819     -0.28833741674257      0.60141717090315
  C   -0.85224496647620     -0.16081301159263      0.31493171980577
  F   0.83881673354176     -1.51625272007912      1.25159588942622
  H   -1.33052149371793     -0.19242919784291      1.30117564222024
  C   1.55308258804259     -0.28811712066517     -0.62342005137934
  H   1.22200969767777     -1.06233230395447     -1.31681082104247
  H   2.57801818719464     -0.50999262485766     -0.32308219569753
  H   1.53723628405846      0.68117189219627     -1.12310970763812
  C   1.07804974914666      0.76530678037470      1.54263309626348
  N   1.38364955032633      1.63164166108240      2.27415241075526
  N   -1.38981208246564     -1.26942889251961     -0.45102496709609
  H   -1.07860424282594     -1.23586557355330     -1.41397377575103
  H   -1.10460395928962     -2.15316980296300     -0.04759285994291
  C   -1.19933497050659      1.15441568217076     -0.36356399695404
  H   -0.82911494821858      2.01409318912798      0.19805607742905
  H   -2.28384019387855      1.23256167342324     -0.44614237140383
  H   -0.78329470568734      1.19654778639509     -1.37424125989783
