17
Coordinates from ORCA-job run
  C   0.69824797019711     -0.36996943161862      0.17570251478701
  C   -0.76059864053510      0.13686487350914      0.20696262294172
  F   0.76091875303489     -1.41725890029885     -0.75038017891759
  H   -0.81011341587952      0.90048220852529      0.99233507727596
  C   1.73557965585676      0.66368478323800     -0.21594111298882
  H   2.73662067621331      0.23663330963277     -0.14054182053017
  H   1.56700113867201      0.97348189650974     -1.24701320894000
  H   1.67304960079537      1.53570216643731      0.43858132178619
  C   1.01849825560913     -0.94304366353558      1.49731633648430
  N   1.24457145211978     -1.35860399040362      2.57202138730819
  N   -1.71356991021196     -0.90657577672729      0.55214788980345
  H   -1.55609233475822     -1.24572521499322      1.49408535531945
  H   -1.60310890531504     -1.68889088117779     -0.08275245232652
  C   -1.16102561324503      0.75922190357334     -1.12519565215672
  H   -2.22134237681981      1.00725407523355     -1.08053144470957
  H   -0.59976662159923      1.66827501482052     -1.34588571944980
  H   -1.00786968413445      0.04846762727531     -1.94091091568710
