17
Coordinates from ORCA-job run
  C   0.69813375829717     -0.00074581406005      0.47303060293177
  C   -0.78099687200291     -0.20246733458686      0.07607662499076
  F   0.74646424465957      0.21722033581717      1.85082672632403
  H   -1.10105918951445     -1.09694603268511      0.62497683865586
  C   1.58035475901141     -1.19879923025026      0.17526281535684
  H   2.57270048636815     -1.03216348866401      0.59665072692243
  H   1.68440819389735     -1.36168539414727     -0.89756703219955
  H   1.14521944732296     -2.08661581824651      0.63970204299457
  C   1.22194880551202      1.20478817367821     -0.19619695496684
  N   1.60716567916053      2.14868476757354     -0.77908148060960
  N   -0.98532600200994     -0.45118550223430     -1.33911314879039
  H   -0.49879360045679     -1.27689936074639     -1.66064763372036
  H   -0.69204155236307      0.34337242046527     -1.89554900911775
  C   -1.63559495123656      0.97873194789525      0.50951849130873
  H   -1.36796389291247      1.87682572695032     -0.05519967894968
  H   -2.68251055661355      0.75059966890679      0.30680127412093
  H   -1.51210875711940      1.19028493433419      1.57150879474827
