17
Coordinates from ORCA-job run
  C   0.69919291835849     -0.27104664690583      0.60478872095965
  C   -0.79156731732209     -0.18400601522235      0.24944258535446
  F   0.87648520099225     -1.49500932054058      1.26459155278429
  H   -1.32375835982873     -0.21349524550925      1.21384353931209
  C   1.63881322664157     -0.24190556764962     -0.58281363474772
  H   1.30409452181227     -0.97992929251414     -1.31019298900696
  H   2.64731903775686     -0.48271174330231     -0.24325657848400
  H   1.65346247524124      0.74621009675784     -1.04452465447460
  C   1.03747233600935      0.79069302758336      1.56991726423995
  N   1.29217842970576      1.65881899845429      2.31826695252623
  N   -1.10522898569731     -1.32195062126205     -0.60653481422000
  H   -1.03357395161362     -2.17969808812444     -0.07260551080195
  H   -2.05896546083918     -1.24242727080732     -0.93799254716543
  C   -1.13458613773783      1.11174555211073     -0.46776513717704
  H   -2.21709807838861      1.18492244291752     -0.60105623151494
  H   -0.67223082813454      1.13226459403809     -1.45618139003732
  H   -0.81300902695587      1.98652509997609      0.10107287245329
