17
Coordinates from ORCA-job run
  C   0.68539648014141      0.02716848654378      0.48573285500242
  C   -0.78121558280379     -0.21262429334096      0.06613920577246
  F   0.70207595623063      0.29478686512574      1.85585428986543
  H   -1.09942580800996     -1.09419446617654      0.63652204798620
  C   1.59298697547692     -1.16550915950895      0.24913011107262
  H   1.16472918029524     -2.04182372615292      0.74109611575645
  H   1.71736775106014     -1.36837886803760     -0.81471198154111
  H   2.57543006568806     -0.96567002429356      0.67920689906493
  C   1.20641282655885      1.21653216045653     -0.21397314922403
  N   1.62013306909331      2.13555172703189     -0.81672493157476
  N   -0.95122454130802     -0.50974954785176     -1.34445423365013
  H   -0.44649756612882     -1.33840650073379     -1.62833488855351
  H   -0.65726986211516      0.27056197332519     -1.92043123687508
  C   -1.66315843186654      0.96787130743369      0.44322153375173
  H   -1.57069226762761      1.21105692608893      1.50157690468757
  H   -1.39289744604851      1.85356971479211     -0.13968666262771
  H   -2.70115079863615      0.71925742529823      0.21983712108653
