13
Coordinates from ORCA-job run
  C   1.01927061339823     -0.14510352059740      0.35225946434122
  C   -0.28382345017244     -0.12013874384176     -0.04674340848635
  H   1.32535761036469     -1.01658679833373      0.92525025239557
  N   2.01982341248365      0.72709683500290      0.08216726876929
  H   1.75810819547100      1.61577718754274     -0.31411988842973
  H   2.85014664793905      0.67765424225725      0.64455852343104
  C   -1.26999474566204     -1.19799305727026      0.27151469034888
  H   -0.78168124582846     -1.99247072255289      0.83903506024277
  H   -1.68997108326503     -1.62875256528437     -0.63998545901540
  H   -2.10567099988209     -0.81038372973283      0.85797837515680
  N   -0.80278748712801      0.99420237995391     -0.78897958110776
  O   -0.04148128230517      1.93036675850892     -1.08817095133518
  O   -1.99829618541339      0.96733173434753     -1.09476434631114
