13
Coordinates from ORCA-job run
  C   0.99019384207117     -0.00878450672395      0.45117836285434
  C   -0.28873959388072     -0.11738145047649     -0.00751631894879
  H   1.31715484834080     -0.78584526954769      1.13728476073156
  N   1.90410238870687      0.96552867176017      0.23033608339035
  H   2.86235770227070      0.77501704505553      0.46124813746713
  H   1.70493599112111      1.62665717558492     -0.50333229162124
  C   -1.21705267895837     -1.22520717889985      0.37557334055925
  H   -0.72137235101516     -1.89972971399501      1.07635309397884
  H   -1.53270382970802     -1.79785787651590     -0.49904585949955
  H   -2.12154433178183     -0.83565674533629      0.84768974443750
  N   -0.81925096592014      0.84112404714799     -0.93579329605284
  O   -1.97547740825083      0.67028487436310     -1.33252323592275
  O   -0.10460361299558      1.79085092758346     -1.30045252137381
