13
Coordinates from ORCA-job run
  C   1.05281857989546     -0.27558768584914      0.00500966361185
  C   -0.29778850105540     -0.09128310873220      0.00010273560122
  H   1.39338988543363     -1.29207252378667      0.18462530672958
  N   2.04377426779757      0.61248599207281     -0.24521573913856
  H   2.97879823584794      0.36359082202158      0.02252258005342
  H   1.79150608187238      1.58749684261659     -0.27396979471753
  C   -1.28601485500170     -1.18990017168286      0.22906492901214
  H   -1.90462250150239     -0.99005333034326      1.10654025830922
  H   -1.96195039315768     -1.29518425957056     -0.62230988551271
  H   -0.76209186349818     -2.13616677725959      0.37667689174768
  N   -0.85963061443748      1.21378374900191     -0.20577793450716
  O   -0.09805434422208      2.17635022886196     -0.40411553077133
  O   -2.08913397797207      1.31654022264943     -0.17315348041781
