13
Coordinates from ORCA-job run
  C   0.98824995351306      0.54405393431148      0.06676310317295
  C   -0.30926004486542      0.21499425083511     -0.11644264112119
  H   1.26922447567498      1.58542759696137     -0.04553875699996
  N   2.02032142043186     -0.32607143249824      0.30382595728291
  H   2.85504411808401      0.07882024241025      0.69102939169339
  H   1.79385095269501     -1.23010231215788      0.68372386687758
  C   -0.92270657656041     -1.14367690945080     -0.04809604075999
  H   -0.15221600625325     -1.91184382809545      0.04537771243346
  H   -1.49487916208977     -1.35302079614358     -0.95317428730039
  H   -1.61023319747569     -1.23224721877554      0.79602617091581
  N   -1.22590636174348      1.30955727879637     -0.40074084808124
  O   -0.79221611864159      2.45655302027586     -0.51596415147211
  O   -2.41827345276931      1.00655617353105     -0.50578947664123
