13
Coordinates from ORCA-job run
  C   1.04442498474320     -0.26504780647996      0.15213130623979
  C   -0.29989690039585     -0.08136541623596      0.02228504154447
  H   1.36590458475008     -1.27279664827115      0.40202658462927
  N   2.04781676199714      0.64141014940453      0.07920094980337
  H   1.82146114593021      1.55122725223488     -0.28952908983710
  H   2.98560743271005      0.29894381885419     -0.02656550072756
  C   -1.30736666057899     -1.17222553957779      0.19782789640546
  H   -2.01667317384088     -0.92916283673183      0.99193135183175
  H   -1.88711903693384     -1.32628191984314     -0.71464768833629
  H   -0.80331605224694     -2.10573231187389      0.45513763573551
  N   -0.83486176177154      1.20457855171948     -0.32748654846928
  O   -2.05914914389930      1.29666555251373     -0.45409971660725
  O   -0.05683218046336      2.16078715428691     -0.48821222221214
