13
Coordinates from ORCA-job run
  C   0.94090336850556      0.59183239369031      0.20376143137303
  C   -0.32798804164588      0.21112374035056     -0.06150906489815
  H   1.16911088715395      1.65171788234082      0.17906780375920
  N   1.97040092576339     -0.22814433273960      0.58611642371080
  H   2.89590724465306      0.14758509783506      0.47289455744665
  H   1.89889681192339     -1.20600281620164      0.35903663029845
  C   -0.88205045228898     -1.17461199046790     -0.05743064328146
  H   -1.77927336779461     -1.22736147277877      0.56095444369943
  H   -0.15472800829431     -1.88082480218750      0.34849228424138
  H   -1.16297349631483     -1.49855475092561     -1.06209038073052
  N   -1.26597580400346      1.26720665359169     -0.41243892118187
  O   -0.90198022618685      2.44349058113254     -0.38340346368112
  O   -2.40124984147043      0.90154381636004     -0.73145110075581
