13
Coordinates from ORCA-job run
  C   1.03434686547619     -0.14724448934797      0.30383074312299
  C   -0.28056276303671     -0.12457132725431     -0.05465809535073
  H   1.39401271555439     -1.07740720012077      0.73611126658459
  N   1.98719495646097      0.80089941024050      0.14148322005925
  H   2.84095662907958      0.70592611916430      0.66100641169262
  H   1.67969600214132      1.72393844294236     -0.12005388764943
  C   -1.21030143333584     -1.28165945722312      0.12582184388870
  H   -1.63738175972976     -1.59629033178877     -0.82884250491520
  H   -2.04462579753785     -1.02103185213878      0.78040733670364
  H   -0.67266464220648     -2.12587087215566      0.56169750604677
  N   -0.86781915889065      1.05929344062142     -0.61621223217608
  O   -2.06950931118530      1.02174231158666     -0.89530429491928
  O   -0.15534230278986      2.06227580547412     -0.79528731308783
