13
Coordinates from ORCA-job run
  C   1.05524709976607     -0.21995774057129      0.14755747754891
  C   -0.28763458486529     -0.10600420284991     -0.05717451878673
  H   1.43287043592014     -1.23072720666241      0.27889542562464
  N   2.01054770722638      0.73971673402907      0.14760098964522
  H   2.90788110954277      0.51167086907143      0.53583247175321
  H   1.70111554214817      1.69814452104154      0.17480269125386
  C   -1.22270673408397     -1.27222102377478     -0.09704329248452
  H   -1.75087286777987     -1.32098517082787     -1.05171958599809
  H   -0.66480127425322     -2.20051724350117      0.03996089515373
  H   -1.98069683539885     -1.19936485929098      0.68573326358709
  N   -0.89776603172948      1.18300637612207     -0.22277121461830
  O   -0.18180955487596      2.19917999146282     -0.19999677410623
  O   -2.12137401161689      1.21805895575148     -0.38167782857281
