13
Coordinates from ORCA-job run
  C   1.03707708230623     -0.16283381113742      0.28707690852824
  C   -0.28857703956936     -0.11412185238539     -0.02591054624895
  H   1.36450124615211     -1.04242461744303      0.83533774048364
  N   2.03194797107220      0.69540092775302     -0.04146806071110
  H   2.89734802670872      0.62667148131084      0.46292114122304
  H   1.76151144085763      1.59070513467829     -0.41613761816474
  C   -1.26960803757420     -1.17916968147914      0.34688439259370
  H   -2.06359305698638     -0.78081990087586      0.98202777506219
  H   -1.74833395154125     -1.60163734669469     -0.53914898367823
  H   -0.76060638069746     -1.98190417189289      0.88379067482440
  N   -0.83491258989603      1.01023825262002     -0.73291950750438
  O   -0.07914809492801      1.93646176209649     -1.07398516765334
  O   -2.04660661590419      1.00143382344976     -0.96746874875448
