13
Coordinates from ORCA-job run
  C   1.00817466562620     -0.13666116573762      0.38665349820450
  C   -0.29535504066259     -0.09746432307260     -0.00958657891815
  H   1.31039940008150     -1.02132890510575      0.94113799112263
  N   1.97878243723448      0.79739880961753      0.24791479573814
  H   1.79356890625420      1.56431544644128     -0.37858142070787
  H   2.93059469660807      0.51314283722909      0.39332236910256
  C   -1.28371963366789     -1.18176525847847      0.27875670716752
  H   -1.68534238363212     -1.60735434138468     -0.64325938846016
  H   -0.80543914270498     -1.97738686540696      0.85314337223183
  H   -2.13126558413773     -0.79952008415266      0.85170461734189
  N   -0.79950706678161      1.01424358073524     -0.76617649210350
  O   -0.03562352107007      1.95557664454222     -1.04156186316889
  O   -1.98326773314746      0.97680362477339     -1.11346760755050
