13
Coordinates from ORCA-job run
  C   1.00230882198786      0.49698837353951      0.15974757957932
  C   -0.31550974596703      0.23495473213344      0.01728271838776
  H   1.30449641942172      1.53202809480978      0.27526528287074
  N   2.00845753756957     -0.42801019138595      0.25547020161767
  H   2.93749993772697     -0.08812501809954      0.07721487942386
  H   1.83553348071951     -1.35096751774103     -0.10642950571640
  C   -0.97032923091817     -1.09828843191509     -0.12640449315695
  H   -0.24482831713050     -1.90335163439711      0.00775523667550
  H   -1.75318031475951     -1.22576802882188      0.62295802034055
  H   -1.43962287480000     -1.20985453323154     -1.10624271251882
  N   -1.20863998470625      1.38379548439407     -0.01379054328151
  O   -2.40461800204432      1.13730568753310     -0.19715570192031
  O   -0.75256772709986      2.51829298318225      0.13432903769859
