13
Coordinates from ORCA-job run
  C   1.04062861355697     -0.21802444144940      0.23191082643303
  C   -0.29750234866118     -0.09244146283248      0.00441636449075
  H   1.34211632370754     -1.06361256627239      0.84471725218739
  N   2.06825559517962      0.52222852377841     -0.24695150226678
  H   1.83771115852702      1.39361209436692     -0.69703496154159
  H   2.96371282712754      0.43025668776176      0.19743609181705
  C   -1.32385432449919     -1.03302165415256      0.55011729576809
  H   -1.90058889093546     -1.49617867869924     -0.25340876958326
  H   -0.83616725267526     -1.82085111199029      1.12733487224822
  H   -2.03429761898587     -0.51280338955095      1.19603511526003
  N   -0.81021133770661      0.99986289034665     -0.77356354193473
  O   -2.03367560104708      1.06942314448678     -0.92085151374195
  O   -0.01512714358803      1.82254996420680     -1.26015752913626
