13
Coordinates from ORCA-job run
  C   0.96093664113670      0.52960723912836      0.27139168341331
  C   -0.29835474971248      0.23081628609626     -0.11657439718960
  H   1.22743080313245      1.57604915477702      0.37072688291255
  N   1.97811896057544     -0.36394140092685      0.48017522433975
  H   2.75723883794205     -0.02853733708930      1.01934160025617
  H   1.73328102202613     -1.32166655559495      0.66817694079005
  C   -0.88355032365793     -1.12264725686126     -0.34615905889690
  H   -1.65532104947576     -1.35693536741964      0.39044693931765
  H   -0.10971632419998     -1.89180572303824     -0.30009638600428
  H   -1.35015318610630     -1.17737166207142     -1.33084481990441
  N   -1.20304374501793      1.35353927706583     -0.31538071170778
  O   -2.36930098742379      1.06745739269755     -0.60262195694973
  O   -0.78556589921863      2.50543595323663     -0.18958194037678
