13
Coordinates from ORCA-job run
  C   1.01879125354009      0.44846008328275     -0.19748093998137
  C   -0.30956487184318      0.22595982046490     -0.09184071257864
  H   1.34481464701532      1.36155881500570     -0.68313406157357
  N   2.01518831324630     -0.33313268838456      0.32715107973001
  H   1.79849989922154     -1.29528130686896      0.52785254304157
  H   2.93154682421809     -0.19664023052084     -0.06305337837703
  C   -0.99103596782045     -0.93229979361550      0.55681348499025
  H   -1.73896781036662     -0.58578308446766      1.27149751729623
  H   -1.50856433719566     -1.55619524481626     -0.17536474939429
  H   -0.27204165708243     -1.55019948645509      1.09893581745408
  N   -1.18651189154788      1.21742741990725     -0.69847785189672
  O   -0.70504029842105      2.23005643498782     -1.20804965513305
  O   -2.39511410296407      0.96706926148043     -0.66484909357746
