13
Coordinates from ORCA-job run
  C   1.00598091194421      0.51421576923605      0.02427933948731
  C   -0.30570742765222      0.22151400551198     -0.11460364678995
  H   1.31487163039675      1.54364683501897     -0.12008092224737
  N   2.01711737946681     -0.38152857124981      0.25366065850585
  H   1.77513018758200     -1.27030518042198      0.65891448378283
  H   2.87681787142107      0.00472501342470      0.60309777189709
  C   -0.95893025088901     -1.11471215203669      0.00669157455245
  H   -1.56561286754821     -1.32750117437193     -0.87480618286887
  H   -0.21074189356858     -1.90513705196832      0.09604120299533
  H   -1.62185616097102     -1.16008048409029      0.87361235663756
  N   -1.19637785502424      1.33765764157435     -0.39636798319093
  O   -0.73107940169531      2.46669366174090     -0.55682554109809
  O   -2.40061212346226      1.07081168763205     -0.45361311166321
