12

C	0.0	0.0	0.0
C	-0.255899	0.004724	-1.523439
Br	1.927555	0.0	0.0
H	0.267341	-0.872394	-1.912091
H	-0.413381	0.826902	0.566146
H	0.28971	0.876165	-1.897699
N	-0.403063	-1.275989	0.686153
O	-0.479243	-2.284758	-0.003269
O	-0.516763	-1.212171	1.903221
C	-1.548943	0.031411	-2.222419
N	-2.191898	0.06326	-3.211083
Br	-3.250806	0.0	0.0
