12

C	0.0	0.0	0.0
C	-0.511275	0.074817	-1.432429
Br	1.924849	0.0	0.0
H	-1.589035	-0.138111	-1.392729
H	-0.379354	0.8104	0.616236
H	-0.397282	1.109306	-1.769328
N	-0.423741	-1.280046	0.677225
O	-0.586338	-2.262255	-0.033985
O	-0.507491	-1.235104	1.897808
C	0.171783	-0.800517	-2.379913
N	0.693602	-1.468488	-3.192092
Br	-3.542044	0.0	0.0
