12

C	0.0	0.0	0.0
C	-0.502487	0.107062	-1.43061
Br	1.925116	0.0	0.0
H	-1.592603	-0.038782	-1.381519
H	-0.388525	0.797707	0.62616
H	-0.313468	1.130585	-1.768107
N	-0.424014	-1.287816	0.65717
O	-0.485712	-1.263671	1.880323
O	-0.605638	-2.256697	-0.066976
C	0.128906	-0.809719	-2.373543
N	0.627502	-1.492847	-3.187889
Br	-3.521447	0.0	0.0
