17

C	0.0	0.0	0.0
C	-0.622011	-0.035376	-1.371744
F	1.394557	0.0	0.0
H	-1.724576	-0.159128	-1.097104
H	-0.30607	-0.915102	0.508985
C	-0.467461	1.199753	0.791097
H	-0.11467	1.113335	1.822316
H	-0.065733	2.123823	0.367256
H	-1.563511	1.199891	0.773214
N	-0.202842	-1.274184	-2.077033
O	-0.157082	-2.319456	-1.423377
O	0.027209	-1.222974	-3.291888
C	-0.411411	1.187824	-2.233868
H	-0.898085	2.038627	-1.754362
H	0.650463	1.407953	-2.373496
H	-0.866658	1.046302	-3.21256
H	-3.124586	0.0	0.0
