17

C	-0.504435	0.026155	-1.445604
C	0.0	0.0	0.0
F	-0.196558	-1.236947	-1.94817
H	1.08963	0.0	0.0
C	-1.968957	0.167859	-1.559923
N	-3.123144	0.26548	-1.754614
C	0.235029	1.056234	-2.274997
H	1.306929	0.91967	-2.111889
H	-0.060302	2.063021	-1.986135
H	-0.010032	0.890985	-3.32601
N	-0.525479	-1.220987	0.685494
O	0.227759	-2.178809	0.78617
O	-1.698673	-1.165681	1.056784
N	-0.44905	1.164815	0.812041
O	-0.162277	1.118553	2.002102
O	-1.032666	2.086948	0.242013
Br	3.345449	0.0	0.0
