17

C	-0.552285	-0.008375	-1.42131
C	0.0	0.0	0.0
F	-1.889693	-0.422037	-1.407587
H	1.090213	0.0	0.0
C	-0.519749	1.369962	-1.954034
N	-0.450777	2.454833	-2.398503
C	0.221681	-0.917724	-2.357652
H	0.117492	-1.947336	-2.024459
H	-0.197734	-0.804394	-3.359906
H	1.279096	-0.643279	-2.340916
N	-0.423909	-1.203531	0.749243
O	-0.24341	-2.296369	0.1805
O	-1.028038	-1.0753	1.814474
N	-0.496461	1.17472	0.781581
O	0.32157	1.754363	1.490739
O	-1.65208	1.548124	0.5573
Br	3.182588	0.0	0.0
