17

C	-0.457161	0.026754	-1.461455
C	0.0	0.0	0.0
F	-0.058947	-1.181429	-2.009795
H	1.088872	0.0	0.0
C	-1.921567	0.139859	-1.603282
N	-3.06906	0.328963	-1.766219
C	0.247787	1.133298	-2.226105
H	1.319068	1.058153	-2.025403
H	0.049501	0.981266	-3.288949
H	-0.109659	2.117311	-1.927662
N	-0.500623	-1.185827	0.750644
O	-1.394962	-1.864731	0.251414
O	0.032599	-1.371918	1.838458
N	-0.498087	1.209026	0.724385
O	-1.499326	1.08014	1.42783
O	0.121473	2.249068	0.529304
Br	3.344117	0.0	0.0
