17

C	-0.519937	-0.001952	-1.425875
C	0.0	0.0	0.0
F	-1.892229	0.072509	-1.545021
H	1.089022	0.0	0.0
C	0.016445	1.207872	-2.102718
N	0.258977	2.075566	-2.859975
C	-0.040518	-1.236684	-2.179173
H	1.047589	-1.312631	-2.15428
H	-0.486513	-2.122045	-1.725062
H	-0.372727	-1.170963	-3.217434
N	-0.434711	-1.179822	0.801269
O	0.362542	-1.55174	1.663073
O	-1.52158	-1.703202	0.547268
N	-0.423355	1.218219	0.764583
O	-1.622957	1.495428	0.775281
O	0.467536	1.831695	1.348463
Br	2.755047	0.0	0.0
