17

C	-0.5214	0.009672	-1.44561
C	0.0	0.0	0.0
F	-0.437506	-1.272097	-1.929564
H	1.092236	0.0	0.0
C	-1.983869	0.389433	-1.550304
N	-2.836719	0.408956	-2.369706
C	0.285376	0.912732	-2.362033
H	-0.001526	0.706074	-3.395332
H	1.347762	0.696961	-2.235258
H	0.100547	1.960512	-2.13879
N	-0.482646	-1.243758	0.614469
O	-1.714194	-1.366149	0.829511
O	0.28929	-2.23299	0.513273
N	-0.354358	1.196343	0.782005
O	-0.473666	1.068176	2.030857
O	-0.077986	2.316181	0.259423
Br	2.693667	0.0	0.0
