14
Coordinates from ORCA-job run
  C   0.56041247658007     -0.01835032261310     -0.10738415516998
  C   -0.95903168602995      0.03692515783687     -0.20395778132124
  H   0.97400218589747      0.49787840033323     -0.97761616922911
  H   -1.30173784901701     -0.48360527436752     -1.10150945889124
  H   -1.44727283937815     -0.38047344182144      0.67566989288488
  C   1.04341323267574     -1.47231574101649     -0.08111851845871
  H   0.74038433879515     -1.98402790412134     -0.99744868693945
  H   2.13108771392592     -1.51124074788965     -0.00976286595570
  H   0.62560502201240     -2.00678893279025      0.77444063477825
  C   1.00772145205857      0.69947512405254      1.08979666775247
  N   1.35858133923470      1.24839907502055      2.06650427297626
  N   -1.45000330337314      1.44542736903628     -0.33265412061620
  O   -0.80302351204877      2.19433125445082     -1.06002838599673
  O   -2.48113857133300      1.73236598388950      0.26706867418650
