14
Coordinates from ORCA-job run
  C   0.66620957506625      0.02653539742643     -0.22691109267269
  C   -0.52598166898436      0.96833177494872     -0.04602040157561
  H   0.80442477270717     -0.13468471188761     -1.30069967115621
  H   -0.38790752954093      1.89712946705921     -0.60152401565717
  H   -0.73069997919387      1.17412765670182      1.00352362327015
  C   0.44769448790080     -1.31874573374541      0.47104980336404
  H   1.32810480297285     -1.95267333013013      0.35896112980772
  H   -0.40359770346310     -1.83925714676231      0.02877603457352
  H   0.25726322876689     -1.17549152489514      1.53677037706260
  C   1.85830903089540      0.70072173692790      0.29080542281505
  N   2.80351047003798      1.24334516549768      0.72757567986304
  N   -1.74126676926859      0.30772663194637     -0.60564884602794
  O   -2.68706494196979      0.11385155332515      0.15340095170289
  O   -1.68899777592670     -0.01191693641268     -1.79105899536940
