14
Coordinates from ORCA-job run
  C   0.65471871473877      0.05383837793334     -0.24881204232308
  C   -0.55466602443766      0.95189142679076      0.01710933939330
  H   0.75258195626809     -0.06104118368197     -1.33296467905335
  H   -0.72766551291250      1.10364929490920      1.08142174571512
  H   -0.46191685417218      1.90879892884499     -0.49867260150750
  C   0.50249894543022     -1.32342236802324      0.40303120257437
  H   1.39581531641251     -1.92584391747152      0.23376690840494
  H   -0.34997460511141     -1.85230993452706     -0.02724180601155
  H   0.34909923324275     -1.22648693331863      1.47992828335161
  C   1.84918566480410      0.74161900097496      0.24541058515530
  N   2.79824542482125      1.29366667602409      0.66130452055599
  N   -1.77106326826463      0.28359151023926     -0.53077600883564
  O   -1.75244058723478      0.01968679180250     -1.73087286098070
  O   -2.68541840358453      0.03136232950332      0.24936741356117
