14
Coordinates from ORCA-job run
  C   0.73942706990906      0.07096789896918     -0.31241176223923
  C   -0.58470819286896      0.67543449393564     -0.79107756519161
  H   1.40508241608929      0.07627198395137     -1.18403961877775
  H   -0.49182778604719      1.74250981645885     -0.99260631429674
  H   -0.94885159657805      0.14042918251839     -1.66696179673083
  C   0.57753226534228     -1.37030200393609      0.18252221974391
  H   -0.01531119939788     -1.40492612930398      1.09737796274600
  H   1.55452286172340     -1.80699070032428      0.39317247974217
  H   0.07683758518498     -1.97527524097260     -0.57593596686646
  C   1.37759569402789      0.90479712142797      0.71139609041733
  N   1.92498714806439      1.54808377484333      1.52683785029251
  N   -1.62343231737839      0.51530014813734      0.26536998789895
  O   -1.55264904891267      1.27613142200607      1.22743736138533
  O   -2.43920489915815     -0.39343176771119      0.11791907187641
