14
Coordinates from ORCA-job run
  C   0.66813798465272      0.13264055501692     -0.17907579607711
  C   -0.61008457983203      0.90672005050501      0.14967433343967
  H   0.85568954381578      0.23824503347125     -1.25229070474477
  H   -0.86715674310123      0.84473658680683      1.20600602750248
  H   -0.53893878808859      1.94744519364593     -0.16984216040953
  C   0.54988535142831     -1.35150458216617      0.17910756730600
  H   0.31020365760302     -1.47617365221834      1.23719379785263
  H   -0.23428414201004     -1.82206665255261     -0.41666040752989
  H   1.48803465053546     -1.86836782563379     -0.02650875929832
  C   1.77611091021036      0.76149428412448      0.54253322673798
  N   2.65259735205445      1.26232795237016      1.14213667979881
  N   -1.74074938061062      0.29834639093901     -0.61047273417766
  O   -1.62201510953762      0.27259139652962     -1.83335640027793
  O   -2.68743070711997     -0.14743473083828      0.03255532987765
