14
Coordinates from ORCA-job run
  C   0.68723410167870     -0.00895023399366      0.10766068937048
  C   -0.57317571112712     -0.28989034711583     -0.25874604578373
  N   1.87041938812522     -0.76760695598904     -0.30923535299014
  O   2.83516923498324     -0.07773486851383     -0.62609314296525
  O   1.78900023657846     -1.98936907174146     -0.31597198810843
  N   1.04182113183948      1.11275920078345      0.97419453597497
  O   1.73261383510431      0.81847909566014      1.94554146158978
  O   0.62102988273496      2.22354620451106      0.66714393568608
  C   -0.82370237186864     -1.41210153557897     -1.11221681719514
  N   -1.13508451458916     -2.29561386620233     -1.82567331555266
  C   -1.77767344252864      0.52202257908463      0.12868462576959
  H   -1.57535310202318      1.19405091506132      0.95956443937526
  H   -2.59442794354797     -0.15193748090586      0.39243569783214
  H   -2.09787072535969      1.12234636494038     -0.72728872300296
