14
Coordinates from ORCA-job run
  C   0.63857477720980      0.22902567812191      0.05785836867261
  C   -0.61096700715547     -0.10489986283679     -0.31394550460723
  N   1.50416183689226      1.07087336690458     -0.76968890873541
  O   1.54431414527587      2.25546700458106     -0.45164518537336
  O   2.11069101264646      0.51487041991777     -1.67863394536206
  N   1.29966835834492     -0.18429138255769      1.29652045547532
  O   2.52077466879361     -0.07069660497962      1.31550278740077
  O   0.58313579082396     -0.60513944304901      2.19817181126995
  C   -1.05576135169279      0.42909602395747     -1.56572276394364
  N   -1.46688598356028      0.86340359849721     -2.58102581461584
  C   -1.58372160584587     -0.94509728041449      0.47057853093201
  H   -1.10983573799390     -1.85287443158824      0.84122116684685
  H   -2.43346924917694     -1.20785313124758     -0.15954838862051
  H   -1.94067965456163     -0.39188395530659      1.34035739066055
