14
Coordinates from ORCA-job run
  C   0.67800761468201      0.15351502956010      0.02110403293078
  C   -0.62070170916364      0.05478488222507     -0.30379050404210
  N   1.29798033169418     -0.61970431688627      1.09478345192605
  O   2.30684479271287     -1.23984967075107      0.77108155323518
  O   0.76283797183969     -0.58940604747018      2.19844099488905
  N   1.64205306626313      1.04199754114507     -0.63457450584385
  O   2.40489444866001      1.62398376012241      0.13129198228871
  O   1.59351098340982      1.13237983018614     -1.85477255259547
  C   -1.14125185427833      0.85393273536246     -1.37189592452249
  N   -1.67247801686122      1.48511294442538     -2.21209161506431
  C   -1.61512440926295     -0.81961872517384      0.40836315736410
  H   -2.26920529264200     -1.29142005955199     -0.32663946025016
  H   -2.23359651804032     -0.20105908214731      1.06446874505287
  H   -1.13477140901326     -1.58464882104597      1.01423064463162
