14
Coordinates from ORCA-job run
  C   0.68861707506515      0.00310865829578      0.09138610915510
  C   -0.56812390649676     -0.27207692152140     -0.29206747607515
  N   1.04796297390522      1.17893061504764      0.88087545127037
  O   0.41057985418851      1.39018603836923      1.90768814874333
  O   1.96350208894553      1.85360318658715      0.41854118909617
  N   1.85893419701766     -0.82466535268085     -0.21395217420420
  O   1.95387003436662     -1.27998709668927     -1.34673848007775
  O   2.63055631324745     -0.98634338730023      0.72710131100282
  C   -0.82331319483854     -1.44975316654136     -1.06539653184991
  N   -1.13986429646218     -2.40116759160965     -1.68305722753096
  C   -1.77123371935108      0.55293409483213      0.07306079131601
  H   -2.45210454728930      0.59279379361159     -0.77838618421114
  H   -1.50343858680967      1.56381252854119      0.37261920074921
  H   -2.29594428548859      0.07762460105805      0.90632587261610
