14
Coordinates from ORCA-job run
  C   0.67370970070542      0.05336724283352      0.07818554126404
  C   -0.60149591891041     -0.29707157046582     -0.17830156607098
  N   1.11433083128254      1.29414350158647      0.71871123795122
  O   0.25635382646959      2.13443906204505      0.96438538376061
  O   2.31496114998584      1.37536853777632      0.95904093762274
  N   1.80208868522740     -0.81055295067480     -0.27088008253017
  O   2.07097803259210     -1.70400557153849      0.52492426331635
  O   2.36378143815129     -0.54352774963750     -1.32832529575781
  C   -0.77664194059234     -1.57020770308814     -0.81119904668022
  N   -0.95388672242211     -2.61147714782931     -1.33257928798570
  C   -1.83592603584914      0.51350772671309      0.11508564465466
  H   -1.88515691926237      0.77600047166188      1.17234653862060
  H   -1.82193599944276      1.44742015872565     -0.44883504402012
  H   -2.72116012793505     -0.05840400810791     -0.16055922414522
