14
Coordinates from ORCA-job run
  C   0.67216898337694      0.06164498367759      0.08376952008627
  C   -0.57668193093786     -0.32708632794522     -0.23326971913208
  N   1.00145951175419      1.24937238142144      0.87447053108895
  O   2.03571109934404      1.17257765073666      1.53137074773101
  O   0.21818092754098      2.19159214287353      0.83552188300833
  N   1.87430970902064     -0.66703579174034     -0.32220366083148
  O   2.61546325437529     -0.04822303545926     -1.07923213805270
  O   2.02258841782116     -1.80003084891104      0.12111069178484
  C   -0.70504983855477     -1.54007028971682     -0.98161060707038
  N   -0.86052673411864     -2.52960431012230     -1.60133372024859
  C   -1.83719032420270      0.41569805024289      0.12451741306178
  H   -1.85573680073825      0.65367349529376      1.19030760665019
  H   -2.70641892523630     -0.19255416599210     -0.12269045622521
  H   -1.89727734944472      1.36004606564121     -0.42072809185091
