14
Coordinates from ORCA-job run
  C   0.84111232425768      0.27187716862957      0.05818493194497
  C   -0.37945709049975     -0.53015015949316     -0.23100339822530
  N   1.53391012063378     -0.76739130412578      0.51755587346701
  O   2.56275779101848     -1.11512290651788      0.98724629810518
  O   0.33721919515862     -1.70628819858127      0.24861459118225
  N   1.23558160690500      1.63613427354387     -0.01889783190249
  O   0.35920220519196      2.39740658539365     -0.42793954142641
  O   2.38063556811716      1.91782898166561      0.32366230420494
  C   -0.66196181610626     -0.65606446149903     -1.66196223298303
  N   -0.90854248368954     -0.74493664461914     -2.80722290404038
  C   -1.60477799427800     -0.22891811946276      0.60064932048870
  H   -2.03417036795758      0.72721442653279      0.29518035237093
  H   -1.31697396416367     -0.18344927392842      1.65227085649725
  H   -2.34553509458787     -1.01814036753807      0.46166138031637
