14
Coordinates from ORCA-job run
  C   0.68254362457427     -0.00814036906895      0.14517188818248
  C   -0.55846103962173     -0.29224539530534     -0.27997576101974
  N   0.99788424167996      1.13124710492311      1.00349463515997
  O   1.62559045750790      0.85402551333991      2.02161697618551
  O   0.60759568282502      2.23787631378749      0.64536149626664
  N   1.88175112646660     -0.78024546049272     -0.19904576552901
  O   2.86662888713163     -0.09999039341061     -0.47108687141651
  O   1.79080217369792     -2.00094916614447     -0.20068870557188
  C   -0.77297849440292     -1.43028028251310     -1.12269663325026
  N   -1.05486373069942     -2.32366112638450     -1.83603928087090
  C   -1.77926514382811      0.52793804818709      0.02898289657810
  H   -2.59937101215499     -0.14085057929984      0.29492311340231
  H   -2.07588878042412      1.08481272478950     -0.86398979649321
  H   -1.61096799275201      1.23946306759241      0.83397180837651
