14
Coordinates from ORCA-job run
  C   0.66138347731633      0.21425300845006     -0.02484694996654
  C   -0.65213528490791      0.01142977763483     -0.21741296014570
  N   1.50270477222786      1.05379500926754     -0.88306437584618
  O   2.56742035741950      0.53865886447122     -1.21186967682134
  O   1.07517380414689      2.15782517447286     -1.19610087803182
  N   1.42942134610011     -0.37867600475616      1.06859419403904
  O   2.14000064203958      0.40726387212838      1.68840512928929
  O   1.29811907565953     -1.58187807215277      1.26962161647959
  C   -1.29382442001770      0.64694602021835     -1.32934916025125
  N   -1.90761031811926      1.10240138986097     -2.22523744036126
  C   -1.53004281411455     -0.87409253366487      0.62073403307791
  H   -1.80385711538374     -1.76031173582146      0.04225586692759
  H   -2.44883368599244     -0.33720906218460      0.86394301748278
  H   -1.03991983637418     -1.19940570792433      1.53432758412790
