14
Coordinates from ORCA-job run
  C   0.69452764196335      0.04064296076735      0.02395417507895
  C   -0.57783260075200     -0.29009016805724     -0.24723080237664
  N   1.87060102448666     -0.70283594118206     -0.43736522171668
  O   1.86931140371856     -1.10932306012274     -1.59240494391531
  O   2.74586370820600     -0.85285502006330      0.41032325507751
  N   1.06912812120594      1.19615718257080      0.83647535120113
  O   0.54186573641177      1.31113524282150      1.93824767937726
  O   1.88405174220664      1.95265020811390      0.31612097508133
  C   -0.84850705990862     -1.44194593999371     -1.05371796247121
  N   -1.18020207591663     -2.37923515134120     -1.68470719514348
  C   -1.78202192359752      0.44404912794050      0.27374217790384
  H   -1.53353308633415      1.43301120349901      0.65211521494473
  H   -2.22977528956771     -0.13171565874745      1.08840753968034
  H   -2.52147734212229      0.53135501379463     -0.52396024272177
