14
Coordinates from ORCA-job run
  C   0.65456057776253      0.20598903991895     -0.01767413734339
  C   -0.64258711086391     -0.04010005101188     -0.27463079895418
  N   1.50580393564836      1.05486256454045     -0.85839186969975
  O   1.60340028668871      0.76164392587983     -2.04463007135114
  O   2.04343362023032      1.98343418026013     -0.26381181504457
  N   1.37434477185862     -0.32173367988732      1.14051132996779
  O   2.55085314139885     -0.61021971060456      0.95166009858633
  O   0.73821999729310     -0.43529650825176      2.18494295556753
  C   -1.21041407170833      0.53964648327278     -1.45528472998939
  N   -1.74783622496597      0.99557144175656     -2.39944865196988
  C   -1.54499486957998     -0.88344570630981      0.58937951993385
  H   -2.41475846750483     -1.20647691820849      0.02011530307602
  H   -1.01685138582846     -1.74694017962561      0.98215391763497
  H   -1.89017420042900     -0.29593488172926      1.44510894958581
