14
Coordinates from ORCA-job run
  C   0.67498869392672      0.05885889813799      0.08116864898851
  C   -0.59371687795377     -0.29687364544111     -0.19477316925493
  N   1.09367343494592      1.27856802481075      0.77512075367513
  O   2.28265979585575      1.34306381438051      1.07421355481099
  O   0.23158990837294      2.11963191453269      1.00510022752877
  N   1.81752439494421     -0.78057856248779     -0.28260941487226
  O   2.05078106435999     -1.73481179116892      0.45334003498243
  O   2.42648742681070     -0.43788343496143     -1.29022810996136
  C   -0.75759305128767     -1.54879585634163     -0.87016888117268
  N   -0.93818021228455     -2.57379648314207     -1.42300327649164
  C   -1.83987146059936      0.49134458785984      0.11172092662287
  H   -2.71668405414662     -0.09419190659668     -0.16046585319862
  H   -1.84383424616385      1.42725089580970     -0.44934418919632
  H   -1.88782481678042      0.74921354460815      1.16992874753913
