14
Coordinates from ORCA-job run
  C   0.68503656268608      0.01115679831314      0.11990663489584
  C   -0.56370740658991     -0.32508881482548     -0.24035796143675
  N   1.00148442910254      1.18896311388176      0.92095329274067
  O   1.70057673486545      0.97306503512671      1.90653031783326
  O   0.53850665686128      2.26501912872320      0.55582491277231
  N   1.89033897357571     -0.73105976018652     -0.25686720149919
  O   1.85332781609215     -1.95295826732867     -0.18903312409789
  O   2.82884921429199     -0.02801133284493     -0.62093240081902
  C   -0.77274220331818     -1.49425876654425     -1.04016948025991
  N   -1.05504452966533     -2.42099790292960     -1.71006426709680
  C   -1.79088050415330      0.47942653826556      0.08960943964885
  H   -2.62163538271030     -0.19654826818144      0.29743734729803
  H   -1.63602470726372      1.13724561218911      0.94228221005304
  H   -2.05908565377446      1.09404688634141     -0.77411972003243
