14
Coordinates from ORCA-job run
  C   0.68733555870914      0.02829833270401      0.10242598883855
  C   -0.55171827981318     -0.28651754034171     -0.30701215704197
  N   1.89484348593019     -0.74354266006065     -0.20645666207472
  O   2.01637016632815     -1.17765272391157     -1.34492874802277
  O   2.66702187344895     -0.88556206169949      0.73729535914847
  N   0.98764186631373      1.19397434449827      0.93078423486550
  O   1.86661553328349      1.92948794312010      0.49077298327219
  O   0.34381747357769      1.33694749534456      1.96531641111279
  C   -0.75090691026798     -1.45040862090133     -1.11688457149629
  N   -1.02573643450539     -2.39535879110748     -1.76354837686162
  C   -1.79190054517605      0.48045130203492      0.05922992696291
  H   -2.43606440605058      0.56115737712907     -0.81784691927429
  H   -1.56733674583567      1.47430059635690      0.43992119713086
  H   -2.33898263594248     -0.06657499316563      0.83193133344037
