14
Coordinates from ORCA-job run
  C   0.69203831293254      0.04215565809305      0.05826186641161
  C   -0.56576730597968     -0.29407769709008     -0.26829372019391
  N   1.02963766180978      1.21088079074717      0.86807106218751
  O   0.45073306028031      1.34583877493839      1.94124084535607
  O   1.87094237264605      1.95653807503983      0.37475553134253
  N   1.88865317173112     -0.70859465453061     -0.33460908072031
  O   2.71972497012443     -0.84958267915219      0.55784370314294
  O   1.94508323574824     -1.12834531404160     -1.48347633080563
  C   -0.79587207404528     -1.45910076441565     -1.06871025400673
  N   -1.09609286243214     -2.40548808406336     -1.70178454952674
  C   -1.79484553973870      0.44630698517619      0.17980657413055
  H   -2.29509222654966     -0.12878748453047      0.96377605709144
  H   -1.56439528761979      1.43307188552361      0.57465202205159
  H   -2.48374748890723      0.53918450830574     -0.66153372646092
