14
Coordinates from ORCA-job run
  C   0.68071255847101     -0.00169536520201      0.11676420416285
  C   -0.55462664615232     -0.21740992739849     -0.36419011053393
  N   0.97362416823447      0.96799975092304      1.16996450971080
  O   1.90313475837931      1.73320969082263      0.92859163459668
  O   0.27802641360799      0.93517669633862      2.18036150078764
  N   1.88676880887976     -0.70322802895373     -0.32872844518269
  O   2.05407289450274     -0.83894913215817     -1.53446820954823
  O   2.61549669241419     -1.09366676208218      0.57887490715127
  C   -0.73418685702808     -1.18402965429775     -1.40481977422981
  N   -0.96277255744435     -1.96236822106917     -2.25801950568279
  C   -1.79549877308834      0.47180709077503      0.13596135890364
  H   -2.47663251515403      0.63229758100444     -0.70114484487828
  H   -1.57412701027924      1.42613945657450      0.61033556862993
  H   -2.29499193534311     -0.16428317527678      0.87151720611294
