14
Coordinates from ORCA-job run
  C   0.68478075708561      0.00504856376885      0.11963332383646
  C   -0.56414583254724     -0.30719412194357     -0.26078646687596
  N   1.00471435540993      1.15539089401886      0.96188968698627
  O   0.56331752086356      2.24856922477836      0.62214136986154
  O   1.68719440188372      0.90034289488285      1.94999538079367
  N   1.88779825803882     -0.74313228145580     -0.25719636912110
  O   2.84494739092974     -0.04447638164491     -0.57800774553729
  O   1.82987052519548     -1.96585514055946     -0.22754769671603
  C   -0.77995697923336     -1.45544445470855     -1.08858013111964
  N   -1.05912894124538     -2.36346329814653     -1.78440394899693
  C   -1.78810785779329      0.49499529463194      0.08402887692358
  H   -2.09049987751566      1.08316604004750     -0.78675105399100
  H   -1.61626534975396      1.17798169528930      0.91291608546494
  H   -2.60451837131797     -0.18492892895885      0.33266868849151
