14
Coordinates from ORCA-job run
  C   0.68795504902481     -0.05184999801757      0.12406017193635
  C   -0.52010037241937     -0.23312973385586     -0.43250566080527
  N   0.86817875586692      0.92019796096931      1.19868776937028
  O   1.20661730810124      2.05182524144636      0.86660941663512
  O   0.63354745563054      0.50392215772542      2.33065583229845
  N   1.93753892613735     -0.75471089760279     -0.19922086605145
  O   2.92873616082345     -0.37434419365345      0.41715725941213
  O   1.88557750711341     -1.64064690873462     -1.03942106504579
  C   -0.74350142484024     -1.19010023218577     -1.47118486851168
  N   -1.06311287148888     -1.91709261555857     -2.33987796059903
  C   -1.72508482408198      0.53471426742839      0.04404143702680
  H   -2.24312899906194     -0.05216675450476      0.80807710471230
  H   -2.40820760221716      0.70895822964782     -0.78616768832505
  H   -1.44401506858817      1.49542347689609      0.47908911794683
