14
Coordinates from ORCA-job run
  C   0.68678048140492      0.00209587838110      0.11833041597878
  C   -0.54500662565724     -0.21441374603982     -0.36925479432548
  N   0.97295623994688      0.97290461952834      1.17093511980727
  O   1.88935157355388      1.75242414019114      0.92571157576586
  O   0.28603440968658      0.92749124871610      2.18681708334880
  N   1.89372948547183     -0.70420256851127     -0.31957822883870
  O   2.04837108464652     -0.87328653261458     -1.52266823048921
  O   2.63043532723135     -1.07115755002836      0.59082977345729
  C   -0.73248986072798     -1.18354186946143     -1.40653050338786
  N   -1.00459611191834     -1.96146668087021     -2.24701399610842
  C   -1.78975861938486      0.47047219961314      0.12562510733609
  H   -2.45673970837207      0.65779419909213     -0.71710176783131
  H   -2.30649374494082     -0.18476240512547      0.83220368319843
  H   -1.57157393094066      1.40864906712920      0.63169476208845
