14
Coordinates from ORCA-job run
  C   0.69743971946694      0.01125512276829      0.03984986767104
  C   -0.57117958046403     -0.32800832256750     -0.23648642302720
  N   1.90089457337289     -0.73162906806739     -0.35819928397405
  O   2.88197130455071     -0.55263045077610      0.35801093413387
  O   1.81770063879672     -1.45605253439251     -1.33999089987217
  N   1.03195788816508      1.19910650551883      0.82156682673675
  O   0.76164912771514      1.18514595803298      2.01799900334943
  O   1.55969747596843      2.10540253177249      0.18319469280639
  C   -0.86917731894798     -1.48654211656671     -1.02205433397479
  N   -1.24246915951463     -2.41787900989460     -1.63761535625000
  C   -1.75910152972563      0.47514271584510      0.21697696877599
  H   -2.22046181341650      0.95393045732893     -0.65170541749345
  H   -1.48886940231464      1.23514519205966      0.94753227358253
  H   -2.50005192365250     -0.19238698106147      0.66092114753567
