14
Coordinates from ORCA-job run
  C   0.68491991336920      0.02164601233117      0.10544290908147
  C   -0.55800346125068     -0.22497872525182     -0.33799316324275
  N   1.00809834536245      1.01715122383988      1.12543934307394
  O   1.93721119979597      1.76605612245555      0.83745229383146
  O   0.32949576741190      1.03054093187493      2.14705819200634
  N   1.88860493960309     -0.66539179279970     -0.37537455645360
  O   2.63221237569898     -1.06793815870152      0.51439070333706
  O   2.03461862222597     -0.78412817067136     -1.58525114508553
  C   -0.74156585205469     -1.20028741130285     -1.37031860603001
  N   -0.99838605484054     -1.98469547469060     -2.21047818787949
  C   -1.81005498855696      0.41441140131423      0.19022140881439
  H   -2.33061196612503     -0.29191599944060      0.84261215285825
  H   -1.60493361183013      1.31648443084514      0.76110787982655
  H   -2.47260522880954      0.65304561019756     -0.64230922413807
