14
Coordinates from ORCA-job run
  C   0.67490293466096      0.16137514940608     -0.06776121329278
  C   -0.64151302243140     -0.01610400809351     -0.26047286228996
  N   1.56811903501384      0.89235137356290     -0.97233446940184
  O   1.39208844827932      0.75720374965962     -2.17641521367378
  O   2.40745826692750      1.59059670486017     -0.41104535191051
  N   1.38910497886746     -0.35184755277402      1.09924055959058
  O   0.96525623279892     -0.03917680878869      2.20718947892752
  O   2.35596425621098     -1.06342611561852      0.84253604329609
  C   -1.26638040730514      0.51984656563516     -1.43214622849792
  N   -1.88657021515705      0.93645563538891     -2.34225993339160
  C   -1.55498742963202     -0.72278509136847      0.70169362150169
  H   -2.20908580278500     -1.39635860054935      0.14514490540409
  H   -1.00974644430577     -1.28419495749608      1.45699394544974
  H   -2.18361083114262      0.01506395617578      1.20763671828868
