14
Coordinates from ORCA-job run
  C   0.65498292621609      0.22464266619522     -0.00522734014845
  C   -0.61965063903393     -0.08896904555672     -0.29286506282405
  N   1.52245324748793      1.01493817763690     -0.88008563959251
  O   2.03744882230868      1.99443557286636     -0.34990127285369
  O   1.65300840327948      0.63281407986773     -2.03710960968197
  N   1.35368763724630     -0.21626196530595      1.20333556855041
  O   2.52642655645234     -0.54016764189085      1.04119691269410
  O   0.71933948475443     -0.22479193361728      2.25324043827618
  C   -1.17422918957541      0.39605627142524     -1.52147877457642
  N   -1.72043196625116      0.77654422004429     -2.49285700714559
  C   -1.55299785243107     -0.85835455204709      0.60455472762846
  H   -1.02659405617084     -1.58405902857890      1.21923301727100
  H   -2.29845936036874     -1.36881890726874     -0.00586378946267
  H   -2.07298401391411     -0.15700791377019      1.26482783186520
