14
Coordinates from ORCA-job run
  C   0.68666867342917      0.00048698870261      0.11397377794570
  C   -0.56612213793988     -0.29995052226170     -0.26286892732232
  N   1.01650136074651      1.13425383765509      0.97497514186360
  O   1.68644819544632      0.85454918244015      1.96496366722193
  O   0.59894676840495      2.23943105994740      0.64427703631449
  N   1.88537968357936     -0.74295582976449     -0.28590401962092
  O   1.81703099600022     -1.96536606366308     -0.30250692266280
  O   2.84860778915266     -0.04129740907487     -0.58081579026089
  C   -0.79563647741155     -1.43206382150548     -1.10917812060021
  N   -1.09248635045844     -2.32566853497829     -1.81625798164414
  C   -1.78455631756535      0.49846441758012      0.10814837861739
  H   -1.59217427024234      1.19724460453881      0.91900093447033
  H   -2.12132442287351      1.06716274125183     -0.76287459505981
  H   -2.58628349026809     -0.18429065086812      0.39506742073766
