15
Coordinates from ORCA-job run
  C   0.69673439489243      0.41383644240302     -0.03182793435854
  C   -0.81147692486393      0.35385571918908      0.27329914987859
  Br  1.27130000291749      2.20621788015566     -0.31238245777635
  H   -0.96530719323081      1.11054330384140      1.04776963656512
  N   1.05366789020102     -0.45635639825200     -1.23205333773774
  O   2.09442743446589     -0.21730599914982     -1.81869470680454
  O   0.26199000696718     -1.36597674189297     -1.46213544111027
  N   1.44896969238434     -0.17738331396028      1.16464272111610
  O   1.21067871913209      0.37106245910503      2.22989211974138
  O   2.16901259360252     -1.14276015581256      0.95780317787173
  C   -1.17913572003888     -0.94384315011945      0.87098732372732
  N   -1.53266007331652     -1.94890034521273      1.36669220326953
  N   -1.55409669795234      0.72550981031302     -0.90770585295747
  H   -1.73040013670249     -0.08305745432054     -1.48946570208950
  H   -2.43370398845798      1.15455794371315     -0.65582089933535
