15
Coordinates from ORCA-job run
  C   0.72724923449297      0.33857182938195     -0.04581457848572
  C   -0.78652127305983      0.40701021889185      0.25323858413285
  Br  1.37187273056245      2.05559866665179     -0.56086601899348
  H   -0.91756231616893      1.24973555944116      0.93721375117144
  N   0.97165775865331     -0.70819005978242     -1.12469436849493
  O   1.48862548995236     -0.38680935436891     -2.17744062902614
  O   0.58947008843333     -1.82291283230230     -0.78266736369085
  N   1.53012970454473     -0.11536836003219      1.16422453860100
  O   1.02449890929309      0.12945253539372      2.25253293757634
  O   2.61316370921702     -0.63357988583916      0.93889071523024
  C   -1.28522235286485     -0.78679299828065      0.94593628897749
  N   -1.79894752292592     -1.70218055911087      1.47289293573378
  N   -1.46267238111642      0.62019031153487     -1.01698166251583
  H   -2.09539143492538     -0.13639729939415     -1.23482406550227
  H   -1.97135034408795      1.49167222781532     -1.02064106471389
