15
Coordinates from ORCA-job run
  C   0.66063233712865     -0.46153325427816      0.15112432385392
  C   -0.79420170524774     -0.09137970693138      0.47769950314000
  Br  1.14695397379293     -2.14053804243280      0.91228004821885
  H   -0.85623309265980     -0.19373784048620      1.56559934675033
  N   1.52006490750139      0.66345194610969      0.74615018028900
  O   1.45152648228581      0.76661748832736      1.95877389102622
  O   2.13615241199530      1.36517010670347     -0.03818495673864
  N   0.94338849319218     -0.47398206518101     -1.34570493621810
  O   2.01262902390472     -0.93822389680830     -1.70297157938519
  O   0.07566638760329      0.02444006431678     -2.05656859727400
  C   -1.71184547086736     -1.07500722417324     -0.12225697104657
  N   -2.49581178011228     -1.81284366838079     -0.59256549974296
  N   -1.03905201986781      1.29338264850143      0.14937143797338
  H   -1.27072714891982      1.40435892151205     -0.82801706261649
  H   -1.77914279972947      1.67082452320109      0.72527087177025
