14

C	0.0	0.0	0.0
C	-0.449564	0.138084	-1.460529
F	1.355569	0.0	0.0
H	0.463565	0.335418	-2.03391
H	-1.118969	0.991491	-1.515842
N	-0.359058	1.222582	0.830195
O	-0.489964	1.067038	2.036997
O	-0.319341	2.30397	0.252974
C	-0.464813	-1.202055	0.701736
N	-0.567066	-2.218915	1.282019
N	-1.063804	-1.11034	-1.904496
H	-1.283975	-1.014958	-2.890169
H	-1.940412	-1.071358	-1.370565
F	-2.42035	0.0	0.0
