14

C	0.0	0.0	0.0
C	-0.388815	-0.100813	-1.475534
F	1.355094	0.0	0.0
H	-1.468411	0.038599	-1.500122
H	0.141358	0.709271	-1.98188
N	-0.41043	1.322372	0.611986
O	-0.468802	2.281965	-0.150926
O	-0.503732	1.376756	1.83291
C	-0.48906	-1.100739	0.833181
N	-0.59631	-2.058955	1.506551
N	0.072257	-1.405446	-1.959754
H	0.671056	-1.300909	-2.766103
H	-0.724405	-1.973672	-2.211434
F	-2.432338	0.0	0.0
