14

C	0.0	0.0	0.0
C	-0.335211	-0.123219	-1.537977
F	1.363851	0.0	0.0
H	-0.58897	-1.176986	-1.680366
H	0.6312	0.058657	-2.020704
N	-0.355714	1.329136	0.62025
O	-0.1828	2.310495	-0.099179
O	-0.63877	1.364764	1.809146
C	-0.488296	-1.095205	0.834266
N	-0.572682	-2.069064	1.488415
N	-1.341726	0.680916	-2.181721
H	-2.140083	0.557037	-1.543826
H	-1.054843	1.649001	-2.11169
F	-2.364863	0.0	0.0
