14

C	0.0	0.0	0.0
C	-0.396859	-0.078891	-1.486524
F	1.356413	0.0	0.0
H	-1.460406	0.143828	-1.512543
H	-0.24179	-1.128146	-1.759545
N	-0.406846	1.314187	0.633561
O	-0.406522	1.356121	1.858452
O	-0.557061	2.277872	-0.10975
C	-0.520338	-1.104345	0.806313
N	-0.582568	-2.095466	1.43892
N	0.487102	0.746197	-2.325757
H	0.333304	0.458567	-3.284455
H	0.156061	1.699577	-2.247203
F	-2.404794	0.0	0.0
