17
Coordinates from ORCA-job run
  C   -0.81358590600327      0.13868076139962     -0.51576060289042
  C   0.70208737717713      0.00791997364799     -0.39347836107000
  F   -1.13067324728802      0.46490485473307     -1.81335355798052
  H   1.04946455830631     -0.47708119240106     -1.30407263277043
  N   -1.40033714298136      1.00822604293433      0.38109075574740
  H   -2.34716841786882      0.76641776531869      0.63087656218778
  H   -0.83253038304461      1.27415092130031      1.16885054145538
  N   -1.37807235064506     -1.31176623980209     -0.40547532574898
  O   -0.88558724940232     -2.13705656356367     -1.16494906553835
  O   -2.26973280780453     -1.51092665105063      0.41238856396042
  C   1.16871560233505     -0.71895248487219      0.85221326950839
  H   0.87779978274966     -1.76828128417294      0.79477365762019
  H   0.75785534739213     -0.28092608112188      1.76080369994599
  H   2.25684437588117     -0.67449492109767      0.91733840721096
  N   1.27453091731552      1.39606892520538     -0.43364322940700
  O   1.28625830789032      2.02179292159999      0.62649638695447
  O   1.68313123599071      1.80232325194276     -1.51609906918528
