17
Coordinates from ORCA-job run
  C   -0.78347537353067     -0.44683971863609     -0.05416468044694
  C   0.50262624180492      0.38355712926598     -0.01522157172890
  F   -0.54114323111675     -1.72322876386172      0.30012989137383
  H   0.29259243023674      1.36076888033703     -0.44939970758789
  N   -1.46229972577941     -0.45963881314867     -1.30641008608122
  H   -1.60319765790659      0.47144573401679     -1.67383678258421
  H   -0.98449261182445     -1.04990818863477     -1.97321238900101
  N   -1.78682114160302      0.15174184711040      0.92958268729961
  O   -2.36371914479312     -0.59002934862139      1.70139395163780
  O   -1.94922038734216      1.36194301919327      0.78399299475256
  C   1.65455560159633     -0.30802073487124     -0.72477774779428
  H   1.39232001450059     -0.51961313973653     -1.76252841353640
  H   1.90095297805280     -1.24453009844458     -0.22363692799821
  H   2.52743154580358      0.34489466953528     -0.72042754691201
  N   0.94369902818398      0.68546208503399      1.38888492256451
  O   0.56015613443308     -0.06107044971530      2.28575025467778
  O   1.69903529928416      1.64406589117755      1.51388115136497
