17
Coordinates from ORCA-job run
  C   -0.71065757388189     -0.38721000645086     -0.16064644396812
  C   0.60810947117742      0.36205359425896      0.01918277756881
  F   -0.64284817729407     -1.62662352592984      0.36686155468288
  H   0.48002520894854      1.37164729439988     -0.37486162025810
  N   -1.06397821416098     -0.47987464923893     -1.52395649400893
  H   -1.83459440446254     -1.12830119663569     -1.63876442341811
  H   -1.32843638960247      0.42893452458907     -1.88272440680586
  N   -1.78829543874541      0.37323120756394      0.66352463260293
  O   -2.16238322812824     -0.10797779176130      1.72225604942872
  O   -2.15578310154081      1.42688240701239      0.15190406079141
  C   1.76777082890825     -0.37660245477387     -0.61241144955973
  H   1.85529339850152     -1.37538004197204     -0.18930164233388
  H   2.69693796440580      0.16472045765901     -0.42717219558071
  H   1.60465140362285     -0.45300005185460     -1.68649657792238
  N   0.84064872249401      0.55326878851298      1.49421791129183
  O   0.45659711361657      1.61895824015689      1.97414185183341
  O   1.37694241614146     -0.36572679553598      2.10524641565584
