17

C	-0.483758	0.064332	-1.450755
C	0.0	0.0	0.0
F	-1.91224	-0.060757	-1.402363
H	1.094183	0.0	0.0
N	-0.223386	1.346152	-2.046447
H	-1.087176	1.824206	-2.256961
H	0.351933	1.226409	-2.866727
N	0.076324	-0.978448	-2.231668
H	-0.559421	-1.235262	-2.974841
H	0.323501	-1.788658	-1.682091
C	-0.467176	-1.247576	0.607089
N	-0.861277	-2.242595	1.091878
C	-0.476199	1.199843	0.816888
H	-0.079826	1.131817	1.83091
H	-1.567201	1.245942	0.860213
H	-0.086095	2.104357	0.35145
Cl	3.407833	0.0	0.0
