17

C	-0.462323	-0.004126	-1.45226
C	0.0	0.0	0.0
F	0.138499	1.16153	-2.033063
H	1.096994	0.0	0.0
N	-0.021347	-1.168315	-2.128544
H	-0.126974	-1.051097	-3.130427
H	0.954246	-1.347425	-1.921024
N	-1.881104	0.134315	-1.592517
H	-2.134448	1.108821	-1.670244
H	-2.235108	-0.388905	-2.380206
C	-0.45506	-1.214793	0.653702
N	-0.793173	-2.18167	1.236559
C	-0.507529	1.227639	0.749484
H	-0.158534	2.132321	0.247398
H	-0.109946	1.229885	1.767154
H	-1.599991	1.238557	0.806793
Cl	2.698599	0.0	0.0
