17

C	-0.357976	-0.011477	-1.492821
C	0.0	0.0	0.0
F	-0.14585	1.294449	-1.982749
H	1.097252	0.0	0.0
N	0.496192	-0.942235	-2.14248
H	1.463907	-0.79498	-1.854942
H	0.419409	-0.845844	-3.148657
N	-1.766799	-0.241251	-1.724705
H	-1.93999	-1.233479	-1.614294
H	-1.976688	0.015804	-2.684053
C	-0.482045	-1.241341	0.597981
N	-0.914682	-2.208196	1.106382
C	-0.5503	1.214413	0.738636
H	-0.098823	2.115875	0.326319
H	-0.291719	1.151911	1.797099
H	-1.635243	1.270083	0.630352
Cl	3.385999	0.0	0.0
