17

C	-0.42931	0.016502	-1.465647
C	0.0	0.0	0.0
F	-1.892315	-0.039384	-1.444225
H	1.094198	0.0	0.0
N	-0.065611	1.240835	-2.105242
H	-0.836352	1.894444	-2.080738
H	0.244239	1.068752	-3.052323
N	0.07488	-1.090524	-2.185561
H	0.060212	-1.936193	-1.61842
H	-0.483079	-1.228072	-3.026266
C	-0.482046	-1.222198	0.639971
N	-0.854152	-2.215529	1.145992
C	-0.490629	1.234425	0.752492
H	-1.580819	1.313581	0.726839
H	-0.160259	1.187026	1.791309
H	-0.039123	2.116897	0.298243
Cl	3.172369	0.0	0.0
