18

C	0.0	0.0	0.0
C	-0.297112	-0.065639	-1.512919
Br	2.053896	0.0	0.0
H	0.386369	-0.806417	-1.937505
N	-0.606115	1.029202	0.66698
H	-1.079678	1.648284	0.022672
H	-1.185726	0.720314	1.43507
N	-0.278979	-1.343251	0.672525
O	-0.6773	-1.313001	1.832805
O	-0.056108	-2.353187	0.016575
N	-0.063388	1.287987	-2.020369
H	0.929934	1.46551	-2.106036
H	-0.49137	1.376208	-2.933408
C	-1.723842	-0.464162	-1.839875
H	-2.461982	0.251293	-1.480054
H	-1.803085	-0.551174	-2.930302
H	-1.996654	-1.42533	-1.413474
Br	-4.621998	0.0	0.0
