18

C	0.0	0.0	0.0
C	-0.614903	0.050945	-1.400242
Br	1.936843	0.0	0.0
H	-1.683287	-0.13993	-1.212496
N	-0.549564	0.999035	0.810325
H	-0.3303	0.847101	1.785899
H	-1.570304	0.966871	0.69787
N	-0.328229	-1.45901	0.565024
O	-1.368655	-1.509555	1.2117
O	0.411957	-2.398353	0.313639
N	-0.11433	-1.02971	-2.231481
H	0.738412	-0.748979	-2.702228
H	-0.811455	-1.253199	-2.929126
C	-0.47337	1.442252	-2.016384
H	-0.974856	2.200565	-1.417314
H	-0.92814	1.429212	-3.009472
H	0.582424	1.710918	-2.116231
Br	-4.019462	0.0	0.0
