18

C	0.0	0.0	0.0
C	-0.422764	-0.118475	-1.522684
Br	1.944212	0.0	0.0
H	0.339727	0.510587	-1.993804
N	-0.508031	1.191017	0.543808
H	-1.528238	1.138052	0.497967
H	-0.241384	1.280132	1.516728
N	-0.339851	-1.222096	0.926062
O	-0.668857	-0.942615	2.074314
O	-0.210015	-2.35519	0.4827
N	-1.687969	0.458077	-1.874996
H	-2.492372	0.019309	-1.427196
H	-1.719555	1.444029	-1.652635
C	-0.322628	-1.510562	-2.134767
H	0.617624	-2.009993	-1.904181
H	-1.142703	-2.14094	-1.790662
H	-0.417587	-1.384905	-3.21474
Br	-4.366877	0.0	0.0
