16

C	0.0	0.0	0.0
C	-0.555901	0.027026	-1.443196
Br	1.962945	0.0	0.0
H	-1.66962	0.048989	-1.218187
N	-0.473214	1.188471	0.632189
H	-1.504459	1.124206	0.53131
H	-0.268499	1.086837	1.622454
N	-0.447913	-1.18331	0.68043
H	-1.481018	-1.104531	0.641796
H	-0.149136	-2.02276	0.19448
C	-0.188525	-1.15035	-2.205622
N	0.07501	-2.133462	-2.794825
N	-0.204729	1.257874	-2.212537
O	-0.94988	2.224935	-2.07647
O	0.799752	1.22444	-2.927491
H	-2.90085	0.0	0.0
