15

C	0.0	0.0	0.0
C	-0.591595	-0.138857	-1.400505
F	1.399774	0.0	0.0
H	-1.488592	-0.755652	-1.278572
H	0.150244	-0.65357	-2.018011
C	-0.498431	1.207361	0.755079
H	-0.213095	2.103452	0.205207
H	-0.062274	1.218571	1.75676
H	-1.592413	1.118793	0.80297
C	-0.319216	-1.237135	0.761069
N	-0.430938	-2.234897	1.369708
N	-0.939838	1.161246	-1.974575
H	-1.087627	1.017807	-2.969849
H	-1.864565	1.35493	-1.579393
H	-3.252789	0.0	0.0
