15

C	0.0	0.0	0.0
C	-0.51589	-0.032113	-1.419961
F	1.400485	0.0	0.0
H	-0.278989	0.942474	-1.876868
H	-1.611991	-0.111784	-1.308433
C	-0.527511	1.199407	0.748865
H	-1.626405	1.106196	0.737309
H	-0.215105	2.113802	0.236155
H	-0.146301	1.208717	1.772839
C	-0.379667	-1.249924	0.699486
N	-0.574891	-2.237696	1.302639
N	0.03129	-1.178728	-2.138132
H	0.988395	-0.989716	-2.407888
H	-0.509769	-1.338942	-2.977877
H	-3.297289	0.0	0.0
