15

C	0.0	0.0	0.0
C	-0.620065	-0.148986	-1.406966
Br	1.954728	0.0	0.0
H	-1.695799	-0.177125	-1.170336
C	-0.39763	1.262927	0.628594
N	-0.615329	2.325124	1.083917
C	-0.392747	-1.13707	0.833785
N	-0.635306	-2.053912	1.526817
N	-0.210127	-1.406854	-1.981086
H	0.468942	-1.228237	-2.711133
H	-1.011712	-1.885847	-2.367824
N	-0.240068	0.981023	-2.251296
H	-0.966987	1.067329	-2.953844
H	-0.278854	1.843318	-1.716961
Cl	-3.648482	0.0	0.0
