15

C	0.0	0.0	0.0
C	-0.561889	-0.151489	-1.42276
Br	1.972915	0.0	0.0
H	-1.646996	-0.130868	-1.233736
C	-0.381952	1.279295	0.60155
N	-0.577763	2.315504	1.11997
C	-0.383659	-1.122294	0.859343
N	-0.566093	-2.026431	1.587733
N	-0.203918	-1.462368	-1.924626
H	0.688982	-1.441838	-2.402873
H	-0.918514	-1.790479	-2.560156
N	-0.199447	1.022715	-2.191299
H	-0.920703	1.219621	-2.872135
H	0.683892	0.890267	-2.668652
Cl	-3.518922	0.0	0.0
