15

C	0.0	0.0	0.0
C	-0.439449	-0.196434	-1.556865
Br	1.948996	0.0	0.0
H	0.502519	-0.439985	-2.051362
C	-0.442139	1.249983	0.603179
N	-0.697261	2.28158	1.106171
C	-0.399549	-1.156302	0.797747
N	-0.612002	-2.150281	1.388385
N	-0.866046	1.105765	-2.014612
H	-1.802397	1.270421	-1.643942
H	-0.952738	1.045235	-3.022187
N	-1.368781	-1.249414	-1.839997
H	-2.258195	-1.014972	-1.390061
H	-1.052747	-2.136008	-1.464099
Cl	-3.5345	0.0	0.0
