15

C	0.0	0.0	0.0
C	-0.424883	-0.050051	-1.533171
Br	1.969235	0.0	0.0
H	0.250705	0.682147	-2.003327
C	-0.405433	1.271141	0.59254
N	-0.648444	2.322397	1.058492
C	-0.468705	-1.14496	0.765469
N	-0.786298	-2.088748	1.389689
N	-1.758584	0.339789	-1.816538
H	-2.489688	-0.083269	-1.22967
H	-1.876171	1.340464	-1.725242
N	-0.217966	-1.413927	-1.972388
H	0.757808	-1.603716	-2.155467
H	-0.756051	-1.533622	-2.820483
Cl	-4.282855	0.0	0.0
