15

C	-0.29026	0.058336	-1.505972
C	0.0	0.0	0.0
Br	-0.225695	-2.01333	-2.108869
H	1.094003	0.0	0.0
H	-0.396746	-0.896358	0.473807
C	-1.683421	0.459756	-1.940101
H	-1.852914	1.495535	-1.631677
H	-2.43217	-0.184187	-1.478003
H	-1.786138	0.386209	-3.025403
N	0.716331	0.796867	-2.090274
H	0.708428	0.811597	-3.100132
H	1.643296	0.605407	-1.677652
C	-0.496859	1.193496	0.664791
N	-0.90971	2.152704	1.20539
H	2.790433	0.0	0.0
