15

C	-0.358828	0.025685	-1.452086
C	0.0	0.0	0.0
Br	-2.526558	0.705588	-1.566467
H	1.095434	0.0	0.0
H	-0.318808	0.919391	0.492542
C	0.37204	1.121686	-2.174392
H	0.114522	2.094755	-1.759
H	1.442207	0.926377	-1.997111
H	0.142773	1.123187	-3.242705
N	-0.26246	-1.198855	-2.065621
H	-0.707843	-1.959094	-1.570195
H	-0.492756	-1.190292	-3.047461
C	-0.520605	-1.157916	0.698187
N	-0.922455	-2.132242	1.219745
H	2.677397	0.0	0.0
