15

C	-0.513474	-0.06144	-1.442153
C	0.0	0.0	0.0
Br	-0.041883	1.637923	-2.331741
H	1.092966	0.0	0.0
H	-0.287487	-0.949562	0.4749
C	0.209519	-1.184902	-2.158753
H	-0.061586	-1.195911	-3.2154
H	-0.086775	-2.139864	-1.70658
H	1.287523	-1.063087	-2.023644
N	-1.954207	-0.199392	-1.60443
H	-2.22247	-1.071207	-1.153211
H	-2.413125	0.553853	-1.099655
C	-0.587027	1.080874	0.770459
N	-1.090971	1.949239	1.382577
H	2.803848	0.0	0.0
