15

C	-0.348195	0.06539	-1.4867
C	0.0	0.0	0.0
Br	-0.051745	-1.850196	-2.260497
H	1.093814	0.0	0.0
H	-0.29492	0.963542	0.434275
C	-1.80071	0.352805	-1.809127
H	-2.050381	1.340378	-1.406666
H	-2.450634	-0.400985	-1.361461
H	-1.968015	0.35896	-2.889613
N	0.540441	0.995624	-2.047541
H	1.491603	0.827023	-1.697886
H	0.519212	0.990855	-3.058083
C	-0.622754	-1.067934	0.752009
N	-1.157161	-1.90274	1.384228
H	2.777722	0.0	0.0
