15

C	-0.28594	0.067677	-1.506342
C	0.0	0.0	0.0
Br	-0.215926	-2.004821	-2.120905
H	1.093899	0.0	0.0
H	-0.397985	-0.899164	0.467172
C	-1.678629	0.465654	-1.944726
H	-1.7738	0.397418	-3.03131
H	-1.855565	1.499478	-1.631749
H	-2.426622	-0.184617	-1.489587
N	0.720754	0.808657	-2.083337
H	1.64706	0.616938	-1.66941
H	0.714053	0.831966	-3.092861
C	-0.497789	1.189989	0.670161
N	-0.912003	2.146575	1.21432
H	2.788836	0.0	0.0
