15

C	-0.283118	0.070656	-1.507423
C	0.0	0.0	0.0
Br	-0.243602	-2.004423	-2.1207
H	1.093994	0.0	0.0
H	-0.398491	-0.899737	0.46524
C	-1.668362	0.489722	-1.94877
H	-1.762802	0.421813	-3.035389
H	-1.82887	1.526313	-1.637236
H	-2.427679	-0.147171	-1.494491
N	0.734914	0.796481	-2.083447
H	0.731597	0.820771	-3.093054
H	1.658438	0.597687	-1.664965
C	-0.497484	1.189143	0.671944
N	-0.911463	2.145201	1.217396
H	2.791908	0.0	0.0
