15

C	-0.274692	-0.018989	-1.510703
C	0.0	0.0	0.0
Br	-0.194491	-2.118287	-2.003632
H	1.092122	0.0	0.0
H	-0.401042	-0.869968	0.516624
C	-1.662401	0.353139	-1.985682
H	-1.842009	1.402498	-1.733881
H	-1.744927	0.223228	-3.067325
H	-2.416133	-0.27105	-1.504929
N	0.735788	0.694352	-2.118606
H	0.740038	0.65769	-3.127895
H	1.660216	0.526412	-1.687125
C	-0.501138	1.228319	0.594569
N	-0.924524	2.213744	1.076651
H	2.792041	0.0	0.0
