15

C	-0.489006	-0.047362	-1.459544
C	0.0	0.0	0.0
Br	-0.10984	1.742014	-2.215919
H	1.093291	0.0	0.0
H	-0.359847	0.897831	0.511191
C	0.315509	-1.073602	-2.232129
H	0.08619	-2.070362	-1.836612
H	1.381124	-0.885404	-2.07584
H	0.051786	-1.042054	-3.290444
N	-1.911963	-0.266038	-1.664174
H	-2.125908	-1.196979	-1.314902
H	-2.433181	0.394372	-1.095391
C	-0.492412	-1.179503	0.695864
N	-0.917353	-2.145429	1.215806
H	2.80928	0.0	0.0
