13
Coordinates from ORCA-job run
  C   -0.77970957004945      0.35943922423847      0.45842758595843
  C   0.56000854305196      0.61724128317834     -0.20521865228006
  Cl  -1.74004700139999      1.94126069411766      0.41123387580228
  H   0.38192894147520      0.87846416985318     -1.25445331989250
  H   -0.65681001795838      0.17207487079723      1.52592030770586
  H   1.01242235969660      1.49562300585968      0.26071767588151
  N   -1.46581141646681     -0.72959684582557     -0.13284707086077
  H   -2.34021965094162     -0.92431376241557      0.33637136454678
  H   -1.65289427265676     -0.55280587444307     -1.11228775135888
  C   1.49046598419183     -0.58660702950502     -0.09642396978829
  H   1.06581473679935     -1.45839453508026     -0.59305558364870
  H   1.66442709674181     -0.85035482779002      0.95021959243434
  H   2.45942426751625     -0.36303037298504     -0.54860405450001
