13
Coordinates from ORCA-job run
  C   -0.77023266797970      0.41188408044680      0.05327916439006
  C   0.38392805211856     -0.55466105322693     -0.13310182946413
  Cl  -0.79519426930786      1.61654418012103     -1.28212148396898
  H   0.29262679596251     -1.31796527160112      0.65025778651145
  H   -0.60792430732901      1.01841374665879      0.95379415888276
  H   0.24091718238216     -1.05749744397910     -1.09299686830500
  N   -2.02698649158035     -0.29911482410487      0.02405227657270
  H   -2.01947627991496     -1.02027495818942      0.73596762355270
  H   -2.79627539023940      0.33139685752679      0.21432714486291
  C   1.75900980876801      0.09502813476916     -0.04840348714654
  H   1.89340217159891      0.61130316856181      0.90597457966418
  H   1.90163815837502      0.82149798816991     -0.84891783645411
  H   2.54456723714611     -0.65855460515283     -0.13311122909799
