13
Coordinates from ORCA-job run
  C   -0.85389644430025      0.55141956657567      0.19509539324173
  C   0.55767364539255      0.21493037595670      0.64851737723908
  Cl  -0.82384360678160      1.87555599517959     -1.02401173553329
  H   0.46455894773906     -0.49842341652082      1.47829681647393
  H   -1.40881576589327      0.98690598022465      1.03485027445396
  H   1.00415852310042      1.12134784503780      1.06610121227265
  N   -1.48936398647169     -0.59608129401216     -0.40837405384692
  H   -1.47498762448760     -1.36830771625791      0.24861939460350
  H   -2.45355009197687     -0.38807461254863     -0.63715474319474
  C   1.44774090882466     -0.36662557689812     -0.44325898384095
  H   2.43352903337647     -0.60570556654826     -0.03802143258100
  H   1.57994249534718      0.34724499731478     -1.25690363956505
  H   1.01485396613093     -1.27418657750329     -0.86275587972289
