13
Coordinates from ORCA-job run
  C   -0.89969774786391      0.59915392149398      0.29636828641812
  C   0.54029293114755      0.22491410860305      0.64696089283055
  Cl  -0.88124080067557      1.97521558714202     -0.86354131520616
  H   1.04420043417779      1.11376385035259      1.03792952774706
  H   -1.39705322460500      0.98374508700173      1.18934555031634
  H   0.48423592867902     -0.49718705263604      1.47153444130094
  N   -1.73514306855094     -0.43990301423646     -0.25397269714271
  H   -1.86706918328591     -1.17204882830088      0.43397182351669
  H   -1.31365531985664     -0.83941260561535     -1.08277873206186
  C   1.34575515331420     -0.37024277491822     -0.50137581009024
  H   0.91292384438940     -1.30910643470537     -0.85400583514964
  H   2.36468072465271     -0.58822799133497     -0.17562452052109
  H   1.40377032847731      0.32033614715392     -1.34381161195800
