15

C	0.0	0.0	0.0
C	-0.354869	-0.617409	-1.359326
F	1.407726	0.0	0.0
H	-0.048357	-1.670823	-1.314371
H	0.303863	-0.122673	-2.078897
N	-0.457406	1.353558	0.080574
H	-0.159533	1.761218	0.960525
H	-1.474836	1.313227	0.088859
N	-0.471061	-0.815291	1.070393
H	-0.316693	-0.373653	1.967325
H	-0.028063	-1.72467	1.055137
N	-1.716652	-0.532976	-1.824722
H	-2.391214	-0.814684	-1.116477
H	-1.958184	0.424597	-2.041633
Cl	-4.425502	0.0	0.0
