15

C	0.0	0.0	0.0
C	-0.353934	0.733705	-1.306702
F	1.407723	0.0	0.0
H	0.398988	0.410827	-2.031706
H	-0.191412	1.802	-1.121121
N	-0.4745	0.726159	1.130528
H	-0.007167	1.61627	1.222895
H	-0.394758	0.195183	1.987237
N	-0.456995	-1.357491	-0.021725
H	-0.173474	-1.813097	0.84077
H	-1.476358	-1.318764	-0.022802
N	-1.666589	0.553909	-1.884385
H	-1.784072	-0.422525	-2.128292
H	-2.415229	0.756575	-1.22188
Cl	-4.298866	0.0	0.0
