15

C	0.0	0.0	0.0
C	-0.351718	0.069004	-1.48062
F	1.433813	0.0	0.0
H	-1.436811	-0.026445	-1.562483
H	0.124794	-0.80262	-1.960595
N	-0.466097	1.123221	0.718092
H	-1.066946	1.687957	0.135268
H	-0.988951	0.819093	1.526959
N	-0.388923	-1.22057	0.653541
H	-0.000576	-2.005145	0.143673
H	-1.408583	-1.266257	0.600116
N	0.064683	1.352419	-2.04245
H	-0.187285	1.395452	-3.020911
H	1.071333	1.421965	-1.968686
Cl	-3.692643	0.0	0.0
