15

C	0.0	0.0	0.0
C	-0.355125	0.095274	-1.49014
F	1.410384	0.0	0.0
H	0.305941	0.865559	-1.897417
H	-0.052482	-0.858295	-1.944394
N	-0.449725	1.159567	0.709605
H	-0.188393	1.077305	1.686791
H	-1.467895	1.146232	0.667156
N	-0.478646	-1.220676	0.555335
H	-0.050012	-2.019767	0.103226
H	-0.324419	-1.265488	1.555257
N	-1.718337	0.395349	-1.857614
H	-2.398603	-0.156645	-1.337499
H	-1.935504	1.358209	-1.635448
Cl	-4.425677	0.0	0.0
