15

C	0.0	0.0	0.0
C	-0.467661	-0.258598	-1.415495
F	1.451802	0.0	0.0
H	-1.560087	-0.272905	-1.368021
H	-0.141465	0.590829	-2.026711
N	-0.4311	1.297198	0.42419
H	-1.452616	1.245051	0.401271
H	-0.172431	1.416182	1.399096
N	-0.403441	-1.069794	0.844453
H	0.120373	-1.040386	1.709791
H	-0.222324	-1.939972	0.357459
N	0.023849	-1.557796	-1.880806
H	-0.573626	-1.89275	-2.623644
H	0.960164	-1.453763	-2.24688
Cl	-3.866218	0.0	0.0
