17
Coordinates from ORCA-job run
  C   -0.61921985429425     -0.15056729190295     -0.47193478078611
  C   0.79422373515560     -0.41673375077220      0.00318589584578
  H   -0.66081885948178     -0.50810802493906     -1.50542318246388
  H   0.97670084946160     -1.49120376148745      0.04134831552071
  N   -0.88526814882106      1.33481506151839     -0.58489339941706
  O   0.00210647985588      1.99785126344873     -1.11050467973618
  O   -1.97009614422794      1.74999517363058     -0.20135214071324
  C   -1.65400949373552     -0.84081901375712      0.39371640934574
  H   -2.64649662853842     -0.71468650972082     -0.03460235719432
  H   -1.66499520601041     -0.42211371873819      1.39960265259608
  H   -1.43355157788848     -1.90960319562629      0.44660506845264
  N   1.07621994417706      0.10275584762324      1.37585731099746
  O   1.91483626344703     -0.52448951764270      2.01512375088778
  O   0.46614231687218      1.10438375391921      1.73703531671597
  N   1.85172030279481      0.12201170699803     -0.93799137889642
  O   2.68914244140643      0.88735793702086     -0.49077433784339
  O   1.76536357982725     -0.31884595957227     -2.07499846331156
