17
Coordinates from ORCA-job run
  C   -0.55009279470406     -0.22892737113084     -0.50686622129785
  C   0.84791370523197     -0.34688158569083      0.07159644966034
  H   -0.50166050974958     -0.60523475156616     -1.53098766074647
  H   1.10260619750918     -1.39694451560992      0.21921271129510
  N   -0.98654883840256      1.20060471004095     -0.64939768764686
  O   -0.77326419286776      1.93890708538157      0.30734251358845
  O   -1.58433517888258      1.48831621091073     -1.67843116068583
  C   -1.62005678169277     -0.96483086428275      0.28612078401474
  H   -1.74735056453072     -0.52092994472367      1.27172802612814
  H   -2.56179773025225     -0.91098742126723     -0.26275175939181
  H   -1.34793666071060     -2.01459416430197      0.40891369099701
  N   1.04374725418418      0.30344314603423      1.42282608344031
  O   0.44425289633212     -0.25231890919192      2.33395926272307
  O   1.77797664263928      1.27496015642916      1.49498808887355
  N   1.89311003836462      0.21124186561141     -0.84558949591245
  O   3.01696481188657     -0.25921586026611     -0.70641283417369
  O   1.54547170564495      1.08339221362336     -1.63525079086578
