17
Coordinates from ORCA-job run
  C   -0.54884182644616      0.26506674249380     -0.29982149615458
  C   0.71197898352348     -0.12531671409649      0.43254437137258
  H   -0.30117698847147      0.92919025343428     -1.12781344447846
  H   0.53824055325574     -0.66794180819471      1.35769595251896
  N   -1.39956306628153      1.08516815687757      0.63030060750617
  O   -1.22860781915616      0.93955836261212      1.83871086628963
  O   -2.23622310442136      1.80133045810097      0.09614867507332
  C   -1.35793210014113     -0.93764114308451     -0.75856914091882
  H   -2.29469349617611     -0.59035568392944     -1.19561664926957
  H   -0.81336075073911     -1.49495657860627     -1.52182436917664
  H   -1.57635668102241     -1.60532021316126      0.07750049025948
  N   1.57209677770107      1.06140739904549      0.77327977499498
  O   1.22545717172678      2.16127904276929      0.35950778603098
  O   2.56634346500615      0.79754864224399      1.43932027334552
  N   1.52982938536184     -0.99445850607248     -0.47063264340335
  O   2.02702834588155     -0.43957473705997     -1.44609900078244
  O   1.58578115039881     -2.18498367337238     -0.18263205320779
