17
Coordinates from ORCA-job run
  C   -0.56431232331500      0.16689773370412     -0.55535030177664
  C   0.88292992731155      0.36799094116510     -0.12961660338553
  H   -0.56825302161015      0.25131193564655     -1.64756937802759
  H   1.35413645659886      1.20904629505295     -0.63134439280076
  N   -1.33702402711705      1.38212512094086     -0.09009569335214
  O   -0.71391134024640      2.44076481275183     -0.06508298557805
  O   -2.52405581912531      1.23833095662529      0.16464725039205
  C   -1.21762079047342     -1.13141263659468     -0.13102556461070
  H   -1.22493099604918     -1.23846260157492      0.95094036951851
  H   -2.24306025130048     -1.15396604965800     -0.49547847919132
  H   -0.68340147100024     -1.97265688244264     -0.57665927453558
  N   1.64532357601187     -0.86797403829327     -0.51571662571568
  O   1.84146200213898     -0.97816308539711     -1.72098799423204
  O   1.94343505096166     -1.66491094562684      0.36347656875538
  N   1.07787481005727      0.59320296399884      1.33878023334819
  O   0.12314062738978      0.41425465399223      2.08673986190600
  O   2.20926758976724      0.94262082570970      1.65334300928589
