17
Coordinates from ORCA-job run
  C   -0.50461776095378      0.30108755965395     -0.34076505669694
  C   0.66488432724824     -0.17266473458919      0.48760870231570
  H   -0.14819587028678      0.95094078443899     -1.13990866123441
  H   0.38202532243652     -0.70558877502826      1.39119992668507
  N   -1.37385165572020      1.17094277798586      0.52485997621700
  O   -2.12215237601004      1.93616282503099     -0.06905812232250
  O   -1.30523179785741      1.01671467248529      1.74229834536392
  C   -1.34929274790145     -0.84472639903325     -0.87480525980350
  H   -1.67853515932618     -1.49954901468808     -0.06523467609360
  H   -2.22253477596617     -0.43542630809571     -1.38372610310622
  H   -0.78126768298518     -1.43386585101085     -1.59589690019915
  N   1.56925883308673      0.95475560158744      0.90628987637514
  O   1.33080186794430      2.07539225318079      0.47227965080174
  O   2.48513754891710      0.62581025570931      1.65107907922152
  N   1.49552840346008     -1.09023279035861     -0.35381901002891
  O   1.45392752135712     -2.28235026928889     -0.06994565621376
  O   2.10211600255711     -0.56640258797979     -1.28345611128108
