16

C	0.0	0.0	0.0
C	-0.353177	0.010267	-1.56959
Br	1.95566	0.0	0.0
H	-1.451337	-0.090029	-1.697922
C	-0.317399	1.289818	0.875674
H	0.021542	1.078012	1.890617
H	-1.367149	1.520325	0.963603
H	0.128758	2.169501	0.41911
C	-0.389942	-1.259141	0.615039
N	-0.633274	-2.305897	1.104448
C	0.173203	-1.10161	-2.315114
N	0.399811	-2.087145	-2.911708
N	-0.094156	1.337466	-2.147686
O	0.884787	1.476925	-2.887558
O	-0.950654	2.196219	-1.944939
Br	-2.633319	0.0	0.0
