16

C	0.0	0.0	0.0
C	-0.354197	0.105921	-1.508349
Br	1.948571	0.0	0.0
H	0.451909	0.695254	-1.950649
C	-0.439842	1.287177	0.702524
H	-1.532733	1.302799	0.715452
H	-0.047625	2.153834	0.163489
H	-0.048953	1.294951	1.721803
C	-0.436641	-1.172016	0.749
N	-0.619889	-2.057048	1.501239
C	-1.565003	0.806334	-1.967523
N	-2.130194	1.540175	-2.698626
N	-0.245211	-1.205074	-2.269038
O	-0.378091	-2.257287	-1.660182
O	-0.022993	-1.082098	-3.46968
Br	-3.555557	0.0	0.0
