16

C	0.0	0.0	0.0
C	-0.571608	-0.02175	-1.431038
Br	1.959231	0.0	0.0
H	-1.673703	0.091147	-1.293605
C	-0.461416	1.196327	0.830915
H	-0.13688	1.047318	1.862275
H	-1.552442	1.239725	0.786992
H	-0.025769	2.116312	0.445715
C	-0.387993	-1.252961	0.651606
N	-0.60104	-2.268028	1.205994
C	-0.258529	-1.254198	-2.139068
N	-0.031396	-2.249428	-2.7205
N	-0.073044	1.153469	-2.22878
O	-0.49596	2.253416	-1.88529
O	0.711178	0.941357	-3.150124
Br	-3.680893	0.0	0.0
