11
Coordinates from ORCA-job run
  C   0.70112570336171     -0.53487643868020     -0.42477043403471
  C   -0.70541846123943     -0.40026462911196      0.13904692839789
  Br  1.19088613927248     -2.42101883640175     -0.40450756852790
  H   -0.76076155204896     -0.69621784774209      1.18483309471418
  H   0.72512192200247     -0.21516794889199     -1.46551935800300
  H   -1.41188328680307     -0.98014677338105     -0.45724774742871
  C   1.66172029375112      0.23926927080805      0.34920161044831
  N   2.41347256082216      0.87939682040849      0.98569530878024
  N   -1.15163147598638      1.02913243829838      0.05921848647883
  O   -1.84576084744694      1.44582114547658      0.97863525539124
  O   -0.81687099568515      1.65407279921755     -0.94458557621637
