11
Coordinates from ORCA-job run
  C   0.77021685915945     -0.51523455431917     -0.32101932114568
  C   -0.72570618724781     -0.36004992870623     -0.09510890483840
  Br  1.16570625016652     -2.41820786272272     -0.47431711649761
  H   -1.28694706352406     -0.80695721939590     -0.91753889758907
  H   1.06488163711252     -0.05661510099190     -1.26363394601051
  H   -1.04675835813210     -0.79160787745635      0.85117148461845
  C   1.53963666652356      0.06692171199183      0.76968302202778
  N   2.13540353647084      0.54387553251457      1.66264185403065
  N   -1.10266773930667      1.09183555741190     -0.06544627399641
  O   -2.09452038220653      1.38486350734502      0.59053127714493
  O   -0.41724521901573      1.86017623432895     -0.73596317774413
