11
Coordinates from ORCA-job run
  C   0.69084691037547     -0.57883299859167     -0.38056058170639
  C   -0.70720904604947     -0.37728490755103      0.18378041578518
  Br  1.16201114273594     -2.46050073330635     -0.18970227733386
  H   -0.75301292597031     -0.57363038676128      1.25304675945285
  H   0.70538916740508     -0.35805049377412     -1.44690118981537
  H   -1.42586968077248     -1.00318609354503     -0.34773653041410
  C   1.66957954088506      0.25284374784151      0.30599750974054
  N   2.43656186889471      0.93936097468534      0.87203159828914
  N   -1.14226087932936      1.04261525017662     -0.02425313098719
  O   -0.80550245913106      1.57179849111845     -1.08097890707053
  O   -1.83053363904359      1.54586714970756      0.85527633405974
