16
Coordinates from ORCA-job run
  C   -0.45143734199414      0.38345652631907     -0.12969187838890
  C   0.80455947700924     -0.41098235452538      0.26005021756617
  F   -0.54660219620871      0.22673361745062     -1.54534764684688
  H   0.94888630773910     -0.27765075603891      1.33593425271307
  C   -1.73156328896354     -0.16858325545681      0.45005483829944
  H   -2.56855404009083      0.45904090488566      0.13582032474561
  H   -1.68441426044026     -0.16666741386866      1.53993565103687
  H   -1.91071046368309     -1.18171994567509      0.09041923057164
  N   -0.24367826138341      1.73083895091336      0.23577805878461
  H   -0.99824171439191      2.31878882819917     -0.09300748875086
  H   0.64468768135501      2.05358567358492     -0.12828423855890
  N   1.95015979105291      0.16509537545559     -0.43412682706897
  H   2.81176455271084     -0.23994446841677     -0.09040237514853
  H   1.87351417504170     -0.04270036325923     -1.42290304146262
  C   0.61232810122758     -1.84916991931770     -0.00478055886176
  N   0.49030148101952     -3.00112140024985     -0.19844851862998
