16
Coordinates from ORCA-job run
  C   -0.51903150090655      0.34440076260068     -0.19134270639875
  C   0.81975976343455     -0.36197679811221      0.11314246133827
  F   -0.83159487168846     -0.08382222247842     -1.49719363871515
  H   1.11911613359618     -0.06874433310391      1.12463104604746
  C   -1.64786559890542     -0.09831453706439      0.70975573439628
  H   -1.40952973662428      0.09078802429499      1.75953127512502
  H   -1.84394418333819     -1.16208787467274      0.57676535201497
  H   -2.54724236769368      0.45780179852548      0.43995583275888
  N   -0.38044311094474      1.75591042587941     -0.20988780950296
  H   0.56450823871181      2.02658447185823     -0.45033118040489
  H   -0.68790794102862      2.19166558115196      0.64585273466301
  N   1.82130818896983      0.13642134553251     -0.82023935800344
  H   1.57867144730630     -0.16910810089762     -1.75565928167712
  H   2.73590396175706     -0.23361314417577     -0.59364454787467
  C   0.66058956722051     -1.82821845044661      0.09108066062834
  N   0.56570201013372     -2.99868694889158      0.05958342560476
