16
Coordinates from ORCA-job run
  C   -0.64202045026844      0.04938809504570     -0.28333118206045
  C   0.71137289879950     -0.68500304455700     -0.31736441833084
  F   -1.59894525315884     -0.97095409040166     -0.35334276782735
  H   0.74688765003877     -1.17263654766252     -1.30249717279755
  C   -0.89285749031574      0.79437213250068      1.01104859714587
  H   -0.77084475368563      0.13305214872179      1.86787955422621
  H   -0.19656012531267      1.62980275607878      1.10740274890453
  H   -1.91295382441280      1.18596194586432      0.99881431486252
  N   -0.77631858632829      0.81270341214757     -1.49330304232510
  H   -0.00786268717389      1.46588891749078     -1.59190730823078
  H   -1.63879055261851      1.34461452769341     -1.46802341646319
  N   0.80178180838559     -1.60007449805785      0.81385807129833
  H   0.04445258260830     -2.26835427979420      0.73123475466421
  H   1.67547755987731     -2.11082680875786      0.77479331932856
  C   1.80078083370479      0.29424400034657     -0.25962844254041
  N   2.65640038986055      1.09782133334150     -0.23663360985456
