16
Coordinates from ORCA-job run
  C   -0.49951581026320      0.28330399153776     -0.15267967364315
  C   0.86218125985509     -0.43570052417331      0.04044518899715
  F   -0.89248021820487     -0.07205010199853     -1.44962859056461
  H   1.24138823412383     -0.15805795060612      1.03037181277446
  C   -1.56463870884794     -0.18999139416468      0.80922320811452
  H   -1.77357693825534     -1.24698381083287      0.64847805322884
  H   -1.24834234366959     -0.04939621860383      1.84639229847787
  H   -2.47596164896365      0.38238696983355      0.63139717289682
  N   -0.40343524662228      1.70850123531357     -0.12551132721603
  H   -0.46216860050594      2.07803618726441      0.81229273017544
  H   0.42860410156475      2.04773926190761     -0.58832935780104
  N   1.87752372577452     -0.09706425536070     -0.94348766914458
  H   2.28243807058303      0.81052629397498     -0.76124910079335
  H   1.47674359846222     -0.11388389809789     -1.87312827660094
  C   0.66626045358044     -1.89409702276192      0.03525002005239
  N   0.48298007138891     -3.05326876323202      0.03916351104621
