16
Coordinates from ORCA-job run
  C   -0.68035140805695      0.14663949033639     -0.30706035322679
  C   0.50674194225455     -0.81875652112747     -0.08630315578220
  F   -1.41494499787009     -0.44090472652630     -1.33771510065829
  H   0.09673096082986     -1.78356404784412      0.22619246803096
  C   -1.56088545475710      0.22670917325700      0.91830282401324
  H   -2.39090715191479      0.90104077417381      0.70511464301279
  H   -1.96056974362583     -0.76255043020576      1.14642843921157
  H   -0.99603332862681      0.58469383775693      1.77829259103762
  N   -0.30827595541784      1.45290627044460     -0.74526107333650
  H   -0.02607710048341      2.05113883214726      0.01669800082862
  H   0.38613323527367      1.44125289606590     -1.48164692035737
  N   1.36308870687672     -0.30753654812042      0.97628274647208
  H   1.99472283907532     -1.03220616574001      1.29429984676820
  H   1.93105242168598      0.45152525929426      0.61889798304674
  C   1.21760536121456     -1.01464692431176     -1.36509748611840
  N   1.84296967354217     -1.09574116960029     -2.35642545294226
