16
Coordinates from ORCA-job run
  C   -0.51982095411956      0.32225743540593     -0.22600352949379
  C   0.82363304173784     -0.33463474958573      0.15916415730606
  F   -0.77261727326860     -0.17262685622877     -1.52093344997806
  H   1.07989385248802      0.01450620378434      1.16483532083439
  C   -1.67034905707200     -0.10757966535662      0.65350318693077
  H   -1.47313636114776      0.12973773895951      1.70209439604745
  H   -2.57102838275082      0.41676405593131      0.32978879299952
  H   -1.83920183800521     -1.18012135359350      0.55859241627836
  N   -0.41529812918379      1.73484952467171     -0.30578595090813
  H   -0.75680166796988      2.20005657298951      0.52118653230980
  H   0.53010447409328      2.01762566916464     -0.53051150056223
  N   1.84580285467617      0.14376202755049     -0.76230382912206
  H   2.75992590513967     -0.19273777179853     -0.48675923697428
  H   1.64344060303066     -0.21179262979476     -1.68957473254011
  C   0.70016693677821     -1.80372928362669      0.20453068345599
  N   0.63428599557378     -2.97633691847282      0.22817674341635
