16
Coordinates from ORCA-job run
  C   -0.74250930186250      0.11087670301391     -0.30986893718978
  C   0.58260296209312     -0.68609178066011     -0.41200023853752
  F   -1.72513927664659     -0.80283029420756     -0.66582520132913
  H   0.57189204331728     -1.14102621142591     -1.40866071824637
  C   -1.02239187057878      0.59068143646849      1.09521793443249
  H   -1.13374596822786     -0.26868924805118      1.75560285180085
  H   -0.22022842971666      1.23516566360423      1.46453870697836
  H   -1.95618259509782      1.15323299542048      1.08840425642953
  N   -0.82818094859451      1.19641424681412     -1.24103919939665
  H   -0.51201030675392      0.92640503795736     -2.16482785958704
  H   -0.30197151500654      2.00128036236605     -0.92979667734185
  N   0.66395216011489     -1.75299785015566      0.57210254408660
  H   0.97827371240410     -1.39078198106197      1.46398239765891
  H   1.32830876429604     -2.45615911911797      0.27464197112997
  C   1.71097825885744      0.26481244300993     -0.35125086822533
  N   2.60635231140230      1.01670759602580     -0.23222096266300
