16
Coordinates from ORCA-job run
  C   -0.38895845314684      0.44598287714288     -0.27219461297047
  C   0.69638152859058     -0.49127057278343      0.30021621823834
  F   -0.23008395718297      0.32586376606797     -1.66749026731463
  H   0.62445609702730     -0.44278624383808      1.39168232862839
  C   -1.79572329568905      0.00661242166895      0.05993104103823
  H   -1.94632648105749     -0.04516331063377      1.14115274422854
  H   -2.49506549437334      0.72792335645041     -0.36597998005327
  H   -1.99914498015880     -0.97231645677216     -0.37358816816101
  N   -0.16069908671137      1.79964258857802      0.08426250677143
  H   0.82239454258439      1.97331868491280      0.24967991832596
  H   -0.73046711633315      2.10402224918873      0.85835281422505
  N   2.00008138026324      0.02652722770823     -0.09355742921630
  H   2.09471791089123     -0.05482476781787     -1.09938053762760
  H   2.74218320328056     -0.50943953898268      0.33854136004891
  C   0.45979055785968     -1.88795053249199     -0.11075427514344
  N   0.30646364415602     -3.00514174839801     -0.43987366101813
