16
Coordinates from ORCA-job run
  C   -0.42967967004034      0.39071068008464     -0.29499524272127
  C   0.73811066103070     -0.43601473153359      0.28530098024683
  F   -0.48229486189477     -0.01060020074214     -1.64531090181724
  H   0.83193426527535     -0.16793486043803      1.34272968423869
  C   -1.76610479243192      0.05740663175365      0.32546033036334
  H   -1.75119773232033      0.22649896376733      1.40511024818086
  H   -2.02374450641662     -0.98390647824330      0.13336786663048
  H   -2.52817348366760      0.69384064947714     -0.12722701120082
  N   -0.16234819727519      1.78304138764086     -0.25746550996254
  H   0.83281768307346      1.96497545594219     -0.28006471707180
  H   -0.61098766321341      2.24908827074481      0.51585229692905
  N   1.96262415697263     -0.03626115293631     -0.39565217125171
  H   1.90481316629409     -0.32000338667758     -1.36696934364432
  H   2.76626683282240     -0.49059858850252      0.01974517015418
  C   0.45469031279157     -1.88119685434964      0.20442855719665
  N   0.26327382899996     -3.03804578598751      0.13368976372962
