16
Coordinates from ORCA-job run
  C   -0.39528923433207      0.44265473943848     -0.12728713873395
  C   0.71387473140568     -0.52582777074243      0.31063734496861
  F   -0.24946035695151      0.53413766715554     -1.54443082323629
  H   0.67520229200845     -0.58651684504459      1.40194988203914
  C   -1.79261608291264     -0.06919071030076      0.12762446380571
  H   -2.51601727164193      0.68096031983567     -0.19972019282401
  H   -1.97393783787561     -0.98591568353642     -0.43340389613351
  H   -1.93906728944450     -0.25324998022613      1.19289747300214
  N   -0.16317111567786      1.68321481236948      0.50449583973653
  H   -0.80580326120972      2.38903854532841      0.16992442234146
  H   0.79541455057556      1.97312718575330      0.35338045997587
  N   2.00108663634829      0.03966400061897     -0.07533004782985
  H   2.75838954809330     -0.50136105206213      0.32266901152514
  H   2.08375083539956      0.00709964951049     -1.08472967659476
  C   0.47364764649978     -1.87423839891856     -0.23757216168457
  N   0.33299620971521     -2.95259647917933     -0.68110496035764
