16
Coordinates from ORCA-job run
  C   -0.63784674062643      0.01603563479852     -0.29772704392546
  C   0.73220824639627     -0.68639849901240     -0.25956059837269
  F   -1.56978305486265     -1.02929744803103     -0.31948655292197
  H   0.80035368347239     -1.23298264185043     -1.21153920643421
  C   -0.93089642018774      0.83572678262037      0.94145528473912
  H   -1.95940251897432      1.20055335645792      0.88623165469188
  H   -0.25653214973088      1.69257650421648      0.99583208291429
  H   -0.80968254777862      0.23354860194505      1.84084944218497
  N   -0.76546721895217      0.69726107600580     -1.55618756228741
  H   -0.00781038162459      1.35735196665529     -1.68551616196789
  H   -1.63833420661631      1.21189106275981     -1.58009017478140
  N   0.81952785561523     -1.52721029205035      0.92812346417324
  H   0.08293297653480     -2.22096073246342      0.87034618627820
  H   1.70774624793959     -2.01376622022692      0.94116882469232
  C   1.79792245734997      0.32033559253373     -0.24139139363384
  N   2.63506377204546      1.14333525564159     -0.25150824534916
