16
Coordinates from ORCA-job run
  C   -0.47808403709236      0.38279508928436     -0.22197980126672
  C   0.78040275529730     -0.42636619342407      0.15871303676085
  F   -0.76390450261795     -0.04433588395229     -1.53467121931364
  H   1.05598757730512     -0.13749065206948      1.17830034814941
  C   -1.68175268108251      0.05439260242637      0.62972289307275
  H   -1.47862920681560      0.24463570121411      1.68664495015796
  H   -2.51713781602751      0.67784548726912      0.30685516892606
  H   -1.96009098936807     -0.99181612764230      0.50487958861986
  N   -0.22047423454602      1.77716787409045     -0.25709905714407
  H   0.75349645381402      1.96371745670736     -0.45808437217445
  H   -0.52890829829718      2.25478921926769      0.57565016178703
  N   1.86267636710203     -0.03435494072305     -0.73411518994042
  H   2.73063682176567     -0.47652329886697     -0.45870057200474
  H   1.63718202004221     -0.33641373972127     -1.67491090183988
  C   0.49937677622827     -1.87451836401058      0.15628224038420
  N   0.30822299429256     -3.03352422984943      0.14251272582581
