16
Coordinates from ORCA-job run
  C   -0.33710076183473      0.33087433113242     -0.19922465005245
  C   0.86266601233281     -0.55784921887494      0.19971922779977
  F   -0.59428973711362      0.08300543385378     -1.54368813121398
  H   1.13956551660536     -0.27927751169791      1.22469378648002
  C   -1.60629025095129      0.03413912040298      0.57202996221668
  H   -1.94395495175309     -0.98642914129066      0.38728635665407
  H   -2.39053199696872      0.72638422886541      0.25783506041782
  H   -1.43946626533676      0.15898818281363      1.64553087989076
  N   0.12009884738204      1.70681688550317     -0.13943077364065
  H   -0.48331945591689      2.27106229048267     -0.72724148611635
  H   0.04447453416385      2.05693492933232      0.80899303676929
  N   2.03190506140817     -0.38972923889880     -0.64684059384074
  H   1.79491432064784     -0.69742375960081     -1.58360038695273
  H   2.20948249699857      0.60826814797346     -0.70075072306282
  C   0.46716503698502     -1.97141036398129      0.22028797861625
  N   0.12668159335142     -3.09435431601542      0.22540045603508
