16
Coordinates from ORCA-job run
  C   -0.59215973733261      0.20308610355457     -0.24891375094413
  C   0.49451977241079     -0.87670147443910     -0.13026415079052
  F   -1.40316411769300     -0.21067562030854     -1.33033864001563
  H   -0.01256479563886     -1.83759175354088     -0.00429757645040
  C   -1.47480110881810      0.26246239295899      0.97532060830213
  H   -2.27987596156680      0.98045835838470      0.80067525463609
  H   -1.92487840255473     -0.71517895926433      1.15174708413181
  H   -0.89776904186600      0.55335850036175      1.84985305988466
  N   0.02435262030815      1.45554194981472     -0.51153858976646
  H   -0.64390411536285      2.21290100790983     -0.44952471795747
  H   0.44531727969507      1.46364137413952     -1.43401313989573
  N   1.31116494983633     -0.60867536007728      1.03968795861229
  H   2.03094808385626     -1.31335155044605      1.14076965996939
  H   1.75397845463976      0.29572800674699      0.92367802618456
  C   1.25486190854988     -0.93111537875001     -1.39866582445275
  N   1.91097421153669     -0.93288759704490     -2.37317526144783
