16
Coordinates from ORCA-job run
  C   -0.40604460383514      0.40566214608490     -0.15253512758257
  C   0.76555264243004     -0.58578434396574      0.07807764214160
  F   -0.47352459272303      0.53572650532614     -1.54624631743862
  H   0.89033253174009     -0.69950603711733      1.16085638487648
  C   -1.73573031583653     -0.12018071943194      0.33661015542311
  H   -2.49779237524016      0.64140246759388      0.16627972390680
  H   -2.00805145278506     -1.02166914696718     -0.21104530525827
  H   -1.69630774821156     -0.35645343399478      1.40352865321493
  N   -0.16367809919396      1.71135844572178      0.37340544721606
  H   0.79441132918837      2.00702819823733      0.24521662605085
  H   -0.43208612821795      1.79065050794748      1.34364975012501
  N   2.04013891867205     -0.16727394489869     -0.48252923044839
  H   1.90684938072913      0.17455994018186     -1.42632043638394
  H   2.47730582013608      0.54738742664171      0.08237158721305
  C   0.42013396173291     -1.90729551951315     -0.46881176608326
  N   0.11749073141471     -2.95461249184629     -0.90350778697284
