16
Coordinates from ORCA-job run
  C   -0.34805347608157      0.38707852508726     -0.10030731319065
  C   0.73199931460911     -0.67441484946451      0.19112107516738
  F   -0.22483633739016      0.67195090939694     -1.48567930784059
  H   0.63888672092972     -0.94344165248417      1.24803208378717
  C   -1.75556072172431     -0.10944094566094      0.13145399187034
  H   -2.46692344914617      0.68007102368650     -0.12246623603743
  H   -1.89385592774633     -0.38549710490514      1.17793394671201
  H   -1.96383784704823     -0.96965207732561     -0.50414932298019
  N   -0.07480148363367      1.54286765100714      0.67902745138786
  H   -0.81668503756544      2.22386420394430      0.57511046604759
  H   0.79175944535312      1.97150669888970      0.37959663723671
  N   2.10118814343034     -0.24927055852226     -0.04504831820520
  H   2.40804434012026      0.38952419085105      0.67564290286763
  H   2.18034355615611      0.18854779427210     -0.95452550917586
  C   0.46299667259513     -1.88195231893401     -0.60536545471822
  N   0.23033608714210     -2.84074148983836     -1.24037709292855
