16
Coordinates from ORCA-job run
  C   -0.57875967768556      0.12218507526912     -0.26248126472762
  C   0.70710500770446     -0.72595967032460     -0.37556867010696
  F   -1.62043726516382     -0.85250307301808     -0.24609877519213
  H   0.67336447064769     -1.19999263286239     -1.36544067490262
  C   -0.69431539376467      0.90115542300387      1.02547205858804
  H   0.09989207380712      1.64468939230366      1.09602566492718
  H   -0.64658978468324      0.22821291128040      1.88161140161541
  H   -1.66164896193670      1.40762220562742      1.05728329567780
  N   -0.67893077325260      0.96711833373440     -1.38883800992024
  H   -1.49227770587967      1.56671864719003     -1.33913796650178
  H   -0.70602998749616      0.43769938492852     -2.25135995763931
  N   0.86130520973668     -1.78698609138858      0.60536109093780
  H   0.00165610078018     -2.32114775818297      0.64208230479238
  H   1.04122029009149     -1.40169141365095      1.52411399458970
  C   1.87911341718546      0.15426261424927     -0.34035044319128
  N   2.81533297990934      0.85761665184088     -0.26567404894636
