16
Coordinates from ORCA-job run
  C   -0.48598848611102      0.35013989459275     -0.25485420791273
  C   0.79068838102786     -0.39089137170151      0.19745023496645
  F   -0.74673924988138     -0.18589660200288     -1.53263681929487
  H   1.04654049429332     -0.01746469879941      1.19441082280746
  C   -1.68870579035134      0.05393986011485      0.61005031196898
  H   -2.53783628039687      0.62674850757752      0.23357876509524
  H   -1.50147634062182      0.33022967951561      1.65071671284299
  H   -1.93694454904348     -1.00612754896829      0.56370672085035
  N   -0.26573409773845      1.74356883887331     -0.39494415864250
  H   0.70591447860876      1.94396470541939     -0.59333203183013
  H   -0.60899509248471      2.27880125032997      0.38727425686761
  N   1.87118179738604     -0.03569299992845     -0.71311410183232
  H   2.74865991871731     -0.42908229735662     -0.39665942096060
  H   1.66518998465165     -0.41584483289248     -1.62978042389272
  C   0.55062250524285     -1.84231100322218      0.30227148994383
  N   0.39262232670126     -3.00408138155157      0.37486184902297
