16
Coordinates from ORCA-job run
  C   -0.54123724774918      0.18603954017656     -0.25904859721422
  C   0.55663555739136     -0.89782314943441     -0.21714533254901
  F   -1.42675677580964     -0.22498769293800     -1.28280088601761
  H   0.05439248489801     -1.86244283996021     -0.09399094249487
  C   -1.34987844302908      0.23585198470996      1.01822147777206
  H   -2.19264994006803      0.91719310726216      0.88131807956488
  H   -0.74575890087259      0.58977366698239      1.85278996740290
  H   -1.75289533648491     -0.75227712572699      1.24726233043600
  N   0.04809365424318      1.44409294991585     -0.54438550946606
  H   -0.62907618792213      2.19272655177892     -0.47200780571573
  H   0.44956870355977      1.45383225418635     -1.47550854809163
  N   1.54413583441713     -0.74004505771829      0.83534873091800
  H   1.14012651537628     -0.98586883232183      1.72937626903619
  H   1.83584264230848      0.23041963699431      0.86655217495848
  C   1.23618509899247     -0.91778430166132     -1.52333665468558
  N   1.77327234074887     -0.86870069224546     -2.56564475385378
