16
Coordinates from ORCA-job run
  C   -0.46788069146864      0.31818696725513     -0.18061604294622
  C   0.81856033679013     -0.50736323462066      0.08718951154561
  F   -0.85062587366911     -0.05640539543128     -1.47516862276148
  H   1.18875440862735     -0.22420015201502      1.07891677932449
  C   -1.59921353288727     -0.02015703734842      0.76264039444240
  H   -1.89461537381850     -1.06108284135191      0.63704116260039
  H   -1.30388917694533      0.13693885736491      1.80350067913167
  H   -2.45130197655632      0.62004264507550      0.53109258934769
  N   -0.24801799932561      1.72951251783987     -0.20648901738416
  H   0.62464292145054      1.97577147887692     -0.65337094104564
  H   -0.30368631594885      2.14229732961311      0.71336211245356
  N   1.89058861040918     -0.29635739059191     -0.87212994884843
  H   2.37035763206055      0.57717377833050     -0.70608962699970
  H   1.51949313534406     -0.31137545457799     -1.81408071746012
  C   0.49591603331138     -1.94251737236391      0.12761830595119
  N   0.21191786262643     -3.08046469605485      0.16758338264874
