16
Coordinates from ORCA-job run
  C   -0.58768448439453      0.19864584651757     -0.25715229924174
  C   0.49849353091248     -0.87888575291254     -0.11605662884586
  F   -1.38591356503368     -0.22479916190836     -1.34370814858192
  H   -0.00882760436905     -1.83939325882268      0.01210753272900
  C   -1.48392455181656      0.26798028448380      0.95666777365468
  H   -1.93264774458558     -0.70911782260657      1.13957127804676
  H   -2.28917690140844      0.98147326391385      0.76506248109845
  H   -0.91788260828884      0.57116206162093      1.83430754267552
  N   0.03065647547668      1.44970751756795     -0.52327064871223
  H   -0.63988511938639      2.20589946157020     -0.47462617143767
  H   0.45943097649895      1.45048996527386     -1.44226999701162
  N   1.30064989702242     -0.60005543652562      1.06172134781836
  H   1.74355706856939      0.30400935885857      0.94294850996857
  H   2.02073457938241     -1.30260735114388      1.17555098456657
  C   1.27265939472957     -0.94179433478034     -1.37552858509661
  N   1.92076065669117     -0.93371464110674     -2.35532497163026
