16
Coordinates from ORCA-job run
  C   -0.67696949051730      0.19207629847084     -0.31895029022861
  C   0.52980746992847     -0.77190507113137     -0.18992741510325
  F   -1.45753338422189     -0.34787594962904     -1.33554118692139
  H   0.13486553507238     -1.78714913114537     -0.04175962984107
  C   -1.49235891720094      0.20898500424769      0.95463932411721
  H   -1.76788922674541     -0.80639859317705      1.24951539724891
  H   -0.93876226608982      0.68668407917263      1.76451455584172
  H   -2.39860371358218      0.78403569772957      0.76639295526710
  N   -0.33695927404567      1.52581996828246     -0.71366013543569
  H   0.31759764121594      1.90951167663151     -0.04204345346921
  H   0.11184017703377      1.51146884696794     -1.62357874804548
  N   1.39154651792811     -0.30262411801295      0.89913704506460
  H   2.34569081431145     -0.60947292585598      0.75661863095469
  H   1.07232584611194     -0.70136150120761      1.77374278257249
  C   1.27880600876923     -0.76530809028679     -1.44816561065170
  N   1.88759626203190     -0.72648619105647     -2.45093422137033
