16
Coordinates from ORCA-job run
  C   -0.62141545363668      0.15096877027987     -0.30613043318582
  C   0.53045563760254     -0.88602993747310     -0.22005107900987
  F   -1.46906402925122     -0.37164779746925     -1.28897927194010
  H   0.07650600898566     -1.86544007150973     -0.03697008667587
  C   -1.41340399208343      0.22504187855998      0.98156810341177
  H   -1.77317416986045     -0.76777729681256      1.25670009477764
  H   -0.81796858309561      0.62888771199414      1.80233657199218
  H   -2.27366010984768      0.87488125799384      0.81856692739102
  N   -0.22845355287231      1.45316874807094     -0.72473191256433
  H   0.45756868895303      1.45353551334908     -1.46773937930368
  H   0.03427243282529      2.06637317302846      0.03004225294481
  N   1.53180633625738     -0.64662226132819      0.80521145899854
  H   1.13419045405440     -0.77343955114298      1.72637516059340
  H   1.89997122964994      0.29362648589561      0.72882385105196
  C   1.19714884760900     -0.93965997006842     -1.52938025772171
  N   1.73322025471017     -0.89686665336768     -2.57264200075993
