16
Coordinates from ORCA-job run
  C   -0.66208813353791      0.06063647632323     -0.27572455870931
  C   0.67394486520185     -0.71827364190780     -0.38594264397631
  F   -1.62781119060069     -0.95591578014712     -0.35776586668991
  H   0.65418332547651     -1.19281330916304     -1.37606694493328
  C   -0.84949758895207      0.76559246648518      1.04721066738528
  H   -0.06462572103908      1.50584968063922      1.21771067831957
  H   -1.81958911380866      1.26395122705238      1.04064685114545
  H   -0.84180568238575      0.04379315922413      1.86367678922946
  N   -0.88692260461137      0.95723244759038     -1.36081868448133
  H   -0.52580377060602      0.60732401694653     -2.23923841571820
  H   -0.51480667725578      1.87841931836585     -1.18102059949245
  N   0.91536589750612     -1.76594607723234      0.59100889313377
  H   0.11306443887612     -2.38410343408297      0.60503194219323
  H   1.03438782053021     -1.37293925830042      1.51648707146785
  C   1.77837155222244      0.24735592240202     -0.37304061074884
  N   2.62363258298409      1.06083678580477     -0.33315456812496
