16
Coordinates from ORCA-job run
  C   -0.61701415463395      0.15241502438417     -0.31668265739024
  C   0.54041508435314     -0.87732546078840     -0.22524726941922
  F   -1.44070473047342     -0.35935450136381     -1.32589237188938
  H   0.09050741091858     -1.86258831224125     -0.06509164711183
  C   -1.43614319266560      0.19884342717328      0.95513704842960
  H   -0.85841099505800      0.58619464695422      1.79629051874885
  H   -2.29435515077245      0.85042254470089      0.78815607574459
  H   -1.79949511036698     -0.80012955466615      1.20181455430867
  N   -0.22378001578061      1.46370733382037     -0.70436825753425
  H   0.48216759569098      1.48315393113523     -1.42802593411890
  H   0.00734192435607      2.07076947766614      0.06534147627740
  N   1.52086911419820     -0.64577180143415      0.82160325767841
  H   1.10907245107275     -0.79572979143901      1.73296220415026
  H   1.87814083551852      0.30033503538226      0.76981988744697
  C   1.23244986926198     -0.90771606405167     -1.52237832199663
  N   1.80893906438079     -0.85622593523214     -2.54343856332427
