11

C	-0.584853	0.054007	-1.388833
C	0.0	0.0	0.0
Br	-0.121196	-1.513861	-2.442524
H	1.087656	0.0	0.0
H	-0.166907	0.913783	-1.912011
H	-1.671201	0.101231	-1.370379
H	-0.346803	0.880656	0.55271
N	-0.546169	-1.162317	0.761188
O	0.216776	-1.807102	1.469837
O	-1.75858	-1.368761	0.657135
Br	3.582255	0.0	0.0
