14

C	0.0	0.0	0.0
C	-0.579909	-0.024326	-1.408415
Br	1.962086	0.0	0.0
H	-1.697514	-0.060628	-1.185895
H	-0.333631	0.91551	-1.913538
C	-0.480762	1.25131	0.718495
H	-0.109583	2.132804	0.187245
H	-0.117806	1.272432	1.747909
H	-1.581903	1.198427	0.689062
C	-0.36998	-1.217975	0.731166
N	-0.545921	-2.214326	1.329532
C	-0.136743	-1.145573	-2.218881
N	0.216211	-2.040497	-2.894698
H	-3.039118	0.0	0.0
