14

C	0.0	0.0	0.0
C	-0.665356	-0.016491	-1.362932
Br	1.961589	0.0	0.0
H	-1.785673	-0.076779	-1.039074
H	-0.50348	0.93786	-1.872998
C	-0.49529	1.218959	0.765485
H	-0.180916	2.127642	0.245648
H	-1.594673	1.129719	0.764889
H	-0.104773	1.228203	1.784516
C	-0.343986	-1.226263	0.734613
N	-0.536753	-2.210542	1.349798
C	-0.278617	-1.119427	-2.218458
N	0.006377	-2.010675	-2.930959
H	-3.045761	0.0	0.0
