14

C	0.0	0.0	0.0
C	-0.603828	-0.030574	-1.39644
Br	1.962043	0.0	0.0
H	-1.720309	-0.076049	-1.150743
H	-0.383536	0.912067	-1.907316
C	-0.49403	1.241682	0.725995
H	-1.595022	1.170679	0.700425
H	-0.128009	1.264807	1.753957
H	-0.143719	2.132484	0.196488
C	-0.361064	-1.217616	0.737478
N	-0.54456	-2.207078	1.34602
C	-0.167852	-1.146871	-2.216492
N	0.179448	-2.036915	-2.901283
H	-3.059903	0.0	0.0
