11

C	-0.406068	0.021066	-1.433888
C	0.0	0.0	0.0
F	-0.176048	-1.174826	-2.051894
H	1.090264	0.0	0.0
H	0.086823	0.811761	-1.999821
H	-0.426866	-0.883407	0.481582
H	-0.360388	0.909756	0.488475
N	-1.893209	0.297495	-1.596385
O	-2.222391	1.484466	-1.591447
O	-2.66633	-0.653225	-1.662076
F	2.669243	0.0	0.0
