11

C	-0.416185	0.016427	-1.431092
C	0.0	0.0	0.0
F	-0.16159	-1.170301	-2.056331
H	1.090287	0.0	0.0
H	0.052959	0.821413	-1.997029
H	-0.362209	0.908685	0.488562
H	-0.421538	-0.884293	0.485584
N	-1.910925	0.257394	-1.580375
O	-2.271773	1.433198	-1.525354
O	-2.659315	-0.709316	-1.685274
F	2.670857	0.0	0.0
