16

C	0.0	0.0	0.0
C	-0.560173	0.387617	-1.412028
Br	2.024594	0.0	0.0
H	0.292636	0.610395	-2.055693
C	-0.251592	1.03411	1.017543
N	-0.395982	1.797558	1.899251
N	-0.51951	-1.212838	0.434328
H	-0.531686	-1.908906	-0.297629
H	-0.191497	-1.525864	1.333921
N	-1.334588	1.604013	-1.262541
H	-2.202314	1.370492	-0.769456
H	-1.603492	1.926488	-2.185889
N	-1.236739	-0.787036	-1.95693
H	-1.375751	-0.641084	-2.9501
H	-2.16128	-0.829294	-1.517951
Cl	-4.008952	0.0	0.0
