16

C	0.0	0.0	0.0
C	-0.517321	-0.031747	-1.448006
Br	1.957179	0.0	0.0
H	-1.598131	0.111995	-1.321558
C	-0.32186	1.310457	0.60254
N	-0.52869	2.317043	1.173756
N	-0.528466	-1.12362	0.722306
H	-0.278878	-1.048742	1.70209
H	-1.55319	-1.028672	0.652012
N	-0.181867	-1.325135	-2.044576
H	-0.225402	-2.025759	-1.309156
H	-0.915777	-1.553374	-2.707844
N	0.010372	1.087774	-2.195179
H	0.839426	0.773946	-2.68731
H	-0.674034	1.396098	-2.873154
Cl	-3.61413	0.0	0.0
