16

C	0.0	0.0	0.0
C	-0.466292	0.054523	-1.516065
Br	1.951355	0.0	0.0
H	0.428342	0.075476	-2.140438
C	-0.325745	1.248242	0.713532
N	-0.534674	2.204006	1.364104
N	-0.495537	-1.098279	0.773687
H	-1.463752	-0.870976	1.007878
H	-0.530465	-1.896182	0.14429
N	-1.170747	1.30409	-1.745472
H	-2.059972	1.264772	-1.244747
H	-1.38743	1.371015	-2.73418
N	-1.158765	-1.196732	-1.807951
H	-2.105108	-1.118998	-1.430927
H	-1.231441	-1.290389	-2.81417
Cl	-3.701505	0.0	0.0
