16

C	0.0	0.0	0.0
C	-0.374568	-0.33248	-1.501899
Br	1.951045	0.0	0.0
H	0.368573	0.212225	-2.095881
C	-0.334796	1.412962	0.257635
N	-0.564085	2.551964	0.442552
N	-0.600626	-0.920035	0.921141
H	-0.393755	-0.643377	1.874088
H	-1.6182	-0.840517	0.798277
N	-1.661276	0.108483	-1.958645
H	-2.438856	-0.179263	-1.360177
H	-1.705755	1.120124	-2.007751
N	-0.172851	-1.760791	-1.684149
H	-0.747721	-2.021963	-2.476761
H	-0.51752	-2.251522	-0.866361
Cl	-4.089021	0.0	0.0
