16

C	0.0	0.0	0.0
C	-0.496326	-0.052037	-1.453494
Br	1.957139	0.0	0.0
H	-1.581941	0.067641	-1.348149
C	-0.336443	1.307674	0.595884
N	-0.56898	2.303564	1.175627
N	-0.520036	-1.127072	0.725485
H	-1.544503	-1.027987	0.665154
H	-0.256824	-1.055018	1.702773
N	-0.114609	-1.339858	-2.036334
H	-0.816914	-1.582647	-2.727433
H	-0.17189	-2.040055	-1.301568
N	0.017981	1.076903	-2.197613
H	0.884775	0.791508	-2.640357
H	-0.643815	1.336471	-2.917671
Cl	-3.603052	0.0	0.0
