16

C	0.0	0.0	0.0
C	-0.447275	0.282516	-1.515556
Br	1.961465	0.0	0.0
H	0.464735	0.473978	-2.085854
C	-0.334	1.163879	0.833774
N	-0.524646	2.132077	1.472171
N	-0.500267	-1.189872	0.616367
H	-0.477267	-1.908605	-0.101574
H	-1.485405	-1.017617	0.832118
N	-1.321087	1.418568	-1.709661
H	-2.180579	1.27575	-1.176959
H	-0.881093	2.275858	-1.395711
N	-1.039428	-0.949825	-2.003179
H	-1.973809	-1.002744	-1.592555
H	-1.179516	-0.824305	-2.99929
Cl	-3.698909	0.0	0.0
