16

C	0.0	0.0	0.0
C	-0.350786	-0.239088	-1.544409
Br	1.961297	0.0	0.0
H	0.311382	0.450604	-2.08243
C	-0.343052	1.375586	0.383378
N	-0.617622	2.484169	0.666779
N	-0.596511	-1.022043	0.806734
H	-1.610013	-0.948805	0.652289
H	-0.431739	-0.840395	1.790989
N	-1.713046	0.031109	-1.882728
H	-2.30524	-0.780805	-1.766911
H	-2.148063	0.75742	-1.32682
N	-0.02015	-1.588686	-1.949789
H	-0.415516	-2.227683	-1.265564
H	0.983972	-1.712506	-1.917905
Cl	-4.193916	0.0	0.0
