16

C	0.0	0.0	0.0
C	-0.288925	-0.007996	-1.55039
Br	2.056778	0.0	0.0
H	0.433305	0.679589	-2.007607
C	-0.300738	1.3158	0.55804
N	-0.528433	2.39076	0.975243
N	-0.592941	-1.042154	0.709924
H	-1.455537	-0.748387	1.157867
H	-0.771726	-1.800507	0.05591
N	-1.602964	0.419988	-1.917066
H	-1.691182	1.422913	-1.810758
H	-2.347467	0.015571	-1.339582
N	-0.126494	-1.390758	-1.981677
H	0.850668	-1.603483	-2.13761
H	-0.639915	-1.482469	-2.848605
Cl	-4.07023	0.0	0.0
