16

C	0.0	0.0	0.0
C	-0.491585	-0.230819	-1.445545
Br	1.983191	0.0	0.0
H	-1.581975	-0.209911	-1.318373
C	-0.348624	1.355698	0.442512
N	-0.58474	2.45986	0.769452
N	-0.494078	-0.969772	0.924888
H	-1.50198	-0.786762	1.005486
H	-0.393444	-1.86755	0.457263
N	-0.108371	-1.56646	-1.855821
H	0.766538	-1.501475	-2.362868
H	-0.817341	-1.951535	-2.466218
N	0.005051	0.784889	-2.372613
H	-0.619414	0.791444	-3.171656
H	-0.077224	1.703612	-1.946887
Cl	-3.606692	0.0	0.0
