14
Coordinates from ORCA-job run
  C   -0.73616965996971     -0.11700211308654     -0.34489154306245
  C   0.45325960867460     -0.51028969242705      0.55717565842911
  Cl  -1.73587855970946     -1.65361809883570     -0.46686033107341
  H   0.06401809637666     -0.87459066622405      1.51027603160622
  N   -1.40742267323780      0.98414271767110      0.22717989332570
  H   -2.13756510875782      1.34618480197468     -0.37239798600553
  H   -1.77662366066102      0.77779629020589      1.14783496882723
  C   -0.30763236161585      0.21048736846880     -1.70531779549297
  N   -0.01262695369203      0.47936653712964     -2.81046627644094
  N   1.23498431243964      0.74692947305508      0.87656853593103
  O   1.91540635098745      1.21034290074206     -0.02801729039257
  O   1.08030848660930      1.19516119221238      2.00556369210553
  C   1.32739982065950     -1.49553078023941     -0.05843601073593
  N   2.03954230189655     -2.29737993064688     -0.53721154702101
