14
Coordinates from ORCA-job run
  C   -0.78774794616617     -0.23278280304985     -0.21383818721632
  C   0.67789913258838     -0.53788810946654      0.19137450720907
  Cl  -1.88398152734293     -1.33289332187886      0.66627751714143
  H   0.85639484212610     -1.61207038060559      0.11436326632226
  N   -1.11721418113654      1.11409896471049      0.13986874511544
  H   -2.07104014467288      1.33057394735804     -0.12390690655222
  H   -0.48412646238078      1.77734481583733     -0.29560434742491
  C   -0.91647101756689     -0.55885786383874     -1.64783853745983
  N   -1.02386220203321     -0.75585720520252     -2.80262628807838
  N   0.89791159519615     -0.16412345418213      1.64346217316718
  O   1.24411251073390      0.98664610217506      1.87369827816193
  O   0.69503696333852     -1.05988381554292      2.45343582762046
  C   1.59944858315734      0.21800639592016     -0.64658773490366
  N   2.31363985415900      0.82868672776607     -1.35207831310247
