14
Coordinates from ORCA-job run
  C   -0.62994366844594      0.02351296038243     -0.53449088815495
  C   0.53721968483222      0.03354038815446      0.50645114410517
  Cl  -0.29615487312672     -1.28304005454924     -1.70532355208097
  H   0.42521416675295      0.92762671587400      1.12726142202693
  N   -1.91384560669725     -0.21042385892908      0.05346853115542
  H   -2.21574937395215      0.56365725562313      0.63248073209589
  H   -1.94447382409129     -1.08572854146980      0.56316544576336
  C   -0.67138985100806      1.31130561523647     -1.23605508389824
  N   -0.76176654655423      2.35716223683260     -1.76347111127680
  N   1.88856885128810      0.17210188610221     -0.15950865566522
  O   2.59949495575953     -0.82143270051476     -0.22696893655239
  O   2.12949881396950      1.29401534055786     -0.59157817321429
  C   0.48484143408165     -1.16595117881413      1.32706714065135
  N   0.36848583719170     -2.11634606448614      2.00750198504474
