14
Coordinates from ORCA-job run
  C   -0.65098741605114     -0.01352713150423     -0.37967496950240
  C   0.60716306517277     -0.05725599095123      0.51983201963184
  Cl  -0.65531171834480     -1.41512952741907     -1.47248720558134
  H   0.57637141528977      0.80852633879569      1.18792498119297
  N   -1.78639342630514     -0.12132063943363      0.50574314271980
  H   -2.62263569949086     -0.34087056802911     -0.02373832813161
  H   -1.93440427023123      0.75686451862412      0.99356301472648
  C   -0.65435950820803      1.20781118913607     -1.20275140009609
  N   -0.75718802231511      2.20348613244609     -1.82033181386542
  N   1.86234354337795      0.12318900853981     -0.30633911650994
  O   2.44043148014388     -0.88469437214571     -0.69018915654431
  O   2.16502415421368      1.29070879948522     -0.53342967869271
  C   0.66571908216344     -1.29228382965179      1.28484930788746
  N   0.74322732058481     -2.26550392789223      1.93702920276525
