14
Coordinates from ORCA-job run
  C   -0.73112734302570     -0.11849672408410     -0.35442258073220
  C   0.44358915808274     -0.50763948887875      0.56848724886741
  Cl  -1.73390257283170     -1.65265687077923     -0.47733443986002
  H   0.03911528441344     -0.86477677862303      1.51797868853647
  N   -1.40700186571512      0.99012930010225      0.19751061268119
  H   -1.78850607299714      0.79453968382097      1.11537880115629
  H   -2.12810542708241      1.34760978374666     -0.41564545589661
  C   -0.28146398238221      0.19577135229935     -1.71120160527386
  N   0.02808915254065      0.45653174532303     -2.81437204557479
  N   1.22341537443502      0.74970822338965      0.89078136354936
  O   1.05159343179446      1.20684614026186      2.01387865742760
  O   1.92124242927917      1.20383598251744     -0.00530970160778
  C   1.32412106411240     -1.49866733773873     -0.02872360940945
  N   2.03994136937644     -2.30273501135737     -0.49800593386360
