14
Coordinates from ORCA-job run
  C   -0.83425789601012     -0.00788944074901     -0.33836140149508
  C   0.44312721114120     -0.61892480290245      0.33629876863741
  Cl  -2.20106489768216     -0.42457363734193      0.74802035577385
  H   0.34894832956124     -1.70392069296964      0.40856014497288
  N   -0.83584975385944      1.39065326502483     -0.59446805871496
  H   -0.24635933002594      1.62838443061564     -1.38300456562444
  H   -0.56400557723707      1.91769403211749      0.22620101211335
  C   -1.00201947091277     -0.73525321025420     -1.60160938442688
  N   -1.09232830799466     -1.32749076883696     -2.61248071401811
  N   0.57484021420069     -0.12075816324013      1.75492578988762
  O   0.66632816816365      1.09432965722298      1.90097422094365
  O   0.56702248064591     -0.97086093838688      2.63448968485401
  C   1.62449183478375     -0.22758891531222     -0.41819993430593
  N   2.55012699522569      0.10619918501246     -1.06034591859737
