14
Coordinates from ORCA-job run
  C   -0.66462957904901      0.01781241999750     -0.49464848286574
  C   0.56864565715401      0.03916726790684      0.46716117333250
  Cl  -0.53322662930181     -1.44247894841191     -1.51329141362675
  H   0.57134021658369      1.00263893553900      0.98576434413471
  N   -1.92024931075833     -0.01901635539341      0.19296077967742
  H   -1.99431505469529     -0.82459941843804      0.80313676537317
  H   -2.10537146691649      0.84080227060998      0.69541455201704
  C   -0.63815791318208      1.21164518284044     -1.34644918770226
  N   -0.65631668170449      2.18894854613527     -1.99816612574847
  N   1.87757002761885     -0.01422275324665     -0.28895689006572
  O   2.18836300344868      1.03539320493362     -0.84169503795548
  O   2.49256019958037     -1.07192631489068     -0.29634788006049
  C   0.47714742386055     -1.05379302664152      1.42237312916393
  N   0.33664010736132     -1.91037101094042      2.21374427432611
