14
Coordinates from ORCA-job run
  C   -0.82476742012133     -0.14858453601077     -0.32888652413000
  C   0.60118475248581     -0.54393160319971      0.19228531470044
  Cl  -1.98151524275304     -1.11345485495063      0.64653217157485
  H   0.78114432538409     -1.60774584844110      0.02727379564055
  N   -1.18542604823262      1.22604134456231     -0.27610297848150
  H   -0.71410995494457      1.76446473424475     -0.99305032058532
  H   -1.00725969867695      1.61987803152129      0.63957226694550
  C   -0.88192229830853     -0.61371123191037     -1.71933295319340
  N   -0.88030983828692     -0.97471059656273     -2.83756524701086
  N   0.68881243179459     -0.33717913179810      1.68478237571832
  O   0.49058566115595      0.80391782215688      2.09083225578794
  O   0.93739857832866     -1.32720082074412      2.35899706851149
  C   1.60315235284525      0.28276219998758     -0.46387189981759
  N   2.37403239932962      0.97145449114472     -1.02246532566043
