14
Coordinates from ORCA-job run
  C   -0.62894815504632     -0.08595157931774     -0.52750303323695
  C   0.54336913797404      0.13922266354952      0.48279217825950
  Cl  -0.39228096567734     -1.69028205047850     -1.27541306402053
  H   0.49825932864604      1.17835049775070      0.82298671818622
  N   -1.92156542481723     -0.05662674355006      0.08642743312960
  H   -2.16762098192233      0.86919535014433      0.41479107811672
  H   -2.00695944404234     -0.74486358581050      0.82524850221251
  C   -0.58920981620846      0.94957755532452     -1.56600691885035
  N   -0.62915647955896      1.80505079721342     -2.37023864662138
  N   1.89589267267777     -0.01070103993506     -0.17850177944596
  O   2.54397556589028     -1.02012758235013      0.06217409271449
  O   2.20696441152308      0.91930760995577     -0.91445838885272
  C   0.41321564038577     -0.77151468853004      1.60918467677568
  N   0.23506451017595     -1.48063720396620      2.52851715163321
