14
Coordinates from ORCA-job run
  C   -0.67177153695078     -0.07945784237008     -0.47982788290759
  C   0.58024122603270      0.13469672914768      0.43294463106305
  Cl  -0.64916781191386     -1.77449921770926     -1.03947711647381
  H   0.65685496710441      1.20437453783448      0.65033031481176
  N   -1.91221642855778      0.15991251741090      0.19388475935426
  H   -2.03613662562790      1.13708069674853      0.42943581593724
  H   -2.02100376810989     -0.43189550365694      1.00920776164007
  C   -0.59207580294767      0.81955999397308     -1.63619784296496
  N   -0.54970884067694      1.58147426789494     -2.52945016320987
  N   1.86735353057997     -0.22690092919166     -0.27505585073782
  O   2.40767146079607     -1.28348999933738      0.02321746038535
  O   2.23396586565334      0.58949239619845     -1.11321091741878
  C   0.43582795709061     -0.62603973360317      1.66412964231709
  N   0.25216580752769     -1.20230791333958      2.67106938820410
