14
Coordinates from ORCA-job run
  C   -0.56239342602829     -0.10412320885974     -0.59920212895437
  C   0.47345888049330      0.15114956778146      0.54423236937658
  Cl  -0.18461736573842     -1.69154918132590     -1.32444058142488
  H   0.34620750431316      1.18241318353021      0.88723268751873
  N   -1.91857664829901     -0.12465672009544     -0.14135128184720
  H   -2.06667491155698     -0.82507905082525      0.57578872867328
  H   -2.23174927927887      0.78823053852530      0.16556246820086
  C   -0.43437091635464      0.94250823543407     -1.61900936744484
  N   -0.38023059124020      1.80580099612939     -2.41398752099630
  N   1.89977418465228      0.06432539369557      0.04721976820214
  O   2.54453451565673     -0.93719404072901      0.32694330399719
  O   2.26423978630900      1.02541002742926     -0.62142632654917
  C   0.24903989719290     -0.78007195331015      1.63870762421618
  N   0.00235836987905     -1.49716378737974      2.53573025703178
