14
Coordinates from ORCA-job run
  C   -0.60117718216783     -0.10663939020878     -0.56471649566834
  C   0.51011500431811      0.15438407391884      0.50453783948019
  Cl  -0.44223249128659     -1.79982269854262     -1.10754865804371
  H   0.51377186013827      1.22538087909322      0.72847442121160
  N   -1.92756871832460      0.08636482066965     -0.06114330357596
  H   -2.11682753503656      1.05810470700517      0.15250955231054
  H   -2.12132308614916     -0.50982272113130      0.73502809378809
  C   -0.40289090494704      0.79421586423932     -1.70518198102616
  N   -0.27089213121366      1.55774411841526     -2.58828100521135
  N   1.89293129236298     -0.15205722738051     -0.02723041720500
  O   2.42861023138105     -1.19100131078370      0.33426454228925
  O   2.33688646889492      0.68769312545537     -0.80277041679364
  C   0.23617189558057     -0.61555313351086      1.70766316213310
  N   -0.03457470355046     -1.18899110723909      2.69639466631140
