14
Coordinates from ORCA-job run
  C   -0.85042762708484     -0.10728359662199     -0.27158592694765
  C   0.55270129669240     -0.56837247057190      0.25619529949555
  Cl  -2.04546848859844     -0.77450787960730      0.88888207588005
  H   0.61441782782588     -1.65808523569284      0.26173265448888
  N   -1.06562560202077      1.28951032391276     -0.42926329637933
  H   -0.79829478299749      1.80113311184278      0.40264617687716
  H   -0.58281729668511      1.65352105489168     -1.24186557336259
  C   -1.02779801880442     -0.77801063644828     -1.56460376713657
  N   -1.12593840346829     -1.32271963377713     -2.60114920849415
  N   0.73757500769005     -0.13764688562389      1.69004733448536
  O   0.91688819553880     -1.02915972439842      2.50787489164109
  O   0.67158471704832      1.06764123607933      1.91022631353642
  C   1.59821165756807      0.02980573545305     -0.56058771666172
  N   2.40499151729575      0.53617460056219     -1.24854925742251
