14
Coordinates from ORCA-job run
  C   -0.83094753206805     -0.03091460856346     -0.17574171467247
  C   0.48995132737026     -0.64613695244858      0.35531661321762
  Cl  -2.16970393839652     -0.47253991337084      0.91961776101907
  H   0.33072863301235     -1.70296133314736      0.57780942643459
  N   -0.72200975585644      1.39548092797490     -0.20659048076624
  H   0.06678575345768      1.69543908311820     -0.77054576419353
  H   -1.57372377014382      1.81224128711377     -0.56298146165879
  C   -1.11381184889313     -0.67204031627309     -1.47503890341367
  N   -1.32313591701308     -1.13058003176463     -2.53791439824405
  N   0.87717760160997      0.01948340821370      1.66054252660703
  O   1.56668460250001      1.02746313438518      1.58574702762284
  O   0.44487846735219     -0.51730132299448      2.67274848244568
  C   1.55967343727510     -0.46162043976898     -0.61658524337202
  N   2.39745293979344     -0.31501292247435     -1.42738387102604
