14
Coordinates from ORCA-job run
  C   -0.79408861880466     -0.18966069894838     -0.40158545007638
  C   0.39833916100287     -0.55628316798403      0.53752944148260
  Cl  -1.71378594697423     -1.72838415375467     -0.55867533284163
  H   -0.01332775343002     -0.95342047504376      1.46749918194194
  N   -1.65373633167368      0.82935958279565      0.09468510367446
  H   -1.29550738809650      1.76059319151253     -0.07206347770991
  H   -1.89311091099679      0.69980896354409      1.06943434324358
  C   -0.29509600434980      0.19703774205748     -1.72366245628311
  N   0.09695423253834      0.52677984836622     -2.78107985702522
  N   1.09612366068899      0.72948237284125      0.90685005699377
  O   0.74173629691709      1.23683208149759      1.96738449121904
  O   1.89539073194237      1.18512591412341      0.09719061845215
  C   1.33995856349636     -1.48548942609246     -0.06323096990376
  N   2.09015030773964     -2.25278177491493     -0.54127569316750
