14
Coordinates from ORCA-job run
  C   -0.54577775260564      0.04128310123270     -0.51437816510716
  C   0.51193169007942      0.12120633866774      0.61325908766016
  Cl  -0.20941183856323     -1.46761275169977     -1.48199198067084
  H   0.42978811949709      1.11033520412708      1.07204313457078
  N   -1.82658655766896      0.07626421152905      0.09681734082061
  H   -2.00554172203101     -0.76276150402424      0.63784657346015
  H   -2.56231858636363      0.20381028641425     -0.58707627933041
  C   -0.42641919311905      1.17974131513795     -1.42903915519165
  N   -0.41741827782153      2.09487384258765     -2.16575746568479
  N   1.91547000076378      0.03102489490329      0.05556098172552
  O   2.26678086052510      1.01137533991824     -0.59027035101665
  O   2.56193996014009     -0.98162318972316      0.28484590448091
  C   0.28127709914303     -0.92212005046057      1.60088184387805
  N   0.02528619802455     -1.73579703861022      2.40825853040529
