14
Coordinates from ORCA-job run
  C   -0.76856858593684     -0.20887981055420     -0.30688708980813
  C   0.44090173755998     -0.48111774841748      0.60531342872550
  Cl  -1.66776140393017     -1.75485548489444     -0.35699589688116
  H   0.05389342584726     -0.80883332575224      1.57305319073400
  N   -1.61205156638718      0.77817995991058      0.32073279858290
  H   -1.23069419204775      1.70280093869157      0.15230137894719
  H   -2.54491500214975      0.73207526163580     -0.07251802781782
  C   -0.35159146519371      0.10297441491405     -1.68306376570966
  N   -0.07288464225817      0.38931605064052     -2.78886377246435
  N   1.22944539080382      0.78615510534494      0.89695506972676
  O   2.01794238142637      0.70194593442099      1.82609798015596
  O   1.02446748948129      1.76397794547821      0.18562024055886
  C   1.36736812595192     -1.46040404805318      0.05211184306660
  N   2.11444830683292     -2.24333519336514     -0.40485737781666
