14
Coordinates from ORCA-job run
  C   -0.76559110947046     -0.20070783751921     -0.32187025375467
  C   0.43010606169241     -0.49108673812458      0.60287655527948
  Cl  -1.66838137439812     -1.74311845583807     -0.40847730170148
  H   0.02860377003233     -0.83387098630919      1.55944930839454
  N   -1.61472628745344      0.77900499235965      0.30940305753201
  H   -2.54364138772871      0.73937494868323     -0.09339660141751
  H   -1.23074893003357      1.70539273331466      0.15823127781295
  C   -0.32733390544109      0.13027865069659     -1.68673154463286
  N   -0.02084859777711      0.42594637017535     -2.78273579934068
  N   1.21693931571072      0.76922197110614      0.92666908178019
  O   1.02539228515371      1.75893792392703      0.22824027342977
  O   1.99075391252027      0.66823723437201      1.86646730248486
  C   1.36261458702233     -1.46389506498733      0.04831732315326
  N   2.11486166017081     -2.24371574185629     -0.40544267901981
