14
Coordinates from ORCA-job run
  C   -0.79493620567884     -0.20074439695261     -0.24141912636585
  C   0.51582666260386     -0.52487444403697      0.49748706525282
  Cl  -1.66049194881642     -1.76239599925627     -0.35462714130047
  H   0.24774980370568     -0.96340104305049      1.46165841041438
  N   -1.58231108790792      0.68811124888836      0.57661581723825
  H   -1.24332994770144      1.63753605577909      0.46553304609471
  H   -2.55316412461101      0.65094846820453      0.28864423371350
  C   -0.54221411438128      0.26340485806351     -1.61457438918043
  N   -0.38356155551301      0.66431429048870     -2.70844863100168
  N   1.30478856857929      0.73127553641721      0.83372837523636
  O   1.00063464392404      1.77006426390447      0.25715835536940
  O   2.19406939867175      0.57738293807611      1.65695462720443
  C   1.39526146853400     -1.41097975110953     -0.25400284150013
  N   2.10367843859133     -2.12164202541613     -0.86470780117532
