16

C	-0.188797	0.076983	-0.001147
C	-0.42298	-0.219611	-1.477292
Br	1.433614	-0.747584	0.740566
H	0.424155	0.143887	-2.068043
H	-1.093906	-0.258014	0.549588
N	-0.005617	1.549278	0.242238
O	0.521555	2.230375	-0.639915
O	-0.389835	1.988345	1.323474
N	-1.65497	0.449441	-1.889706
H	-2.347536	0.13133	-1.182168
H	-1.536146	1.453041	-1.810576
C	-0.637342	-1.717634	-1.660049
H	0.248369	-2.30534	-1.411462
H	-0.91304	-1.898843	-2.701491
H	-1.474442	-1.985247	-1.01098
F	-2.736415	-0.708267	0.278648
