16

C	-0.187274	0.07518	0.012591
C	-0.415261	0.068271	-1.493931
Br	1.435665	-0.872077	0.588051
H	0.432595	0.541	-2.000412
H	-1.093957	-0.362085	0.484057
N	-0.010131	1.473348	0.536875
O	0.51047	2.315826	-0.197425
O	-0.392238	1.691644	1.683895
N	-1.647959	0.80082	-1.775097
H	-1.532411	1.770716	-1.504007
H	-2.3421	0.351093	-1.144631
C	-0.623833	-1.367012	-1.963
H	0.262391	-1.989744	-1.82681
H	-1.462888	-1.756526	-1.381722
H	-0.893135	-1.345049	-3.021445
F	-2.73353	-0.754586	0.126337
