12
Coordinates from ORCA-job run
  C   -1.03873072607012     -0.26014737080162      0.27775423567301
  C   0.38782806646475     -0.69194058062552     -0.05529331996745
  Br  -2.28267977097940     -1.75745827889181      0.08626898353053
  H   0.63939867648825     -1.53235758605865      0.59713853730060
  H   -1.11460574725468      0.04395447643174      1.32425325919437
  H   0.40976106454128     -1.06060252422701     -1.08413280626011
  C   -1.48744514567735      0.83981471030722     -0.56713226499496
  N   -1.80359577931687      1.73866945521327     -1.25433121590444
  C   1.37845451102766      0.45399873459337      0.13278969416738
  H   1.34911323420752      0.83928747802400      1.15537201113918
  H   1.16842469309363      1.27975986889629     -0.54985841247435
  H   2.39507692347532      0.10702161713872     -0.06282870140376
