12
Coordinates from ORCA-job run
  C   -0.96309210227801      0.13869703350452     -0.26499053856862
  C   0.32897774730850     -0.18296216124549      0.48576581393736
  Br  -1.00633850706252      2.00071515966072     -0.87008664874010
  H   0.21636931729591     -1.19940926197198      0.87985542742936
  H   -1.03926510663554     -0.45893977107968     -1.17650121589464
  H   0.40789127060460      0.48823850500157      1.34519360770426
  C   -2.13779308186281     -0.10554639148546      0.56295464999989
  N   -3.05944065305238     -0.33404995502262      1.25438488519819
  C   1.57243919495697     -0.09918861897953     -0.38961696093614
  H   1.49282701850825     -0.76837910133844     -1.25038959736970
  H   1.73414677132526      0.91436496201976     -0.75783483937602
  H   2.45427813089177     -0.39454039906337      0.18226541661614
