12
Coordinates from ORCA-job run
  C   -1.00435871643214     -0.43276436906873      0.16441380771061
  C   0.33757398251706     -0.44612727318081     -0.56455292008325
  Br  -2.34347174663062     -1.46302041534721     -0.82119100978943
  H   0.62747071607817     -1.49084739201641     -0.70521359658339
  H   -0.92043001252766     -0.92589326699074      1.13557871758444
  H   0.19923608112844     -0.01018109706182     -1.55745814823054
  C   -1.50239944784718      0.92262748561914      0.36514933388138
  N   -1.85883986297647      2.03063396006609      0.52486076869159
  C   1.40728293536047      0.31129978075011      0.21770439018188
  H   1.54114766091763     -0.11122536897184      1.21700071910392
  H   2.36610979525669      0.24908654168843     -0.30082355249186
  H   1.15167861515561      1.36741141451379      0.32453149002466
