14

C	-0.409749	-0.080449	-1.477849
C	0.0	0.0	0.0
Cl	0.391196	1.33464	-2.331115
H	1.095459	0.0	0.0
C	0.152691	-1.28835	-2.093772
N	0.539924	-2.258144	-2.63112
N	-1.825379	-0.08578	-1.651321
H	-2.224346	0.72823	-1.194748
H	-2.066784	-0.065726	-2.634851
C	-0.470704	-1.17142	0.718546
N	-0.807229	-2.134276	1.303832
C	-0.52234	1.214625	0.595134
N	-0.957609	2.199765	1.069041
F	2.429962	0.0	0.0
