14

C	-0.357829	-0.031797	-1.493356
C	0.0	0.0	0.0
Cl	0.208036	1.48608	-2.260206
H	1.096403	0.0	0.0
C	0.390958	-1.132543	-2.137215
N	0.844464	-2.048983	-2.718023
N	-1.783775	-0.126777	-1.709302
H	-2.135882	-0.938492	-1.211694
H	-1.978423	-0.242192	-2.697886
C	-0.476435	-1.219872	0.625526
N	-0.866065	-2.227217	1.093705
C	-0.535585	1.172022	0.664204
N	-0.92657	2.121556	1.236963
F	2.428825	0.0	0.0
