10
Coordinates from ORCA-job run
  C   -0.55027722557056     -0.46377659535849      0.21118264994956
  C   0.53232204955180      0.52290225818209     -0.24523669080878
  Cl  -0.04621551764968     -1.30103843553921      1.70094155810973
  H   0.15832492352627      1.09598028066601     -1.09934847014517
  H   -0.70211579481402     -1.23466840604503     -0.54736685561195
  H   0.74868717490095      1.22432549339591      0.56417097841456
  C   -1.80945969917147      0.24277236946077      0.43022901826644
  N   -2.81307636440804      0.83327441582397      0.58171819261752
  C   1.75500691491799     -0.17445104409411     -0.63504530612282
  N   2.72580353871676     -0.74632033649192     -0.96124507466909
