10
Coordinates from ORCA-job run
  C   -0.73090506583250     -0.42818605128730     -0.00969698411088
  C   0.78635987656322     -0.36649248914150     -0.22901535957759
  Cl  -1.18146961254109     -2.08019768844181      0.49109978943683
  H   1.30064337996445     -0.58494651969180      0.71005906442623
  H   -1.25335499674247     -0.22795564820632     -0.94715498280962
  H   1.06988517917267     -1.13260042125070     -0.95488090003763
  C   -1.16599883044130      0.53738838481411      0.99483899271168
  N   -1.50097121462152      1.32548899283467      1.79830694896160
  C   1.18724261692598      0.94882351990646     -0.72333693196507
  N   1.48756866755255      2.00767792046416     -1.13021963703555
