10
Coordinates from ORCA-job run
  C   -0.71620230598730     -0.45308767038946      0.01445071523039
  C   0.79543595467489     -0.34708829460706     -0.22629056545257
  Cl  -1.10326339889474     -2.10051390662769      0.57906449468361
  H   1.32783518024658     -0.51370383060450      0.71329625511790
  H   -1.25603655581177     -0.30446663446106     -0.92273501231459
  H   1.09707342445953     -1.12850361659766     -0.92813737436694
  C   -1.17212077295687      0.53234050086139      0.99017903459878
  N   -1.51996775944924      1.33623607177548      1.77222173653530
  C   1.14427514989266      0.96274219597297     -0.77211259330524
  N   1.40297108382626      2.01604518467758     -1.21993669072664
