10
Coordinates from ORCA-job run
  C   -0.60337841329745     -0.40659441126919      0.19258513092615
  C   0.59048767228397      0.45875339688119     -0.23201829754810
  Cl  -0.30223044555992     -1.15233140482619      1.78229254110718
  H   0.78880988581826      1.20640812388102      0.53980109592572
  H   -0.74813666167934     -1.22417345837166     -0.51675271401289
  H   0.33970651837103      0.98567019637556     -1.15782517450835
  C   -1.81518048971914      0.40744446720705      0.23697360095407
  N   -2.77098668767207      1.08929450432728      0.24608072359556
  C   1.78488261945338     -0.35282681419945     -0.45088195312995
  N   2.73702600200130     -1.01164460000559     -0.63925495330940
