10
Coordinates from ORCA-job run
  C   -0.64937548003076     -0.57300131791548      0.17968521500059
  C   0.58357149266612     -0.23255321324984     -0.66444641563578
  Cl  -0.16449117977742     -1.37532820964333      1.69490905186610
  H   1.13901830269066     -1.15295217746277     -0.86120201325682
  H   -1.26602188616465     -1.28755327453864     -0.37010140482671
  H   0.25346263865336      0.17868267379922     -1.62362850358769
  C   -1.44560734795941      0.61703276353272      0.46512817160177
  N   -2.07449674739807      1.58969374884885      0.65862147122917
  C   1.45973992449760      0.73038675252861     -0.00274596957701
  N   2.16520028282258      1.50559225410066      0.52378039718637
