10
Coordinates from ORCA-job run
  C   -0.65745691362964     -0.56527230696561      0.17321354244589
  C   0.61792869777275     -0.26329398440031     -0.62092591464396
  Cl  -0.25250744574349     -1.29784574566046      1.74618049685460
  H   1.18052413466053     -1.19170548185996     -0.74697130404817
  H   -1.24669177605875     -1.30416298193173     -0.37447640847727
  H   0.33874635665933      0.10424591710479     -1.61344695089451
  C   -1.46540898994636      0.63585583473148      0.36307382548311
  N   -2.10857363368732      1.61172103128531      0.47744984884161
  C   1.46031193355574      0.72988189084235      0.03997353892835
  N   2.13212763641722      1.54057582685414      0.55692932551036
