13
Coordinates from ORCA-job run
  C   0.65978309200992     -0.14375558763707     -0.15692728314938
  C   -0.39171009539451     -0.40283762833195      0.64846638305997
  H   -0.25433936685559     -1.13655093860127      1.43778246879876
  N   0.73197025231055      0.90730112157008     -1.08083271265254
  H   1.04995318653718      0.58895706232502     -1.98627678352332
  H   -0.12148008652978      1.43923302403187     -1.15331547556634
  N   1.84226005442786     -0.90435837096413     -0.18965832593185
  H   2.66158071017829     -0.31949557474009     -0.08945499401462
  H   1.84034448799537     -1.64355898402063      0.49776630131958
  C   -1.72873334155616      0.27403549689175      0.54127334444537
  H   -1.98247413553652      0.51181912911827     -0.49715103695054
  H   -2.52165876591860     -0.37744711872340      0.91538469568484
  H   -1.78449599166799      1.20665836908155      1.11494341848008
