13
Coordinates from ORCA-job run
  C   0.57051748783810      0.25855856163535     -0.29653947328764
  C   -0.42598418418323      0.45247433824478      0.59279238213176
  H   -0.44706248526856      1.39645597977861      1.12998153166456
  N   1.69891198567968      1.08916792122047     -0.42056161965211
  H   1.65750537320882      1.88416638529127      0.20025302972360
  H   1.83510336998496      1.38587534227650     -1.37817104527775
  N   0.63728700189982     -0.79355964192859     -1.21923244267444
  H   1.54311039347184     -1.24262808105646     -1.21249946665668
  H   -0.10979421013256     -1.46357819864582     -1.12181139781961
  C   -1.51997993321308     -0.54024292061178      0.86724308505962
  H   -1.16170527922780     -1.57210215324720      0.78824322217974
  H   -2.37421634833070     -0.43600508839002      0.18794146594503
  H   -1.90469317172731     -0.41958244456710      1.88236072866393
