13
Coordinates from ORCA-job run
  C   0.65566482642154     -0.13794663766365     -0.17738016749739
  C   -0.28400259564149     -0.17860335290888      0.79055308342915
  H   -0.00234182242347     -0.60177748285156      1.75060395018519
  N   0.41793758535072      0.17406463047116     -1.52234581644403
  H   -0.53460123066550      0.44514705164034     -1.71131445952000
  H   1.07565914041072      0.85789583326940     -1.87158177398640
  N   2.02237284430438     -0.39867068281813      0.02923249313778
  H   2.36902255854752     -1.08936351646512     -0.62371666889696
  H   2.21891632456307     -0.67227808242006      0.98087544707336
  C   -1.69827340112428      0.29832775146913      0.61722985541063
  H   -1.75626267041250      1.16435896200614     -0.05055553722949
  H   -2.11939418448546      0.61292664070026      1.57467980975559
  H   -2.36469737484525     -0.47308111442905      0.21371978458257
