13
Coordinates from ORCA-job run
  C   0.68168822919564     -0.11619427379828     -0.06565802340738
  C   -0.36712312374522     -0.32706597090924      0.75736921002174
  H   -0.20041886445051     -0.97753636299697      1.61071131702662
  N   0.73874755431843      0.87921739393728     -1.05808771232335
  H   0.91334794042632      0.50898801355900     -1.98347112928492
  H   -0.06693728798869      1.48611982608690     -1.05884550500714
  N   1.88566969033575     -0.82859313764928      0.05943129526927
  H   2.62523735586033     -0.48111744414331     -0.52883298982851
  H   1.79030013086600     -1.82940559473657      0.03279807318654
  C   -1.72119619117558      0.30102854784635      0.59179039155976
  H   -1.82392472029470      1.24402454493673      1.14194064447100
  H   -1.95043773972408      0.50681544018104     -0.45864271316965
  H   -2.50395297362368     -0.36628098231364      0.96049714148599
