13
Coordinates from ORCA-job run
  C   0.59453447611335      0.24502006253567     -0.25877697584338
  C   -0.56048854192517      0.52644108857721      0.38011277555669
  H   -0.75186089937686      1.56285288426785      0.64378595410506
  N   1.65994711879438      1.15074232251292     -0.41082943198167
  H   1.44444255504240      2.06071547039124     -0.03054029191056
  H   1.94788124226181      1.22261696065587     -1.37801837195100
  N   0.91084444217470     -0.98163051147971     -0.85757247825443
  H   0.21156152213955     -1.69338769670088     -0.71297075617049
  H   1.83084845940761     -1.30396890159544     -0.58935179072217
  C   -1.60922223208321     -0.49247583046056      0.72518458858063
  H   -1.16835376331197     -1.46828965841208      0.95437826163739
  H   -2.34137610176897     -0.64274935823102     -0.07688126097561
  H   -2.16775827746761     -0.18588683206108      1.61247977792955
