13
Coordinates from ORCA-job run
  C   0.61707008257245     -0.28008856794091     -0.15102714278003
  C   -0.32600719828438     -0.22220684381749      0.81294234001507
  H   -0.08304336562475     -0.67735863685408      1.76834717420994
  N   0.39836611985761      0.01553581169569     -1.50866246327260
  H   1.00648585938422      0.74283227396962     -1.86215904437909
  H   -0.56673896572753      0.21700110964885     -1.72157265020689
  N   1.91656080912564     -0.75011090789241      0.10111108046371
  H   2.47369604512164     -0.86591014613862     -0.72955604319442
  H   2.40082559575474     -0.27523231807315      0.84374482046518
  C   -1.68437659518080      0.39461726549603      0.64035177865826
  H   -2.44278407234619     -0.32835838424765      0.31674771586259
  H   -2.03760817894462      0.82157443914162      1.58211198990523
  H   -1.67344613570804      1.20870490501250     -0.09137955574696
