13
Coordinates from ORCA-job run
  C   0.47974363203556      0.36109865967031     -0.34888940420130
  C   -0.48485169747646      0.48649871776166      0.58695374937744
  H   -0.55347338947231      1.44133025977492      1.09938484148800
  N   1.46336469595433      1.34442035339040     -0.54569698997665
  H   1.99351042713242      1.58185237144835      0.27533779160846
  H   2.03529560335690      1.18806943278354     -1.35949442124156
  N   0.56099549325025     -0.68587946805246     -1.28464120270369
  H   1.43762948550282     -1.18957538168665     -1.24544410714923
  H   -0.22195069148372     -1.32025782809793     -1.24095371151192
  C   -1.47719164793204     -0.58501788061155      0.93699605081626
  H   -1.75852833709173     -0.52202562223359      1.99096972988546
  H   -1.06841467293573     -1.58802713009329      0.77836485621683
  H   -2.40512890084030     -0.51248648405370      0.35711281739190
