13
Coordinates from ORCA-job run
  C   0.62040995123578     -0.25850799714514     -0.17423839195800
  C   -0.42547902958340     -0.45057472402539      0.65711984365487
  H   -0.31187575452963     -1.21078422027223      1.42409128225488
  N   0.57282332369546      0.47997929816344     -1.37022206418822
  H   -0.35293042696998      0.80912021416572     -1.59824220517093
  H   1.24373155111955      1.23679244367081     -1.39940505329645
  N   1.86441366853991     -0.87747821991129      0.03363764868500
  H   2.51078219980926     -0.75177943620586     -0.72815714850575
  H   2.27437081017605     -0.70787495901881      0.93630659592588
  C   -1.73333173807121      0.28173713159595      0.56529501812229
  H   -2.17884832384456      0.40300561043322      1.55565718506241
  H   -1.60994048351811      1.28684471719370      0.14948308571568
  H   -2.47312574805912     -0.24147985864412     -0.05232579630166
