13
Coordinates from ORCA-job run
  C   0.50657460824712      0.21806645821968     -0.34825862942783
  C   -0.57842499708871      0.54513206958113      0.38441741994009
  H   -0.71205835709572      1.58591813637713      0.66536013646767
  N   0.82852727410872     -1.10742815243605     -0.67044302321204
  H   0.87485641039155     -1.73864364004020      0.11240431986977
  H   1.61082681558756     -1.19093564172847     -1.29898429536746
  N   1.35737934590490      1.15424089633005     -0.97389624494334
  H   1.01685228607058      2.09914134502296     -0.86778168642710
  H   2.31332433130958      1.08812290651349     -0.64663863816117
  C   -1.59789871516574     -0.46211993937496      0.82696518435148
  H   -1.61607780401415     -1.31080904225425      0.13777743701977
  H   -1.40349221101376     -0.85496191346130      1.83267766429681
  H   -2.59938898724193     -0.02472348274920      0.84640035559333
