13
Coordinates from ORCA-job run
  C   0.55920985114467      0.27976829220609     -0.29935201687206
  C   -0.58286196679600      0.49863374975747      0.38583846627243
  H   -0.82857279509211      1.52512953408546      0.64291865195206
  N   1.33813272930272      1.29018532565746     -0.89098582167791
  H   2.30764542179661      1.22141295999564     -0.61040984505136
  H   0.97300303295945      2.21278241579117     -0.70548202331387
  N   1.13548967567072     -0.97637368607255     -0.52924776730692
  H   1.39146956037954     -1.10129119476704     -1.49926239326965
  H   0.57761622558406     -1.74450187711845     -0.18986487929716
  C   -1.52063234451237     -0.58545002296945      0.83633950317251
  H   -1.55920630621011     -1.41270989250195      0.11980728327909
  H   -1.25211612464643     -1.00736991356682      1.81198778797069
  H   -2.53917695958074     -0.20121569049703      0.92571305414216
