13
Coordinates from ORCA-job run
  C   0.55534531997167      0.25328430755264     -0.32845547929791
  C   -0.54407790039303      0.52369350979599      0.40627272900144
  H   -0.75441112797896      1.56439950473826      0.63656372038433
  N   0.86698958847697     -0.99039255908835     -0.89404814447401
  H   0.21735175940979     -1.72036441611423     -0.64545042338673
  H   1.82166812440245     -1.26103083497936     -0.69957276516140
  N   1.56055187412013      1.19034155450877     -0.62786489788582
  H   1.34274201423420      2.11041305317522     -0.27414331917614
  H   1.75397145698432      1.22100584501244     -1.62040712413960
  C   -1.51013129817688     -0.51441124339163      0.90238418408441
  H   -1.00923975329913     -1.46174622318868      1.12783460104750
  H   -2.31366685445782     -0.72936457198882      0.18822617749250
  H   -1.98709320329370     -0.18582792603227      1.82866074151142
