13
Coordinates from ORCA-job run
  C   0.68068981084696     -0.13404527454812     -0.02690581211868
  C   -0.43895928322879     -0.41134193532429      0.67406151069009
  H   -0.36272024705831     -1.17653882727713      1.44071480524173
  N   1.84857722780023     -0.90506540556272      0.09295805130840
  H   2.64461290078986     -0.51038977377840     -0.38068988702176
  H   1.72675678738628     -1.88802802081685     -0.08125890278830
  N   0.84946107104274      0.98316525002845     -0.86460511928800
  H   1.09252796143150      0.73618869224340     -1.81522495416736
  H   0.06517503604337      1.61709505281640     -0.84571690126965
  C   -1.75540768397664      0.28724329550517      0.48995207751775
  H   -2.58607401154571     -0.39159202754933      0.69780170745931
  H   -1.87736329880699      1.14954608730702      1.15636382792303
  H   -1.88827627072451      0.64376288695641     -0.53645040348656
