13
Coordinates from ORCA-job run
  C   0.55096691161887      0.22914574617586     -0.26328688697695
  C   -0.57957753417796      0.52508943005720      0.41146453098798
  H   -0.84061278923625      1.57146762976375      0.54154881725761
  N   0.92012415265610     -1.08583276347968     -0.57736515698443
  H   0.21470051273350     -1.62779905473011     -1.04863794483774
  H   1.83126434511676     -1.15900796761490     -0.99983661036587
  N   1.54114508869582      1.17201886909446     -0.61280619368538
  H   1.68337102835107      1.23146113885943     -1.61357035634148
  H   1.33871739212458      2.08604832260418     -0.23384086145691
  C   -1.48654322146771     -0.52509328357548      0.98141966181099
  H   -1.94904632735230     -0.18276838787929      1.91062991876328
  H   -2.30373849950664     -0.79941133238453      0.30266922925045
  H   -0.92077105955585     -1.43431834689089      1.20261185257845
