15

C	0.0	0.0	0.0
C	-0.50161	0.496815	-1.340748
F	1.417308	0.0	0.0
H	-1.600301	0.470027	-1.222474
H	-0.279459	0.707234	0.782196
N	-0.517828	-1.319558	0.185166
H	-0.299351	-1.598631	1.137446
H	-1.546614	-1.100615	0.160697
N	-0.015112	-0.262325	-2.460174
H	0.803277	-0.776589	-2.157292
H	-0.717613	-0.942892	-2.70663
N	-0.162061	1.955594	-1.561363
O	-0.511346	2.434526	-2.637683
O	0.376029	2.598606	-0.657909
F	-2.795755	0.0	0.0
