15

C	0.0	0.0	0.0
C	-0.555831	-0.012882	-1.388624
F	1.420332	0.0	0.0
H	-1.706407	0.020115	-1.076488
H	-0.330911	0.888992	0.527714
N	-0.397281	-1.177328	0.685711
H	-0.117078	-1.98002	0.138941
H	0.022014	-1.197977	1.604273
N	-0.084492	-1.164482	-2.095611
H	0.913236	-1.068314	-2.255147
H	-0.529979	-1.230191	-2.999787
N	-0.10437	1.270708	-2.046319
O	-0.35297	2.332359	-1.476042
O	0.483151	1.203309	-3.134306
F	-2.761514	0.0	0.0
