15

C	0.0	0.0	0.0
C	-0.473613	-0.007975	-1.470098
F	1.415431	0.0	0.0
H	-1.262311	-0.741116	-1.579369
H	-0.290287	0.923031	0.500059
N	-0.463741	-1.208272	0.600368
H	-1.498577	-1.009596	0.527561
H	-0.211038	-1.187724	1.583769
N	0.582611	-0.216694	-2.446063
H	0.869561	-1.1822	-2.351255
H	1.37704	0.335447	-2.145077
N	-1.122951	1.282277	-1.864398
O	-2.002366	1.23132	-2.712678
O	-0.65273	2.325198	-1.404812
F	-2.62194	0.0	0.0
