15

C	0.0	0.0	0.0
C	-0.211512	0.079717	-1.540426
F	1.385196	0.0	0.0
H	0.260177	-0.827808	-1.919275
H	-0.31996	0.937545	0.47028
N	-0.529096	-1.188028	0.552765
H	-1.56841	-0.959859	0.416504
H	-0.353066	-1.161902	1.553829
N	0.421398	1.246647	-2.137577
H	1.309064	1.372694	-1.668841
H	-0.16894	2.045256	-1.931835
N	-1.599083	0.033735	-2.116578
O	-2.015896	-1.07178	-2.440159
O	-2.143162	1.10163	-2.369571
F	-2.674959	0.0	0.0
