19

C	0.0	0.0	0.0
C	-0.592462	-0.091567	-1.403073
Cl	1.789576	0.0	0.0
H	-1.682168	-0.234337	-1.300654
C	-0.49415	1.275921	0.677759
H	-1.587854	1.287551	0.633
H	-0.079349	2.166047	0.209682
H	-0.184869	1.250666	1.724639
C	-0.465251	-1.208112	0.807762
H	-0.079661	-2.143105	0.404691
H	-1.55903	-1.223846	0.806098
H	-0.105438	-1.092172	1.832157
N	-0.036538	-1.239855	-2.195309
O	0.847311	-0.996681	-3.013788
O	-0.501416	-2.34721	-1.942901
N	-0.412458	1.103924	-2.295463
O	-1.171547	1.129304	-3.26211
O	0.458265	1.931331	-2.04277
Br	-3.879571	0.0	0.0
