19

C	0.0	0.0	0.0
C	-0.5923	-0.088581	-1.404354
Cl	1.789754	0.0	0.0
H	-1.681366	-0.230841	-1.298985
C	-0.494601	1.275563	0.677802
H	-0.184522	1.251359	1.724442
H	-1.587974	1.287114	0.632601
H	-0.079392	2.164535	0.208732
C	-0.464445	-1.209371	0.806616
H	-1.557862	-1.226478	0.804985
H	-0.077406	-2.143384	0.402592
H	-0.104134	-1.094062	1.830892
N	-0.039342	-1.23621	-2.197969
O	-0.509085	-2.341629	-1.950168
O	0.846967	-0.994283	-3.01347
N	-0.413781	1.108958	-2.292608
O	0.459002	1.933547	-2.041097
O	-1.1764	1.13911	-3.255305
Br	-3.880122	0.0	0.0
