19

C	0.0	0.0	0.0
C	-0.200755	0.036725	-1.535746
Cl	1.801186	0.0	0.0
H	0.296986	0.92395	-1.91872
C	-0.536656	1.29549	0.575718
H	-0.238336	1.372027	1.624065
H	-1.630458	1.259955	0.517224
H	-0.162249	2.168504	0.037509
C	-0.570135	-1.190436	0.739849
H	-0.173139	-2.135395	0.380976
H	-0.335443	-1.075345	1.801739
H	-1.659956	-1.161354	0.618127
N	-1.59924	0.127591	-2.098072
O	-2.010867	1.272252	-2.241026
O	-2.149818	-0.914707	-2.420155
N	0.439474	-1.094774	-2.299461
O	0.391815	-2.232415	-1.853577
O	0.940202	-0.764075	-3.374255
Br	-4.136381	0.0	0.0
