17

C	0.0	0.0	0.0
C	-0.509349	-0.053737	-1.448636
Cl	1.80594	0.0	0.0
H	0.207558	-0.593257	-2.073536
N	-0.651778	0.949766	0.761108
H	-0.400814	1.896703	0.529099
H	-0.691874	0.739714	1.746263
N	-0.296754	-1.393926	0.613808
O	0.057706	-2.35811	-0.042059
O	-0.795851	-1.41291	1.731275
N	-0.43926	1.396441	-2.057336
O	-1.052875	1.53154	-3.109293
O	0.233966	2.274167	-1.515656
N	-1.770503	-0.63417	-1.509997
H	-2.0865	-0.752199	-2.461699
H	-2.522658	-0.23353	-0.928682
Cl	-4.468678	0.0	0.0
