15

C	-0.070049	-0.158751	-1.52524
C	0.0	0.0	0.0
Cl	-1.667123	-0.893396	-2.133553
H	1.097185	0.0	0.0
H	-0.435144	0.947012	0.323693
C	-0.044648	1.166574	-2.176648
N	0.050292	2.21896	-2.693282
N	1.021982	-0.999885	-1.913114
H	1.231398	-0.901273	-2.897613
H	1.846884	-0.726957	-1.320582
C	-0.526376	-1.199711	0.764629
H	-0.117606	-2.114491	0.332843
H	-0.192826	-1.141725	1.804532
H	-1.617901	-1.267721	0.750507
F	2.732392	0.0	0.0
