15

C	-0.128059	0.135201	-1.533373
C	0.0	0.0	0.0
Cl	-0.371265	-1.573386	-2.224025
H	1.095295	0.0	0.0
H	-0.460855	-0.911788	0.378424
C	-1.336147	0.849095	-1.96812
N	-2.318655	1.433109	-2.23794
N	1.04958	0.710936	-2.092011
H	1.851252	0.545562	-1.436708
H	0.924625	1.685067	-2.313108
C	-0.473504	1.248585	0.728453
H	-0.201831	1.172561	1.784662
H	0.039639	2.129838	0.332407
H	-1.554076	1.416907	0.657781
F	2.732758	0.0	0.0
