15

C	-0.125919	0.08186	-1.537813
C	0.0	0.0	0.0
Cl	-0.213525	-1.616383	-2.23492
H	1.09535	0.0	0.0
H	-0.319219	0.98563	0.365238
C	-1.367762	0.730217	-1.982358
N	-2.364028	1.286156	-2.264562
N	1.028199	0.732815	-2.108386
H	1.834073	0.504273	-1.477716
H	0.879307	1.735756	-2.080946
C	-0.707507	-1.116804	0.736666
H	-0.235341	-2.076577	0.530206
H	-1.768247	-1.19109	0.472536
H	-0.640862	-0.939797	1.813807
F	2.731415	0.0	0.0
