15

C	-0.427604	0.030231	-1.428182
C	0.0	0.0	0.0
Cl	-2.403187	0.372637	-1.484964
H	1.094378	0.0	0.0
H	-0.355277	0.914434	0.480432
C	0.05516	1.210364	-2.14754
N	0.422031	2.156019	-2.739898
N	-0.151054	-1.127838	-2.152376
H	-0.438984	-1.96107	-1.660328
H	-0.513729	-1.107289	-3.094383
C	-0.458117	-1.24166	0.749709
H	0.122685	-2.110832	0.425727
H	-1.529372	-1.451854	0.648749
H	-0.232291	-1.113107	1.810643
F	2.603909	0.0	0.0
