15

C	-0.058298	-0.187062	-1.522436
C	0.0	0.0	0.0
Cl	-1.627286	-0.932402	-2.115457
H	1.096564	0.0	0.0
H	-0.441658	0.947959	0.315771
C	0.011284	1.132662	-2.172581
N	0.082114	2.195115	-2.669294
N	1.050165	-0.988609	-2.0212
H	0.86817	-1.948535	-1.742391
H	1.864826	-0.670893	-1.439411
C	-0.507732	-1.182604	0.802308
H	-1.594793	-1.299153	0.758939
H	-0.209589	-1.06321	1.847128
H	-0.051051	-2.109484	0.445975
F	2.719698	0.0	0.0
