15

C	-0.552803	0.00758	-1.408911
C	0.0	0.0	0.0
Cl	0.250924	1.391206	-2.357498
H	1.09195	0.0	0.0
H	-0.344768	-0.940777	0.448889
C	-0.168158	-1.206929	-2.14013
N	0.077942	-2.194547	-2.725312
N	-1.981263	0.122403	-1.467669
H	-2.259717	0.95052	-0.955084
H	-2.286894	0.222618	-2.429465
C	-0.470651	1.182904	0.837501
H	0.113525	1.186797	1.760378
H	-1.534066	1.160213	1.110587
H	-0.25503	2.12528	0.327273
F	2.64817	0.0	0.0
