14
Coordinates from ORCA-job run
  C   -0.42960721329870      0.27534404635603      0.61587821395615
  C   0.49726771011514     -0.53409009580663     -0.28898665705790
  Br  -0.94697917484092     -0.85976941541352      2.11322570288600
  H   0.02119544479564     -1.46000784829498     -0.61848956998325
  H   0.14393011543643      1.09648518501467      1.04810316509482
  C   -1.65856762682561      0.76861240663940     -0.12512132933778
  H   -2.22172008570867     -0.06602779119945     -0.54760047378823
  H   -1.36650097110066      1.44588743517166     -0.93171480398719
  H   -2.31234597903274      1.31042109394425      0.55849948123901
  N   1.73728893012566     -0.95497224103837      0.47314636989900
  O   2.36426573135976     -0.05556257636477      1.01889261483818
  O   2.00059630194731     -2.15070375979470      0.47371424386572
  C   0.92821680794784      0.26340012405403     -1.43475469091153
  N   1.24396000907952      0.92198343673236     -2.35479226671300
