14
Coordinates from ORCA-job run
  C   -0.59465909850675      0.72653369831942     -0.21849550505275
  C   0.78641691645922      0.15004470459045     -0.52467690588423
  Br  -0.37775542860107      2.62583111316203      0.15199034554792
  H   1.25295846040660      0.69902024517956     -1.34979300539731
  H   -1.17576785052943      0.67159171627540     -1.13829161361894
  C   -1.28676304164879      0.02245188785615      0.93006267281352
  H   -0.73864826486334      0.15507462098771      1.86492811402545
  H   -2.29417077981049      0.41968234098322      1.06294109468763
  H   -1.36956562288053     -1.04772266528874      0.71510275141571
  N   0.60639285497444     -1.25990232584885     -1.06575705779650
  O   1.16643039326371     -2.19075717545899     -0.50331796883599
  O   -0.09233432591736     -1.32861101929274     -2.07292941317413
  C   1.69587654971599      0.15080953543640      0.61321233150884
  N   2.42258923793778      0.20795332309897      1.53402415976077
