14
Coordinates from ORCA-job run
  C   -0.57306399691036      0.72506525969432     -0.26491234826004
  C   0.80927956300553      0.12401922823329     -0.54631140082615
  Br  -0.32735307909162      2.63356515411941      0.03506076206117
  H   1.26590769028978      0.62031859158118     -1.40547064058886
  H   -1.15386536017913      0.64407483918724     -1.18485656576580
  C   -1.28038806977546      0.07650548532830      0.90776520875377
  H   -2.25544171381376      0.54078281936700      1.05807303211202
  H   -0.69922546603620      0.18498180065474      1.82511551034188
  H   -1.43596958656028     -0.98860961313361      0.71482786965702
  N   0.58544146426491     -1.31407393829099     -0.98262451627060
  O   0.07014456590224     -1.43352934460323     -2.08925457472674
  O   0.87965272851391     -2.21467377835361     -0.20681271983016
  C   1.70012993734293      0.16797266040103      0.60551705641081
  N   2.41475132304752      0.23360083581491      1.53488332693170
