14
Coordinates from ORCA-job run
  C   -0.37839251831303      0.75593538629303      0.22792809467999
  C   0.68359019236828     -0.03772227156303     -0.54750984323698
  Br  0.21292070515896      1.08149790120458      2.05327358398067
  H   0.29914461870960     -0.21952034985990     -1.55603184652761
  H   -0.41268658247129      1.74260527904486     -0.24042780842555
  C   -1.75500881003918      0.11540368103761      0.21770912990633
  H   -1.76819529040602     -0.81950466804315      0.77619105668071
  H   -2.06485171037992     -0.09265671334780     -0.81031304341762
  H   -2.47442111549212      0.79919663431606      0.66939460928276
  N   0.87806267448706     -1.41486279326296      0.04621848457377
  O   1.83013114282170     -1.59032403676114      0.79489134453037
  O   0.02225502155827     -2.23814704674754     -0.26632141496850
  C   1.96141629931147      0.65855133964771     -0.62530567108865
  N   2.96403537268624      1.25854765804165     -0.74069667596968
