14
Coordinates from ORCA-job run
  C   -0.64902875724048      0.58395712041276     -0.40210313379722
  C   0.80369193770148      0.11799765589238     -0.55644904680287
  Br  -0.64607459752398      2.53030984466704     -0.47379432743281
  H   1.22037660591055      0.49465011925631     -1.49316807096437
  H   -1.18939719600930      0.25771520166953     -1.29191088150392
  C   -1.30534975490938      0.08733619519865      0.87012180654167
  H   -0.76889361121647      0.44083488105469      1.75232792940991
  H   -2.33389159314510      0.44544027241280      0.92292999366172
  H   -1.32378271399364     -1.00598475547957      0.88539661400538
  N   0.76891412356950     -1.39343911780770     -0.70867303314527
  O   0.30204970002766     -1.78481304943027     -1.77321907526792
  O   1.14957399022372     -2.08579928991869      0.22678444787996
  C   1.64929383290094      0.49139909448457      0.56944395796454
  N   2.32351803370449      0.82139582758752      1.47231281945119
