17

C	0.0	0.0	0.0
C	-0.523674	-0.130744	-1.421432
Br	2.032064	0.0	0.0
H	-1.611289	-0.227698	-1.209499
N	-0.51909	1.20225	0.561237
H	-0.288447	1.236292	1.549831
H	-1.554409	1.027907	0.495181
N	-0.365743	-1.180737	0.700298
H	-0.100531	-1.984887	0.144214
H	0.065914	-1.218186	1.613931
N	-0.053258	-1.364269	-2.034659
H	0.796228	-1.13586	-2.540189
H	-0.744548	-1.668479	-2.709401
N	-0.203342	1.057084	-2.212713
H	-1.023456	1.277712	-2.769753
H	-0.096169	1.82504	-1.55539
H	-3.188127	0.0	0.0
