17

C	0.0	0.0	0.0
C	-0.372674	0.251279	-1.531658
Br	2.005156	0.0	0.0
H	0.540625	0.561576	-2.04321
N	-0.404505	1.038367	0.910309
H	-0.282499	1.928918	0.438929
H	-1.421056	0.903167	0.979878
N	-0.462087	-1.281495	0.44093
H	-0.276468	-1.323452	1.439043
H	-1.487732	-1.204064	0.344234
N	-1.315878	1.351371	-1.615378
H	-2.162393	1.03957	-1.109276
H	-1.564876	1.433224	-2.597082
N	-0.859603	-0.934958	-2.23616
H	-0.238482	-1.710188	-2.026749
H	-1.756041	-1.171269	-1.815763
H	-3.08622	0.0	0.0
