15

C	0.0	0.0	0.0
C	-0.475838	0.096791	-1.446642
Br	1.945364	0.0	0.0
H	-0.01637	-0.672955	-2.069172
H	-1.55906	-0.081098	-1.342002
N	-0.571026	0.944783	0.866684
H	-0.460688	1.835422	0.385663
H	-1.599799	0.708453	0.798525
N	-0.343731	-1.403223	0.533898
O	-0.448714	-1.543959	1.742622
O	-0.42449	-2.303132	-0.298089
N	-0.240447	1.460904	-1.921149
H	0.536685	1.484312	-2.566652
H	-1.068683	1.794795	-2.395161
H	-3.033831	0.0	0.0
