14

C	0.0	0.0	0.0
C	-0.50018	-0.721798	-1.245832
Cl	1.800403	0.0	0.0
H	-1.585014	-0.582406	-1.262344
H	-0.298065	-0.561538	0.887356
H	-0.069389	-0.226451	-2.123665
C	-0.507072	1.423277	0.077073
H	-1.599326	1.38341	0.108136
H	-0.184698	1.986456	-0.802992
H	-0.131444	1.929618	0.969166
N	-0.217434	-2.1512	-1.321574
H	0.749275	-2.319637	-1.067302
H	-0.802759	-2.62697	-0.645534
Cl	-3.837208	0.0	0.0
