14

C	0.0	0.0	0.0
C	-0.399399	0.34349	-1.449205
Cl	1.79782	0.0	0.0
H	0.208362	-0.28099	-2.112564
H	-0.291191	-1.029928	0.221592
H	-0.089159	1.3801	-1.632115
C	-0.574109	0.940875	1.031906
H	-0.24879	0.675622	2.040108
H	-1.666263	0.871795	0.989535
H	-0.266983	1.969458	0.82327
N	-1.782742	0.187492	-1.826276
H	-2.429252	0.717672	-1.251213
H	-2.088646	-0.769658	-1.701637
Cl	-4.450778	0.0	0.0
