15

C	-0.540206	-0.013271	-1.430801
C	0.0	0.0	0.0
Cl	-0.006852	-1.5005	-2.271119
H	1.09112	0.0	0.0
H	-1.630622	-0.032592	-1.424812
C	-0.106869	1.151293	-2.200059
N	0.218709	2.076391	-2.845458
C	-0.528458	-1.140361	0.853064
H	-1.623157	-1.141704	0.876309
H	-0.166608	-2.090548	0.464493
H	-0.142426	-1.021364	1.866797
N	-0.48099	1.2621	0.653643
O	-1.595742	1.681956	0.320083
O	0.218161	1.750469	1.53102
Cl	3.245455	0.0	0.0
