15

C	-0.531266	-0.022425	-1.434762
C	0.0	0.0	0.0
Cl	0.005632	-1.504973	-2.276817
H	1.091022	0.0	0.0
H	-1.621695	-0.043253	-1.431136
C	-0.10521	1.147746	-2.201265
N	0.212008	2.075484	-2.849172
C	-0.533097	-1.131149	0.859586
H	-0.165758	-2.081786	0.474351
H	-1.628247	-1.138401	0.873882
H	-0.153288	-1.010556	1.875266
N	-0.463309	1.282597	0.623679
O	0.207795	1.74436	1.537431
O	-1.52994	1.759367	0.218369
Cl	3.310823	0.0	0.0
