15

C	-0.458173	-0.047417	-1.45001
C	0.0	0.0	0.0
Cl	-0.043016	1.449852	-2.328777
H	1.090837	0.0	0.0
H	0.137368	-0.835028	-1.918681
C	-1.872978	-0.364194	-1.644525
N	-2.985344	-0.688235	-1.833242
C	-0.48442	-1.205322	0.789611
H	-0.052131	-1.161959	1.790937
H	-1.574617	-1.240816	0.855532
H	-0.118081	-2.117431	0.313403
N	-0.505964	1.226876	0.678279
O	0.230038	1.761943	1.50123
O	-1.654845	1.586372	0.406211
Cl	3.300793	0.0	0.0
