15

C	-0.457039	-0.0236	-1.452557
C	0.0	0.0	0.0
Cl	0.029865	1.46247	-2.313771
H	1.090818	0.0	0.0
H	0.097459	-0.839652	-1.925589
C	-1.888002	-0.259891	-1.650917
N	-3.019799	-0.512566	-1.839418
C	-0.521528	-1.194269	0.78112
H	-0.097496	-1.166554	1.786604
H	-1.612944	-1.192996	0.840209
H	-0.181474	-2.117118	0.305526
N	-0.495608	1.239818	0.674009
O	-1.677849	1.537958	0.483138
O	0.279572	1.847088	1.406832
Cl	3.324226	0.0	0.0
