15

C	-0.53852	-0.032343	-1.432894
C	0.0	0.0	0.0
Cl	0.02167	-1.509314	-2.269175
H	1.090931	0.0	0.0
H	-1.628721	-0.069052	-1.425402
C	-0.129023	1.141768	-2.200895
N	0.184201	2.073664	-2.842633
C	-0.530811	-1.129526	0.864012
H	-0.156873	-2.080558	0.487013
H	-0.156897	-1.001603	1.88135
H	-1.625279	-1.141908	0.873307
N	-0.473993	1.284512	0.608203
O	-1.597093	1.687394	0.281516
O	0.251414	1.822299	1.43374
Cl	3.30615	0.0	0.0
