15

C	-0.410885	-0.002047	-1.464061
C	0.0	0.0	0.0
Cl	-2.192576	0.206033	-1.667886
H	1.095234	0.0	0.0
H	0.053863	0.849084	-1.960457
C	-0.019473	-1.241291	-2.125707
N	0.254979	-2.235302	-2.687621
C	-0.537692	-1.142421	0.825871
H	-1.627895	-1.135895	0.876919
H	-0.196709	-2.080967	0.384414
H	-0.135595	-1.079556	1.835308
N	-0.38635	1.331891	0.567927
O	-0.194141	2.318878	-0.139527
O	-0.834776	1.367505	1.712879
Cl	3.22221	0.0	0.0
