16

C	0.0	0.0	0.0
C	-0.40679	0.011191	-1.527725
Cl	1.791208	0.0	0.0
H	0.268925	0.758214	-1.965081
C	-0.559755	1.217988	0.708639
H	-0.275498	2.122882	0.163396
H	-1.652351	1.105987	0.721174
H	-0.171941	1.27561	1.727764
C	-0.40882	-1.234646	0.669723
N	-0.645475	-2.250668	1.210895
N	-1.762127	0.343756	-1.856662
H	-2.479381	0.03052	-1.118251
H	-1.854552	1.354127	-1.860984
C	-0.017734	-1.27926	-2.131278
N	0.302881	-2.295352	-2.624558
H	-3.465171	0.0	0.0
