16

C	0.0	0.0	0.0
C	-0.392161	-0.025881	-1.512636
Cl	1.791401	0.0	0.0
H	0.345553	0.632339	-1.996776
C	-0.533686	1.244916	0.685292
H	-0.124613	1.313344	1.696179
H	-1.625342	1.156609	0.720815
H	-0.253289	2.128191	0.109225
C	-0.42559	-1.21275	0.701654
N	-0.667318	-2.218772	1.259647
N	-1.721688	0.480699	-1.739934
H	-2.076225	0.104365	-2.612769
H	-2.450234	0.205619	-0.968832
C	-0.127574	-1.374814	-2.073781
N	0.059503	-2.374016	-2.665791
H	-3.4183	0.0	0.0
