16

C	0.0	0.0	0.0
C	-0.694712	0.016794	-1.355935
Cl	1.783611	0.0	0.0
H	-1.797746	0.142821	-0.993481
C	-0.464077	1.205136	0.812332
H	-0.133899	2.12037	0.315073
H	-1.560491	1.155569	0.849798
H	-0.040774	1.17173	1.8179
C	-0.383326	-1.244466	0.687844
N	-0.583375	-2.253927	1.255297
N	-0.532867	-1.25508	-2.067048
H	-1.33708	-1.82107	-1.801183
H	-0.604916	-1.092485	-3.06472
C	-0.272173	1.151717	-2.148761
N	0.02472	2.078832	-2.81141
H	-3.038997	0.0	0.0
