16

C	0.0	0.0	0.0
C	-0.648879	0.163709	-1.358535
Cl	1.796584	0.0	0.0
H	-1.771811	0.109241	-1.019687
C	-0.47508	1.098157	0.940383
H	-0.084786	0.932124	1.946162
H	-0.131824	2.068351	0.574003
H	-1.574459	1.040861	0.934436
C	-0.373254	-1.318804	0.537958
N	-0.581154	-2.372379	1.013645
N	-0.341399	-0.939796	-2.24831
H	0.534819	-0.78191	-2.733295
H	-1.082905	-1.039254	-2.930296
C	-0.367892	1.479616	-1.926629
N	-0.151922	2.510706	-2.453578
H	-3.024149	0.0	0.0
