16

C	0.0	0.0	0.0
C	-0.406184	-0.028545	-1.50774
Cl	1.789818	0.0	0.0
H	0.333349	0.619395	-2.000997
C	-0.535069	1.243296	0.687014
H	-0.265535	2.126968	0.106932
H	-0.114542	1.316602	1.692761
H	-1.625932	1.155103	0.735057
C	-0.412586	-1.208221	0.71681
N	-0.661703	-2.175768	1.335254
N	-1.729785	0.502215	-1.714844
H	-2.082033	0.195448	-2.617755
H	-2.468756	0.194855	-0.971664
C	-0.163286	-1.385825	-2.052769
N	-0.017619	-2.453094	-2.525839
H	-3.478443	0.0	0.0
