16

C	0.0	0.0	0.0
C	-0.329236	0.048458	-1.511055
Cl	1.790068	0.0	0.0
H	0.348461	-0.685212	-1.971861
C	-0.283181	1.313209	0.766223
H	0.202563	2.141504	0.25248
H	-1.356259	1.472852	0.833527
H	0.138257	1.220015	1.772943
C	-0.760087	-1.071582	0.669959
N	-0.779517	-1.994688	1.4267
N	-0.00281	1.353382	-2.111482
H	-0.772933	1.999244	-1.944525
H	0.023164	1.213872	-3.115942
C	-1.718163	-0.355139	-1.81708
N	-2.53698	-0.660368	-2.625548
H	-2.132304	0.0	0.0
