16

C	0.0	0.0	0.0
C	-0.666583	0.050937	-1.37166
Cl	1.783335	0.0	0.0
H	-1.767691	0.173504	-1.046587
C	-0.47591	1.182244	0.83522
H	-0.143303	2.111491	0.365609
H	-0.065328	1.124437	1.844983
H	-1.573367	1.126084	0.856667
C	-0.387146	-1.263598	0.647538
N	-0.590978	-2.289818	1.182486
N	-0.468225	-1.198382	-2.11421
H	-1.238381	-1.80553	-1.840651
H	-0.580931	-1.013596	-3.10433
C	-0.214667	1.204307	-2.125735
N	0.106201	2.145049	-2.755917
H	-3.059008	0.0	0.0
