15

C	0.0	0.0	0.0
C	-0.438027	-0.033074	-1.496624
F	1.385247	0.0	0.0
H	0.416007	-0.53146	-1.976298
H	-0.370338	0.87531	0.53522
C	-0.392201	-1.228519	0.712476
N	-0.554526	-2.246279	1.274778
C	-0.529883	1.400987	-2.00248
H	0.373756	1.971094	-1.758257
H	-0.667501	1.394181	-3.085349
H	-1.4003	1.881987	-1.548507
N	-1.646509	-0.745769	-1.83758
H	-1.524336	-1.729785	-1.613971
H	-2.415667	-0.415985	-1.195998
H	-3.363784	0.0	0.0
