15

C	0.0	0.0	0.0
C	-0.429254	0.044315	-1.457651
F	1.390491	0.0	0.0
H	-1.520938	0.151585	-1.390943
H	-0.371897	0.887027	0.512505
C	-0.412909	-1.211128	0.741382
N	-0.49158	-2.150452	1.425961
C	-0.042282	-1.234396	-2.192661
H	1.034102	-1.423229	-2.110986
H	-0.579541	-2.096415	-1.790477
H	-0.291803	-1.142941	-3.255189
N	0.16537	1.261572	-2.021885
H	-0.255869	1.437767	-2.925374
H	1.158604	1.103757	-2.173678
H	-2.86484	0.0	0.0
