15

C	0.0	0.0	0.0
C	-0.460702	-0.018478	-1.45862
F	1.388904	0.0	0.0
H	-1.556356	-0.028044	-1.36919
H	-0.373646	0.894235	0.502163
C	-0.400007	-1.189291	0.775436
N	-0.488085	-2.121936	1.484336
C	0.048675	-1.253881	-2.184506
H	-0.261781	-1.19849	-3.22955
H	1.141598	-1.317848	-2.15107
H	-0.365111	-2.161863	-1.737996
N	-0.040501	1.197276	-2.156032
H	0.921624	1.403738	-1.907205
H	-0.615262	1.962753	-1.817455
H	-2.903204	0.0	0.0
