15

C	0.0	0.0	0.0
C	-0.476315	-0.047563	-1.465952
F	1.386677	0.0	0.0
H	0.41224	-0.404849	-2.005745
H	-0.353947	0.892359	0.518221
C	-0.376933	-1.193463	0.782422
N	-0.507005	-2.154057	1.444397
C	-0.811372	1.370794	-1.936017
H	-1.691414	1.719411	-1.389369
H	-1.053007	1.357074	-3.004308
H	0.0299	2.060128	-1.787393
N	-1.542744	-1.018118	-1.632397
H	-2.345562	-0.693341	-1.032647
H	-1.86335	-0.965353	-2.5962
H	-3.365518	0.0	0.0
