15

C	0.0	0.0	0.0
C	-0.420671	-0.0308	-1.476336
F	1.386861	0.0	0.0
H	-1.51509	-0.0442	-1.434138
H	-0.379225	0.899665	0.484789
C	-0.419329	-1.191436	0.761061
N	-0.465122	-2.200389	1.365328
C	0.129521	-1.26206	-2.176587
H	-0.266687	-2.175845	-1.727062
H	1.222162	-1.29781	-2.121991
H	-0.159925	-1.229797	-3.228352
N	0.028886	1.179491	-2.168876
H	-0.528123	1.95791	-1.828322
H	0.993427	1.363247	-1.907788
H	-2.808574	0.0	0.0
