15

C	0.0	0.0	0.0
C	-0.42861	-0.141932	-1.498398
F	1.393253	0.0	0.0
H	0.487181	-0.53009	-1.96491
H	-0.365434	0.913103	0.468454
C	-0.387898	-1.170235	0.804648
N	-0.512093	-2.148415	1.442834
C	-0.737647	1.242887	-2.055074
H	0.081537	1.945065	-1.859847
H	-0.898541	1.17253	-3.132911
H	-1.655817	1.602499	-1.584503
N	-1.527787	-1.030713	-1.812452
H	-1.301723	-1.9676	-1.488981
H	-2.319685	-0.702841	-1.208161
H	-3.110332	0.0	0.0
