15

C	0.0	0.0	0.0
C	-0.191955	0.084296	-1.55123
F	1.390584	0.0	0.0
H	0.420139	0.975246	-1.789119
H	-0.375314	0.881853	0.513011
C	-0.501241	-1.217606	0.639019
N	-0.508801	-2.243916	1.224696
C	-1.527307	0.283378	-2.23879
H	-2.169542	-0.57953	-2.093014
H	-1.312685	0.435423	-3.314005
H	-2.063797	1.13873	-1.841894
N	0.414115	-1.136307	-2.105167
H	0.341025	-1.099267	-3.115488
H	1.396542	-1.165164	-1.863341
H	-2.47668	0.0	0.0
