15

C	0.0	0.0	0.0
C	-0.439992	-0.09753	-1.494317
F	1.381789	0.0	0.0
H	0.426975	-0.588722	-1.959075
H	-0.372748	0.896418	0.496788
C	-0.390106	-1.198958	0.763282
N	-0.528898	-2.20793	1.34744
C	-0.58665	1.315205	-2.045437
H	-1.474837	1.770587	-1.60015
H	-0.729947	1.269687	-3.127034
H	0.292444	1.929545	-1.821605
N	-1.628033	-0.858042	-1.806679
H	-2.402856	-0.509916	-1.183817
H	-1.483508	-1.825826	-1.530641
H	-3.325399	0.0	0.0
