14

C	0.0	0.0	0.0
C	-0.487585	-0.514966	-1.395173
Cl	1.784207	0.0	0.0
H	0.408864	-0.748818	-1.982642
H	-0.327966	1.029784	0.1258
C	-0.443915	-0.853787	1.174434
H	-0.058681	-0.416978	2.098399
H	-0.04843	-1.867164	1.077909
H	-1.533258	-0.870906	1.198427
C	-1.173776	0.52667	-2.165543
N	-1.521872	1.378013	-2.895347
C	-1.226397	-1.781991	-1.343375
N	-1.60602	-2.892652	-1.379121
Cl	-3.391337	0.0	0.0
