14

C	0.0	0.0	0.0
C	-0.489367	-0.454834	-1.414872
Cl	1.784381	0.0	0.0
H	0.406154	-0.665411	-2.013163
H	-0.327531	1.023511	0.169493
C	-0.443245	-0.903025	1.137023
H	-0.055398	-0.507748	2.078398
H	-1.532458	-0.9203	1.162167
H	-0.049238	-1.911945	0.994791
C	-1.173168	0.621048	-2.139068
N	-1.517266	1.508123	-2.82741
C	-1.232087	-1.720283	-1.416461
N	-1.611433	-2.828372	-1.503704
Cl	-3.386456	0.0	0.0
