14

C	0.0	0.0	0.0
C	-0.491788	-0.375048	-1.436673
Cl	1.78417	0.0	0.0
H	0.402464	-0.541561	-2.050133
H	-0.327202	1.013277	0.225855
C	-0.445018	-0.959829	1.088679
H	-0.055426	-1.961897	0.894795
H	-0.053917	-0.615752	2.048655
H	-1.534853	-0.97398	1.114598
C	-1.188878	0.734908	-2.094703
N	-1.53954	1.655308	-2.734026
C	-1.221933	-1.645718	-1.507942
N	-1.598574	-2.748658	-1.651399
Cl	-3.393024	0.0	0.0
