14

C	0.0	0.0	0.0
C	-0.592331	-0.332204	-1.374914
Cl	1.780485	0.0	0.0
H	-1.695111	-0.269714	-1.201846
H	-0.318318	1.015205	0.241744
C	-0.478841	-0.976139	1.059651
H	-0.085942	-1.975554	0.860638
H	-1.569983	-0.987529	1.061052
H	-0.11778	-0.654148	2.038186
C	-0.245126	-1.68412	-1.81356
N	0.016126	-2.772399	-2.168699
C	-0.208065	0.645669	-2.393244
N	0.070377	1.446306	-3.206903
Cl	-3.588438	0.0	0.0
