14

C	0.0	0.0	0.0
C	-0.489841	-0.492412	-1.402421
Cl	1.784366	0.0	0.0
H	0.405278	-0.717837	-1.995182
H	-0.325595	1.028911	0.142349
C	-0.447481	-0.868917	1.160685
H	-0.071423	-0.440593	2.092521
H	-0.04703	-1.879672	1.05713
H	-1.53661	-0.891765	1.178415
C	-1.168669	0.568357	-2.152468
N	-1.494751	1.446627	-2.860786
C	-1.232517	-1.755679	-1.370825
N	-1.612111	-2.865215	-1.423002
Cl	-3.39159	0.0	0.0
