15

C	-0.526658	-0.007851	-1.424454
C	0.0	0.0	0.0
F	-0.044356	1.063536	-2.107508
H	1.09429	0.0	0.0
H	-0.324996	-0.912614	0.503873
N	0.009832	-1.260047	-2.111618
O	0.586346	-1.129082	-3.179847
O	-0.253581	-2.318623	-1.546634
C	-2.031909	-0.040678	-1.569439
H	-2.448057	0.864939	-1.126542
H	-2.290466	-0.069333	-2.630225
H	-2.442946	-0.916736	-1.06896
C	-0.523535	1.158363	0.711273
N	-0.988075	2.079555	1.271789
Cl	3.303556	0.0	0.0
