15

C	-0.494541	-0.186339	-1.426056
C	0.0	0.0	0.0
F	-1.767126	-0.701354	-1.423961
H	1.090991	0.0	0.0
H	-0.300996	-0.903326	0.541333
N	-0.592193	1.168356	-2.118293
O	0.452712	1.805349	-2.170647
O	-1.678869	1.505636	-2.577144
C	0.424767	-1.061594	-2.237622
H	0.449096	-2.053961	-1.783769
H	1.434715	-0.650585	-2.214486
H	0.050297	-1.142976	-3.26071
C	-0.580118	1.155432	0.668133
N	-1.074004	2.073647	1.207884
Cl	3.329774	0.0	0.0
