15

C	-0.493823	-0.159058	-1.428911
C	0.0	0.0	0.0
F	-1.791721	-0.608176	-1.431774
H	1.090922	0.0	0.0
H	-0.300917	-0.912055	0.52615
N	-0.525217	1.206134	-2.106925
O	0.567434	1.703336	-2.34266
O	-1.619722	1.698553	-2.351585
C	0.379253	-1.0818	-2.236587
H	0.324197	-2.077227	-1.79508
H	0.021908	-1.129975	-3.267662
H	1.412522	-0.739346	-2.19494
C	-0.578034	1.144969	0.687936
N	-1.064879	2.062606	1.234866
Cl	3.328224	0.0	0.0
