15

C	-0.53126	-0.022404	-1.424688
C	0.0	0.0	0.0
F	-0.238169	1.180246	-1.999344
H	1.093043	0.0	0.0
H	-0.311144	0.961993	0.420711
N	0.190697	-1.088367	-2.2379
O	0.613119	-0.777662	-3.342617
O	0.211474	-2.203585	-1.728538
C	-2.010684	-0.290456	-1.577356
H	-2.567441	0.468511	-1.024448
H	-2.276061	-0.227192	-2.634919
H	-2.2634	-1.276079	-1.188969
C	-0.541956	-1.061659	0.8358
N	-1.028597	-1.8791	1.523658
Cl	3.307993	0.0	0.0
