15

C	-0.530754	-0.002856	-1.426461
C	0.0	0.0	0.0
F	-0.234245	1.205848	-1.985597
H	1.093583	0.0	0.0
H	-0.31215	0.956063	0.433377
N	0.189736	-1.063311	-2.248481
O	0.14964	-2.194731	-1.777072
O	0.675844	-0.731265	-3.319715
C	-2.010771	-0.265671	-1.581719
H	-2.267161	-1.253051	-1.200456
H	-2.27643	-0.195111	-2.639055
H	-2.5648	0.49245	-1.024633
C	-0.53979	-1.074339	0.820926
N	-0.994595	-1.904377	1.515642
Cl	3.2957	0.0	0.0
