15
Coordinates from ORCA-job run
  C   0.67594020369510      0.44070095055222      0.21681140542851
  C   -0.70489676162923     -0.09197804680768     -0.22258949244595
  F   0.73740103978472      0.64326883511970      1.54799124334605
  H   -0.78566647732486     -0.02752288710399     -1.30608793576570
  N   1.77471959844874     -0.54770530352279     -0.18378523586056
  O   1.69268692861054     -0.91773515017201     -1.34908432663503
  O   2.60237260127201     -0.84695407375234      0.65564026361693
  C   0.93956087805605      1.69708922048732     -0.49045945708248
  N   1.09337969254557      2.70794360430103     -1.06951788483304
  N   -1.78946112392122      0.56137107084313      0.41468209185432
  H   -2.16857036472670      1.32748941330433     -0.11904631079987
  H   -1.59765964268608      0.82355897774789      1.37070225757034
  N   -0.78685224141951     -1.57165682005297      0.09074566021654
  O   -0.28194374617119     -1.93302371471743      1.15192236722656
  O   -1.40101058453393     -2.26384607622641     -0.70892464583663
