15
Coordinates from ORCA-job run
  C   0.67892475679774      0.66686990827051     -0.20631934965154
  C   -0.78975878778743      0.26360027109675      0.04936450785352
  F   0.95799664359789      1.79895250634141      0.48886346763326
  H   -1.40927766039778      0.82956440191429     -0.65285597771205
  N   1.64057466548189     -0.38546260625648      0.35449808376179
  O   1.23442054744461     -1.00219394918341      1.33368436138687
  O   2.74690239977937     -0.45132627502997     -0.15825871998257
  C   0.97544850556465      0.89123249983774     -1.62064331024157
  N   1.15825897343663      1.16173626037684     -2.74918357935288
  N   -1.21687610315646      0.50528592185210      1.36224217690843
  H   -0.76406980121468     -0.10562386195340      2.02719086473423
  H   -2.22075574213351      0.43974048682990      1.44444353793207
  N   -0.94911443125918     -1.19735021858936     -0.43277381914883
  O   -0.17453215512168     -1.58480799641530     -1.30305878811149
  O   -1.86914181103205     -1.83021734909162      0.06380654399076
