15
Coordinates from ORCA-job run
  C   0.60520678487558      0.67210810981739     -0.17520950148672
  C   -0.86496597176119      0.17844897113927     -0.04186848733259
  F   0.67071175806137      1.87042441047813      0.45700495695008
  H   -1.46424626937642      0.81942972516574     -0.69087337002741
  N   1.52359636229380     -0.29600958762286      0.56813224717902
  O   2.03635500642149     -1.17900410336083     -0.10600596440750
  O   1.60619355050838     -0.12207437628683      1.77599461608494
  C   1.06485468952253      0.80096356288178     -1.55344511811919
  N   1.39394680756102      0.97057559135809     -2.66902236254564
  N   -1.39963506612650      0.15361434863803      1.26764760713658
  H   -0.81450115824954     -0.34992207064419      1.92131445030837
  H   -1.57638666065458      1.08916592730082      1.60611169287049
  N   -0.92332550057507     -1.20375416456218     -0.64221554234322
  O   -0.72320912907464     -2.13475165322516      0.13041852585461
  O   -1.13459520342623     -1.27121469107719     -1.84898375012183
