15
Coordinates from ORCA-job run
  C   0.70769540739913      0.44649226720487      0.11904363020514
  C   -0.67330846126670     -0.11898570067605     -0.22404279930845
  F   0.83916440094336      0.51860417576296      1.46421707007189
  H   -0.69977832257126     -0.37642549021955     -1.28361536596170
  N   1.81868892354176     -0.46292652843876     -0.43337421490806
  O   1.79771795984984     -0.58301289984704     -1.64876087429699
  O   2.59430176024025     -0.94457802332842      0.37052818699238
  C   0.90216836934104      1.76273261607465     -0.48755089535960
  N   1.09064944191517      2.82046851487694     -0.96265450403465
  N   -1.66718876593962      0.81424099060448      0.12388828190280
  H   -2.56931801362255      0.56545896195396     -0.25635205658460
  H   -1.74524206253198      0.91868035928240      1.12753091974452
  N   -0.77730310995787     -1.46778576307316      0.52356390757880
  O   -1.60911613014054     -1.54844792355085      1.41766850376713
  O   -0.00913139720005     -2.34651555662644      0.14791021019142
