15
Coordinates from ORCA-job run
  C   0.60491586218221      0.76478723356370     -0.22825889615989
  C   -0.80988284145773      0.20285414291786      0.01980724447610
  F   0.58490334879433      2.07417451753421      0.09723259817478
  H   -1.49271407148030      0.91773526963994     -0.44356025998643
  N   1.56107584106436      0.05370445468311      0.73561466168349
  O   2.21614745327669      0.73798931494404      1.49752981725313
  O   1.54509692829108     -1.16633511043483      0.62123554452767
  C   1.16221227185724      0.60161057518083     -1.57079350975798
  N   1.67843702944791      0.53568765901262     -2.62457364178548
  N   -1.04265297346354      0.08809175603025      1.40594395813329
  H   -0.69632303076415     -0.79521991014451      1.76213648345239
  H   -2.02411280294004      0.17135189722502      1.62851955565611
  N   -1.03066320991699     -1.09395112552738     -0.77353431761538
  O   -1.05665648266659     -0.96764751128656     -1.99309348375960
  O   -1.19978332222448     -2.12383316333829     -0.13420575429219
