15
Coordinates from ORCA-job run
  C   0.66572438352238      0.44079224281141      0.24349567151973
  C   -0.69788779898707     -0.09265316242315     -0.24543204604961
  F   0.68621846791826      0.62175838660573      1.57902181224084
  H   -0.74651702186422     -0.01234975485916     -1.32981451239945
  N   1.78213240127643     -0.53460802238570     -0.14043391787427
  O   2.58361618714772     -0.84651991203820      0.71939223275392
  O   1.73792702839844     -0.88400248688179     -1.31407856553272
  C   0.94412796209894      1.71041568104556     -0.43383695989877
  N   1.11584218034417      2.73436016989417     -0.98418101812196
  N   -1.80501104512410      0.54448119601583      0.36878174206053
  H   -1.64469313279581      0.79137713020533      1.33462163780785
  H   -2.17315367774849      1.31660800497152     -0.16403710089553
  N   -0.77986806633055     -1.57777701615532      0.04258800954184
  O   -1.36553604122040     -2.26077395290991     -0.78584172699060
  O   -0.30292182663569     -1.95310850389634      1.11175474183820
