15
Coordinates from ORCA-job run
  C   0.50118016074629      0.57583083069224     -0.36104788735855
  C   -0.74508968979587     -0.04817512580094      0.31836962230967
  F   0.13111827906795      1.56439058227722     -1.20344444867169
  H   -1.15884441957035      0.68721759987155      1.00930114894286
  N   1.37704999991309      1.22751209767251      0.72887256390024
  O   1.95383099320425      2.25296160556180      0.41296040739856
  O   1.42179524207073      0.63857751815556      1.80202025654344
  C   1.34128671828070     -0.40889822123667     -1.04062964687912
  N   2.02847808420805     -1.21993265566563     -1.54241867373842
  N   -0.60211030126082     -1.31379112095718      0.94292512985433
  H   -0.19763323069637     -2.00072285193355      0.31849691621715
  H   -0.06363990327121     -1.24026368609761      1.79383820171863
  N   -1.75723621494035     -0.19541942671148     -0.78911519671603
  O   -1.49448293132101     -1.05980030874422     -1.62105560211643
  O   -2.73570278663509      0.53951316291639     -0.76807279140464
