15
Coordinates from ORCA-job run
  C   0.65540215420437      0.68654837757637     -0.21177250337396
  C   -0.79954687152245      0.23271933353345      0.03619586283035
  F   0.87981940831555      1.84628843894527      0.45751950986418
  H   -1.43090083724628      0.77005382917199     -0.67795594453530
  N   1.65157849121507     -0.31111133169807      0.38627051412247
  O   2.77409127936335     -0.32103548004327     -0.09466373412304
  O   1.25096837868938     -0.94268794078953      1.35810793185635
  C   0.96149056931248      0.88891359314146     -1.62744675530778
  N   1.15462767577810      1.14614141120176     -2.75737003653437
  N   -1.24757471354559      0.47533501526336      1.34194012914842
  H   -2.25028097517455      0.38708904170708      1.41482999894385
  H   -0.78646055608616     -0.11573078370767      2.01882189905949
  N   -0.90322697366004     -1.23773331634390     -0.42836079228802
  O   -0.09695991588479     -1.61481953298267     -1.27404544225501
  O   -1.81502711375844     -1.89097065497564      0.05692936259235
