15
Coordinates from ORCA-job run
  C   0.61232003010488      0.62167717728694     -0.19338527543638
  C   -0.84588191780625      0.13124209576925      0.02717263612146
  F   0.76960212750325      1.75453954363236      0.55650051349754
  H   -1.47362889096389      0.69559155610858     -0.66912466452483
  N   1.62366994725473     -0.36924073890148      0.37429798586479
  O   2.70177787815635     -0.46624084201293     -0.19015074690918
  O   1.27092092870219     -0.92665272698388      1.40868416456615
  C   0.93373892394436      0.92519611994681     -1.58385956139505
  N   1.12094345459952      1.26418105904183     -2.69333300682854
  N   -1.36879501124978      0.23122785542678      1.32219138372386
  H   -1.83106409726189      1.10609444718049      1.50666729914703
  H   -0.71793905453123     -0.02600101340834      2.04755320848513
  N   -0.91568285383803     -1.31168407386185     -0.49426334605869
  O   -1.84522956620626     -2.00461137939571     -0.12387325253469
  O   -0.03475189840794     -1.62331907982887     -1.29507733771861
