15
Coordinates from ORCA-job run
  C   0.66125088279942      0.40072996615152      0.19781509940145
  C   -0.69507031859351     -0.19027628739692     -0.25218046539935
  F   0.73330621700018      0.40130931829222      1.54689141998479
  H   -0.66312458894442     -0.34836203234802     -1.33051478166278
  N   1.81597071579282     -0.44116701997109     -0.35797703498545
  O   2.48939640046362     -1.06144999185519      0.44449089822714
  O   1.91138132930894     -0.40353272770270     -1.57630275170274
  C   0.80751487570389      1.75864588551543     -0.32455077309250
  N   0.86558097858080      2.85818988936715     -0.73514343916825
  N   -1.83520165042880      0.55388410964370      0.12973456998813
  H   -1.83718800103619      0.80585762258978      1.10821033999072
  H   -1.99579599406509      1.35436321462394     -0.46467234330119
  N   -0.75495996208056     -1.56811482894378      0.38344996752240
  O   -0.10803411973678     -2.44151810286884     -0.18790076590912
  O   -1.39602676476431     -1.67855901509718      1.41865006010673
