15
Coordinates from ORCA-job run
  C   0.74911375795247      0.39023210464606      0.04095848113004
  C   -0.70484773281039     -0.05785287233672     -0.13024917539262
  F   1.07441479781905      0.36020665818506      1.35424380576204
  H   -0.89999204686839     -0.23899964024366     -1.18796062347682
  N   1.69907518071890     -0.55115615412455     -0.72003549430226
  O   1.49816422736865     -0.58539995040966     -1.92428356995735
  O   2.54002879828348     -1.13899508218974     -0.06660478585762
  C   0.95410309430379      1.72949375833315     -0.50903702849949
  N   1.15238399740399      2.80324733784868     -0.94247372921162
  N   -1.56681108143817      0.91232084733636      0.41378088824945
  H   -1.49323506341164      0.95152366663175      1.42248835735347
  H   -2.52997190450782      0.74816008589606      0.15693463013258
  N   -0.80401633241247     -1.44595961782399      0.54297773987108
  O   -1.50294618627655     -1.53267958340316      1.54395958188061
  O   -0.16746350612490     -2.34614155834564      0.00630092231853
