15
Coordinates from ORCA-job run
  C   0.62410334750241      0.51418233224053     -0.42875432911542
  C   -0.68146414876188      0.12633960929299      0.26665282412893
  F   0.40807018541451      1.49404613903021     -1.33618211022716
  H   -1.10241906255605      1.03418629950105      0.70000726434587
  N   1.52104042389935      1.10245115289245      0.67220220843761
  O   1.10751705914821      2.15315227758597      1.14001845470441
  O   2.52828384122192      0.48361645441859      0.97755546334302
  C   1.29930555288973     -0.62395467808144     -1.04940169533758
  N   1.79351254914777     -1.55608075197084     -1.56690398071952
  N   -0.42213093181101     -0.86571928944929      1.23375150446584
  H   -0.22944222627138     -1.76514086358815      0.80801364144828
  H   -1.17836285014732     -0.95695645486693      1.89743880236004
  N   -1.65984590492891     -0.28068171395922     -0.83997739764221
  O   -2.36027055781667      0.60833492405992     -1.31102994543675
  O   -1.64789727693068     -1.46577543710583     -1.16339070475535
