15
Coordinates from ORCA-job run
  C   0.50130573238230      0.76090956542168     -0.08655309122202
  C   -0.57560622519194     -0.19635893613544      0.42621367497382
  F   0.08169339500329      2.04372043139194      0.00465320497219
  H   -0.82417275652566      0.10651012949767      1.44385013888099
  N   1.68974368904596      0.60065717524044      0.87481247608096
  O   2.71733663442551      0.11042708837116      0.43384565740493
  O   1.46271703620835      0.98625438081441      2.01219240747175
  C   0.93300386375275      0.45497409849870     -1.44917719986398
  N   1.22799477273732      0.20182767857500     -2.55813533751873
  N   -0.09863900451150     -1.52080130823001      0.35668412245702
  H   -0.64596762439659     -2.15260200753992      0.92412123226624
  H   -0.06567892622463     -1.85935270349133     -0.59805087574582
  N   -1.83690786217524      0.08775993146785     -0.39606220066671
  O   -2.60408075734268      0.93545411500627      0.04624745765912
  O   -1.96174196718722     -0.55637963888843     -1.43464166714977
