15
Coordinates from ORCA-job run
  C   0.70312631758087      0.35803589158873      0.13102279644366
  C   -0.72598734767007     -0.13952575332837     -0.18591020778004
  F   0.88981205233626      0.39093599074299      1.46844851571635
  H   -0.79944080510599     -0.31565562907751     -1.25930380222755
  N   1.73987655748112     -0.58699981753412     -0.48927898536544
  O   2.42505962761245     -1.24010597010169      0.27652152297656
  O   1.73787044439279     -0.58779828433268     -1.71180243399829
  C   0.90485010196307      1.68507574736189     -0.44944988540090
  N   1.00935832739826      2.76278190603974     -0.90622326004808
  N   -1.77123454865441      0.69245479626157      0.27703355462025
  H   -1.66581359395001      0.96407734062437      1.24438811029323
  H   -1.93099117143837      1.48903392923121     -0.32233885147264
  N   -0.82979313795119     -1.49916582518520      0.48150737828584
  O   -0.31747833058302     -2.43090140763374     -0.13273544825070
  O   -1.36921449341176     -1.54224291465718      1.57812099620775
