15
Coordinates from ORCA-job run
  C   0.57782043865677      0.70027822399534     -0.16824692402216
  C   -0.87058549502122      0.14655272750176     -0.03013048306581
  F   0.60259680622493      1.88827351619906      0.48594929663876
  H   -1.50078726099368      0.77511180417358     -0.66174834211179
  N   1.54167595955496     -0.24408085261970      0.54809318707519
  O   2.08230283487758     -1.09334997901307     -0.14717146702482
  O   1.62858601200079     -0.08986654968040      1.75830051143458
  C   1.01607142311432      0.87167909281682     -1.54872644295818
  N   1.31151060841161      1.05722930205821     -2.67117673377468
  N   -1.39036834127278      0.07738704116563      1.28387066127610
  H   -1.59484464059346      0.99938868325468      1.64320291593312
  H   -0.78139374938190     -0.41916471486769      1.92081901572210
  N   -0.88171940595158     -1.22642986998031     -0.65369538964877
  O   -1.11085541306477     -1.28341971381727     -1.85762054917007
  O   -0.63100977656159     -2.16058871118665      0.10028074369643
