15
Coordinates from ORCA-job run
  C   0.55533906243582      0.71143788630502     -0.18845211188863
  C   -0.87585776785168      0.11206630848238     -0.06027949582247
  F   0.51931319663300      1.93023942776686      0.40495330130481
  H   -1.51022088324455      0.68802176294098     -0.73644900743623
  N   1.52812577397663     -0.16274894621644      0.60090181447431
  O   2.08757269630286     -1.04838624484677     -0.03134779995524
  O   1.60412118564355      0.07651484297147      1.79803173277942
  C   1.03125224290140      0.83142147343623     -1.56188151727439
  N   1.36965656812110      0.99460934704258     -2.67551627114314
  N   -1.42661829428266      0.08698239005995      1.24224304763313
  H   -0.82394686878087     -0.36684188983297      1.91607299288816
  H   -1.66376776914280      1.01780679064279      1.55575256546567
  N   -0.82188251408629     -1.28777774155836     -0.61958356207190
  O   -0.60401273091608     -2.18423585726849      0.18808916369839
  O   -0.96807389770942     -1.39910954992523     -1.83253485265188
