15
Coordinates from ORCA-job run
  C   0.73559052327798      0.61665648182067     -0.16322922809777
  C   -0.77442744823365      0.30571496207509     -0.06066924368281
  F   0.99862275600008      1.77356049411599      0.49614815171595
  H   -1.27363703651827      0.85252512935042     -0.86640107881474
  N   1.56156731524021     -0.44738795462860      0.56416971480770
  O   2.70542729560934     -0.62419930541659      0.17511901226149
  O   1.01741949024618     -0.96033769447508      1.53647215561688
  C   1.20478583068249      0.73664044647748     -1.54298901126469
  N   1.53353359901616      0.92662681128650     -2.65476156895940
  N   -1.33709604044786      0.65799958722727      1.17309294214294
  H   -2.34563236277396      0.64485841729140      1.14090300024874
  H   -0.99507850342152      0.07953644011139      1.92691649966381
  N   -0.95782601782806     -1.17550344973491     -0.46598529915586
  O   -1.95435699179115     -1.73347797435887     -0.03164238423135
  O   -0.11889240905797     -1.65221239114214     -1.22514366225088
