15
Coordinates from ORCA-job run
  C   0.70070266840005      0.37919441501173     -0.44761078573861
  C   -0.67103840299667      0.23529692699455      0.21281227478619
  F   0.64443737541440      1.25705347236977     -1.47579472709569
  H   -0.99169674482668      1.23098627634619      0.52074998013338
  N   1.61619673825095      0.99230847247360      0.62397154590704
  O   1.30836471330311      2.12980197046554      0.94817617556771
  O   2.53592341434611      0.30904894934711      1.04630174707642
  C   1.25640085031631     -0.89870243578669     -0.88888542786343
  N   1.65004831943130     -1.94250982279124     -1.25798719423661
  N   -0.57817480647939     -0.66296896335606      1.29537848136968
  H   -0.48316452188227     -1.62189030249223      0.98082212520861
  H   -1.36725423776630     -0.58640365079307      1.92169281816873
  N   -1.64543346008802     -0.17440093163718     -0.89517054792834
  O   -1.75401507518679     -1.38088506615863     -1.10089905450020
  O   -2.22229683023609      0.73207069000663     -1.48555741085488
