15
Coordinates from ORCA-job run
  C   0.60633078729588      0.76204740632794     -0.22769574043839
  C   -0.80742361833953      0.20698753976111      0.03899395085967
  F   0.60355219614123      2.06536661484855      0.12182083684838
  H   -1.49348806186330      0.93332281059354     -0.40145675422244
  N   1.57670540836264      0.02631994411159      0.70271059160469
  O   2.26458090873419      0.69249440861061      1.45162073863760
  O   1.53896350375091     -1.19205803354953      0.57645248185681
  C   1.13591271676170      0.62116291541961     -1.58408076215136
  N   1.62575707224121      0.58875959108343     -2.65188106803260
  N   -1.01470124140241      0.07536625733463      1.42772761753690
  H   -0.66933143484173     -0.81547380885709      1.76542396093341
  H   -1.99102190952116      0.16346310640151      1.67000941606933
  N   -1.05421865855251     -1.07706239309660     -0.76736201964555
  O   -1.08928495456372     -0.93627222524542     -1.98492585516567
  O   -1.23333271420339     -2.11142413374386     -0.13835739469078
