15
Coordinates from ORCA-job run
  C   0.59486159219583      0.77789704387021     -0.20843444036062
  C   -0.81267971169957      0.19088467403417      0.02164825459666
  F   0.55544514727278      2.07909699836624      0.14696803047528
  H   -1.50337244103122      0.90730316063990     -0.42746641931291
  N   1.55863191001898      0.05847575586224      0.74197093908762
  O   1.55887219951757     -1.15883584568757      0.60114331745717
  O   2.20246859463275      0.73468919032421      1.52037559259284
  C   1.15824343727998      0.65334105175984     -1.55260671668453
  N   1.67977072248734      0.61619152305128     -2.60518153885738
  N   -1.04811383048348      0.04109723720462      1.40395480061687
  H   -0.69042929454029     -0.84487332778096      1.74171202674008
  H   -2.03123212376927      0.10583534701231      1.62533542244822
  N   -1.01346569995227     -1.08963475281904     -0.80217957538582
  O   -1.03897781174809     -0.93483835143769     -2.01848334607496
  O   -1.16902269018102     -2.13662970439975     -0.18775634733852
