14
Coordinates from ORCA-job run
  C   0.90578605105139      0.18298186431903      0.08573244806936
  C   -0.43303488995281      0.18481002783742     -0.17175359931700
  N   1.80967245671393     -0.87005676482816     -0.21583540084755
  H   1.42108472619055     -1.53751607980429     -0.86407508271274
  H   2.15782448656532     -1.34236848214515      0.60874798898937
  C   1.49869129140682      1.37500399152395      0.60895257461314
  N   1.92844688827105      2.36775844022029      1.07552887363105
  C   -1.15405591525759     -1.03660919813816     -0.65862187678330
  H   -0.68209266322117     -1.95067064771471     -0.29688586190358
  H   -2.18971844227495     -1.03168761734596     -0.30718214705658
  H   -1.18636999510635     -1.06567447423175     -1.75257810606898
  N   -1.19511090260795      1.34871313887572     -0.16623167910585
  H   -2.13695514322115      1.22389584932412      0.17376271447205
  H   -0.74316794855708      2.15141995210767      0.25143915402062
