14
Coordinates from ORCA-job run
  C   0.82421498556500     -0.04986244300949      0.09767202305131
  C   -0.50361951779009      0.10961974594504     -0.16435122421302
  N   1.38908783122302      0.64959472549465      1.21768811111127
  H   1.93850635402364      0.01975318143477      1.79004059534733
  H   2.00234359309450      1.39495409890502      0.90677158305995
  C   1.65093481031362     -0.87811351328374     -0.71806793488665
  N   2.37384915979941     -1.55959469408559     -1.35230244998280
  C   -1.20788331074747     -0.55716630476408     -1.30347647532234
  H   -1.61459842573658      0.19661273100954     -1.98293097319237
  H   -0.54011154133811     -1.21120927803304     -1.86264304293808
  H   -2.04532266329071     -1.15649882039839     -0.93178296599576
  N   -1.24783597991380      0.99319911226821      0.57834798633800
  H   -2.23010066002283      0.78446338823497      0.65890022131772
  H   -0.78946463517961      1.26524807028213      1.43813454630546
