14
Coordinates from ORCA-job run
  C   0.81103341746619     -0.06429502902737      0.13938655805448
  C   -0.50337637361991      0.10396237989642     -0.17884794818920
  N   1.28205823849068      0.45201742377699      1.39440494534686
  H   1.81518035944373     -0.25235763921244      1.89034497594466
  H   1.88972289605165      1.25115687735380      1.25134853157319
  C   1.71409736492043     -0.72610687893466     -0.74441130170370
  N   2.49844719009258     -1.27616024072889     -1.43116650610793
  C   -1.11365240315492     -0.38020661490096     -1.45604636393050
  H   -1.95031900423934     -1.05370696760646     -1.24390723914180
  H   -0.39059591691284     -0.91508201891782     -2.07034701924806
  H   -1.50493254647146      0.46590364796782     -2.02710839418749
  N   -1.32150014433376      0.83109141780591      0.64989278752697
  H   -2.30022570426970      0.59402866048065      0.62661699285847
  H   -0.92693737346332      0.96975498204701      1.57083998120405
