14
Coordinates from ORCA-job run
  C   0.84316361754567      0.11680619033393      0.06232995931622
  C   -0.46838744876507      0.12685679301323     -0.31321223253819
  N   1.45307475269572     -1.05064671827622      0.62328177708096
  H   1.85069456167131     -0.84387760522286      1.53160154804613
  H   2.20240599369302     -1.38453083189766      0.02864414015549
  C   1.61383815366762      1.30844175607246     -0.12210266140644
  N   2.22927132062497      2.30284944696712     -0.27188178165934
  C   -1.35406141335266     -1.06609143057405     -0.13920117800834
  H   -1.72856146022492     -1.39475027289498     -1.11268366104382
  H   -0.80363837503188     -1.87455341848585      0.33441222358250
  H   -2.22007897239841     -0.80737509264075      0.47936183903899
  N   -1.04358375260298      1.19665050840966     -0.96427371945488
  H   -0.53728702819531      2.07002654988981     -0.93299021825418
  H   -2.03684994932709      1.30019412530615     -0.83328603485509
