14
Coordinates from ORCA-job run
  C   0.88882753857612      0.16420752361951      0.18162389467041
  C   -0.44380021466679      0.16025257840543     -0.10839217133687
  N   1.83790410930670     -0.81433498172311     -0.22203121171789
  H   1.54112869677076     -1.32913471451745     -1.03667072016519
  H   2.09239359677607     -1.45254120473646      0.52109613293949
  C   1.42077680217894      1.28178403680696      0.89731885288498
  N   1.79318944403617      2.22010957535932      1.50440784989471
  C   -1.09525958338731     -0.97406704147608     -0.84257673762025
  H   -2.13291657819006     -1.07678328801900     -0.51660659329825
  H   -1.09492443795013     -0.80675229464084     -1.92543596943260
  H   -0.58475710758854     -1.91750272906690     -0.64597154726039
  N   -1.30864758794668      1.16894279741448      0.29737258610428
  H   -0.85742043590050      2.01407670653418      0.62079967382945
  H   -2.05549424201475      1.36274303603997     -0.35293403949187
