14
Coordinates from ORCA-job run
  C   0.82076096560091      0.03221447735781      0.11413082849212
  C   -0.51494434872372      0.03321807697054     -0.15639071267834
  N   1.25687226927518      0.47602911796671      1.40890074595382
  H   1.73262119361655      1.36894485061588      1.34271558386860
  H   1.90722629172897     -0.18810731833516      1.81145794386763
  C   1.77799406546655     -0.38362443765075     -0.85836609330272
  N   2.60717086275312     -0.72835229047387     -1.62187452467387
  C   -1.09429318712137     -0.40000778904924     -1.46590138461970
  H   -1.64005032089249      0.42839054612026     -1.92535067401385
  H   -0.32217376646456     -0.73818538738498     -2.15572903921287
  H   -1.80250477758936     -1.22079313173647     -1.31271685694081
  N   -1.40089018642366      0.53630509325580      0.76445646518658
  H   -2.33157248086907      0.15152728221539      0.73807131637005
  H   -0.99621658035704      0.63244091012809      1.68659640170338
