14
Coordinates from ORCA-job run
  C   0.67141996822206     -0.16818733901779      0.38337789069014
  C   -0.37446109336513      0.21038654580926     -0.40392778437901
  N   1.49731660367454      0.85418832499453      0.96144032729949
  H   1.63084495006891      0.68447657718950      1.95132817412642
  H   2.41393530651890      0.87059241963735      0.52813517166093
  C   0.96320251963372     -1.54397211233275      0.62315144475315
  N   1.23586089323282     -2.66574555180110      0.86081858727282
  C   -1.29556046967111     -0.75787254125256     -1.07651522349312
  H   -1.11706330533992     -1.78136418338027     -0.75118072807021
  H   -2.33621594326602     -0.50246043620332     -0.85418643962070
  H   -1.16751019328277     -0.70638703334012     -2.16127376525943
  N   -0.56482869567176      1.53727524289789     -0.69988304042878
  H   -0.04767979207477      2.15425845484703     -0.08729373115070
  H   -1.51126074867948      1.81481163195234     -0.90399088340101
