14
Coordinates from ORCA-job run
  C   0.91664128684863      0.05857792191849      0.09760332128310
  C   -0.39517700908954     -0.00087241037996     -0.26261696607582
  N   1.84119313673558      0.98802565284395     -0.44533459319418
  H   1.60450442674255      1.26777829651841     -1.38582935796036
  H   2.04458352102650      1.78414814222320      0.14276591817885
  C   1.45522312170021     -0.89468399641248      1.01679383534270
  N   1.89622689483677     -1.65380981237151      1.80128156944126
  C   -1.31764361909150     -1.11069754512148      0.13302493593885
  H   -2.19645936051778     -0.71053785264423      0.64931072821262
  H   -0.82732286567774     -1.82619971352079      0.79142097177398
  H   -1.66756239380837     -1.64283864162239     -0.75704614943009
  N   -0.92119239427450      0.92625551043665     -1.15846519862006
  H   -1.92873416062210      0.97063817608978     -1.15758043280587
  H   -0.50428058480871      1.84421627204235     -1.09332858208497
