14
Coordinates from ORCA-job run
  C   0.82745408480404      0.01159766687986      0.15036863376383
  C   -0.50277684006873      0.14829221903389     -0.12017256657466
  N   1.60258743588568     -1.04909590023252     -0.41849563070617
  H   1.97094225775336     -1.65324683012914      0.30646461262300
  H   2.38876689746413     -0.67808191925334     -0.93793888053668
  C   1.44489359716707      0.95559788117073      1.03114625830089
  N   1.93856380413663      1.74989263278724      1.74900428894216
  C   -1.22512904436867     -0.78023797729536     -1.04392021868693
  H   -0.53394702904345     -1.51305166436635     -1.45132437892061
  H   -2.02801970335336     -1.29074604330998     -0.50514060458857
  H   -1.68172115475901     -0.21844886581075     -1.86581026914858
  N   -1.29251828002507      1.08731331638515      0.50747995752768
  H   -2.09713114011007      1.39353388083585     -0.01544688472341
  H   -0.81096488548253      1.83668160330472      0.98378568272807
