14
Coordinates from ORCA-job run
  C   0.93359059610385      0.05308314493000      0.00712538570890
  C   -0.41928956876905      0.02813933626043     -0.14556602490852
  N   1.60197231613663      0.83186247051453      0.98697924636066
  H   1.08986159148156      1.66482172051973      1.23704157035086
  H   1.90847148313992      0.32159726137980      1.80355676683379
  C   1.77302271230069     -0.67264567583845     -0.89443731133202
  N   2.46723850453600     -1.29718359188429     -1.61154761285328
  C   -1.11445976007470     -0.60704294400244     -1.30860211848326
  H   -1.66192160623009      0.15071288563541     -1.87778047144180
  H   -0.41080152116372     -1.09934499523648     -1.97820874728977
  H   -1.83942127335113     -1.34987602673128     -0.95989976700751
  N   -1.23911832124786      0.73634004749844      0.72929213465692
  H   -2.20572439257298      0.44952326766791      0.70745364649155
  H   -0.88442076028911      0.79001309928669      1.67359330291348
