14
Coordinates from ORCA-job run
  C   0.91047367847166      0.08638873074456      0.16810850178996
  C   -0.42778940895015      0.17811219800926     -0.08191056914503
  N   1.75610756566740     -1.01038589995556     -0.15971809438541
  H   1.27176035537690     -1.89378956889332     -0.13482773733292
  H   2.24023507746536     -0.89704516224192     -1.04032385476721
  C   1.52802424323107      1.14992127854354      0.90214900240556
  N   1.98967813952268      2.06587660278786      1.48165957258894
  C   -1.16705588760098     -0.84783017575633     -0.88651771807645
  H   -1.87711524430682     -0.35831524867497     -1.56082815514575
  H   -0.48925176103175     -1.44558157724831     -1.49355490696263
  H   -1.74134336474484     -1.50983231066652     -0.23217025975384
  N   -1.23405705174325      1.13689393309917      0.51081861898369
  H   -2.01100180919609      1.44084204215901     -0.05501294458719
  H   -0.74866453216120      1.90474515809351      0.95412854438828
