14
Coordinates from ORCA-job run
  C   0.91722075385645     -0.07572957639520      0.09104576513155
  C   -0.40451694446865      0.08956792520622     -0.19100228620518
  N   1.62916762101214      0.71784160582267      1.02850737754340
  H   1.24787604957351      1.64849096747531      1.11610355473502
  H   1.77139786537794      0.28670529911609      1.93160619782998
  C   1.69114171474869     -1.04134498636729     -0.62492425893223
  N   2.32561229664718     -1.85940382692711     -1.18580574243445
  C   -1.10422940071144     -0.58721447177095     -1.32755580124158
  H   -0.44196528130478     -1.26888753934967     -1.85943882369018
  H   -1.96483205312981     -1.15632879350691     -0.96034945006513
  H   -1.47624914579882      0.15836702889179     -2.03721006373263
  N   -1.15995960620307      1.03119546712389      0.50287315196619
  H   -0.87467127531544      1.16047197046112      1.46327676641129
  H   -2.15599259428391      0.89526893022003      0.42287361268396
