14
Coordinates from ORCA-job run
  C   0.84597258583701      0.11031557700625      0.04957239171089
  C   -0.48495392679608      0.15044809102572     -0.24747060893886
  N   1.46136749824228     -1.07133561817464      0.57391148483172
  H   2.22686128538335     -1.36822620256347     -0.01918460477147
  H   1.83849866666821     -0.89863972645635      1.49826552970954
  C   1.62977590671968      1.28800419508568     -0.16638739516320
  N   2.26398372838889      2.26288513783037     -0.36004225710329
  C   -1.37438758231567     -1.03968412277750     -0.07254411091238
  H   -2.16912927536529     -0.80643390074695      0.64140023157482
  H   -1.84990062264548     -1.29956009879565     -1.02440006568370
  H   -0.79719863604325     -1.88788670272962      0.28523562826074
  N   -1.12140381467206      1.30883916663684     -0.63747732638677
  H   -0.52946494570377      2.06952066985387     -0.93951542406517
  H   -1.94002086769783      1.18175353480545     -1.21036347306288
