14
Coordinates from ORCA-job run
  C   0.81370558543701     -0.04724964928980      0.13486455425925
  C   -0.50558756406790      0.09442708744053     -0.17591990341494
  N   1.35198277982260      0.73998776934585      1.20910088378830
  H   2.21058427354788      1.19356998575164      0.92031087112096
  H   1.56869016584993      0.15734404603780      2.01031198091739
  C   1.65246402557395     -0.95934967653422     -0.57181356685847
  N   2.39032776652956     -1.68813337383700     -1.13185952480422
  C   -1.18501376091188     -0.66882363784817     -1.26867358856109
  H   -1.99833849782266     -1.27049845988965     -0.85395853245565
  H   -0.49188005232882     -1.32635852531092     -1.79185330724831
  H   -1.62047153346556      0.02254262853433     -1.99763637262427
  N   -1.30722884833990      0.90501087103317      0.58976738694678
  H   -2.10090371154844      1.31145516827086      0.12099603167648
  H   -0.77933062827578      1.53707576629555      1.17736308725779
