14
Coordinates from ORCA-job run
  C   0.82595243438977      0.04366641807181      0.09188183928594
  C   -0.51329063263557      0.05167921626240     -0.16003290161318
  N   1.31148936723962      0.76607448432211      1.23461261641838
  H   1.93520341504138      0.18513275530156      1.78219279624630
  H   1.83231418486591      1.58762998841383      0.94785734851798
  C   1.73981729430502     -0.65150174024816     -0.75456674961111
  N   2.53445260157498     -1.22000925105008     -1.41382632782150
  C   -1.14190306391325     -0.65814584732698     -1.31737062260600
  H   -1.88352766157858     -1.38006652928059     -0.95988292046556
  H   -1.65932171560070      0.05988406123643     -1.95933766865146
  H   -0.40227817507863     -1.19289554829634     -1.91188973066928
  N   -1.35232937164560      0.81372093564787      0.61543870846484
  H   -2.30185387954262      0.48602256648479      0.69220129623379
  H   -0.92372479742173      1.10980849046135      1.48272231627085
