14
Coordinates from ORCA-job run
  C   0.79775136125610     -0.07710592280418      0.17599281860168
  C   -0.49506484956141      0.11929223713265     -0.20764544751035
  N   1.30769946054376      0.68820544800978      1.27949687446159
  H   1.44626847218761      0.10094779590522      2.09427420160164
  H   2.20271620882064      1.09912904143521      1.04305090678987
  C   1.63439005501328     -1.02765169848822     -0.48069387815965
  N   2.37012984230418     -1.79121227022016     -0.99558680873690
  C   -1.14627621000444     -0.62383508507435     -1.33088245598263
  H   -1.55968343882125      0.08040613061885     -2.06039521764514
  H   -1.97256993370096     -1.22902795910233     -0.94813761992644
  H   -0.44126177774418     -1.27564942945929     -1.84565124247037
  N   -1.30293905422831      0.96407857816578      0.51227060601759
  H   -2.05724821821592      1.39664472318702      0.00371361441875
  H   -0.78491191784910      1.57477841069401      1.13019364854036
