14
Coordinates from ORCA-job run
  C   0.91274339613440      0.18962438159761      0.03531331285612
  C   -0.41845866114122      0.17022304008571     -0.25804237187537
  N   1.61569244682924     -0.77559554309104      0.80276661934655
  H   0.99968282631833     -1.38505928550379      1.31816430537039
  H   2.26991550903316     -1.31872923530321      0.25432807075994
  C   1.67943867182687      1.32817773370627     -0.36922118339988
  N   2.27547610189473      2.26657150406829     -0.75877291992137
  C   -1.29567275392544     -1.00284425491286      0.06076290653200
  H   -1.80448746143589     -0.86366943031783      1.01948608481504
  H   -0.72896664905486     -1.93335953158097      0.09306214476166
  H   -2.07148398898072     -1.11263590904800     -0.70253380763198
  N   -1.09960219702232      1.29499399007848     -0.71580775090519
  H   -0.50624427318952      2.05314876057156     -1.02609734795498
  H   -1.82803296728677      1.08915377964978     -1.38340806275292
