14
Coordinates from ORCA-job run
  C   0.87260101504964      0.23102429131815      0.18414894721275
  C   -0.39953188576136      0.16093895946737     -0.30243113923660
  N   1.53656913106671     -0.77082398691447      0.94243175261957
  H   2.22226916695145     -1.28873157295764      0.40817177744311
  H   0.89507064912166     -1.40270174778097      1.39631300727841
  C   1.59509826551755      1.45385430351439      0.00747419190066
  N   2.15555923813697      2.46902786554567     -0.19975770759755
  C   -1.21944395906436     -1.09158441290036     -0.22938835705415
  H   -1.84101262746551     -1.18971194725367     -1.12428658244782
  H   -0.59118698338472     -1.97921438315277     -0.16192452437555
  H   -1.89436866213505     -1.06804650458110      0.63160845983988
  N   -1.09036398094993      1.27997287506921     -0.75187165150106
  H   -1.72038101204996      1.09752592457681     -1.51840756590305
  H   -0.51987835503309      2.09947033604937     -0.91208060817858
