14
Coordinates from ORCA-job run
  C   0.78409358669006     -0.11866095296344      0.19748683957423
  C   -0.48740928120146      0.14201697656576     -0.21758437068659
  N   1.30675303659214      0.62448929200735      1.31017315693018
  H   2.22402754194634      0.99389022394467      1.09031585972147
  H   1.40360937302662      0.03047609652903      2.12636465125828
  C   1.58744256093017     -1.11117233706979     -0.43825877192999
  N   2.29579808980789     -1.91189745120530     -0.93473090739522
  C   -1.14731652012057     -0.56785485558657     -1.35720597386503
  H   -2.02276476928678     -1.11598696469301     -0.99865771238600
  H   -0.46879892983532     -1.26772327623042     -1.84342454199252
  H   -1.49067876280596      0.15472738359602     -2.10475462629137
  N   -1.26865600950943      1.02909462170987      0.48129652475205
  H   -1.98185957627670      1.50336327080451     -0.04913988081614
  H   -0.73324033995699      1.61423797259131      1.10911975312664
