14
Coordinates from ORCA-job run
  C   0.77938546272809     -0.11465710167247      0.21035546087865
  C   -0.47563961395201      0.15961594219376     -0.24431179685564
  N   1.29706580762176      0.66304496100834      1.30148034186053
  H   2.03798619197888      1.27926387663018      0.98581556615477
  H   1.68597363632952      0.05842735951607      2.01519692656356
  C   1.57963105185559     -1.13719958393289     -0.38055093873313
  N   2.27582346315732     -1.97811303727646     -0.82485638617068
  C   -1.12383912349557     -0.57301461172513     -1.37632473999328
  H   -1.34697623561987      0.12111204176881     -2.19091247019291
  H   -2.06972227118237     -1.01577386970084     -1.04769974985685
  H   -0.48709749846768     -1.37028919230168     -1.75745971265537
  N   -1.17834252536217      1.21772027975486      0.27783720811887
  H   -0.79202341364904      1.55300426155693      1.15057648609777
  H   -2.18222493194247      1.13685867418051      0.25185380478371
