14
Coordinates from ORCA-job run
  C   0.79435531929440     -0.10250088737189      0.17680675928490
  C   -0.49339167363602      0.13044300713713     -0.20332801432510
  N   1.33470915598016      0.66001599182576      1.26725887372709
  H   1.46875574772799      0.07632720144084      2.08564120304597
  H   2.23684539577712      1.04659374491071      1.01690059151475
  C   1.59731616037769     -1.08543815162005     -0.47444476371163
  N   2.30562732752522     -1.87710753067275     -0.98523276945662
  C   -1.17106692563065     -0.59780025965330     -1.32081815641633
  H   -2.04263530288977     -1.13745720363209     -0.94126991927201
  H   -1.52302855417972      0.11361627953729     -2.07511746078281
  H   -0.50124229638713     -1.30714002716645     -1.80504814679932
  N   -1.27118876514392      1.00789773206361      0.51160487720981
  H   -0.72796666936931      1.60639163205486      1.11993484727361
  H   -2.00808891944605      1.46515847114634     -0.00088792129232
