14
Coordinates from ORCA-job run
  C   0.79259546163795     -0.11045266709893      0.17883235394892
  C   -0.49392438652129      0.12974819413949     -0.20133593899698
  N   1.30946117851064      0.58801636582469      1.32273365035027
  H   1.43978209319431     -0.04500072695156      2.10410668643113
  H   2.20982811129067      1.00054610320066      1.10987266065851
  C   1.61633280589724     -1.04074309005597     -0.52178469187619
  N   2.34158341134973     -1.78897173482296     -1.07261862815598
  C   -1.14947045935677     -0.53629314058132     -1.36951891523279
  H   -1.50337974072053      0.21469179760368     -2.08330438735823
  H   -0.46427801199224     -1.20557109490589     -1.88817053393524
  H   -2.01719170100107     -1.11019625071115     -1.03339894898008
  N   -1.29056760133740      0.95247629364545      0.55648684491831
  H   -2.02714771433348      1.43118468457955      0.06333735527188
  H   -0.76262344661776      1.51956526613427      1.20676249295647
