14
Coordinates from ORCA-job run
  C   0.87641242544992      0.11793157105231      0.21005937870189
  C   -0.39392792138865      0.00445861396095     -0.26728735226610
  N   1.70803663159217      1.24326654080996     -0.02243779325306
  H   1.18401142891058      2.09599999653412     -0.15220145399269
  H   2.40701185311895      1.11896957871503     -0.74143197711030
  C   1.41883977561491     -0.89552812935947      1.06026001899413
  N   1.88355313203104     -1.74453151544920      1.73064974862227
  C   -1.35087700804797     -1.06421213989877      0.15811867309947
  H   -2.21105454619604     -0.61723384386856      0.66601473692162
  H   -1.72493501567612     -1.61088962465879     -0.71371745618537
  H   -0.88320087021646     -1.77672873082845      0.83606559995640
  N   -0.92550270938139      0.99186336747774     -1.09304957580273
  H   -0.24523162998306      1.43525097976591     -1.69403883748327
  H   -1.74413554582789      0.70038333574725     -1.60500371020227
