14
Coordinates from ORCA-job run
  C   0.91914493518365      0.20050575309126     -0.01094902191475
  C   -0.42772641499574      0.16830460289186     -0.22350728334279
  N   1.74278559098420     -0.89587020736186      0.35953341602779
  H   1.28488985982040     -1.78442437569154      0.22632072539378
  H   2.09451391789683     -0.82177741706659      1.30568459577976
  C   1.61130627681921      1.42758450264859     -0.25629885480406
  N   2.12247968264735      2.47066619647606     -0.45047027104898
  C   -1.25360711738404     -1.05940652063154      0.01999003860158
  H   -2.23745861888566     -0.76688202224929      0.39318136840952
  H   -1.39982611827620     -1.63596211429473     -0.89984688466356
  H   -0.79476587830310     -1.71268543759426      0.76236638534479
  N   -1.15513429397106      1.28537903101118     -0.62748802387528
  H   -1.91490578653199      1.07104663702378     -1.25784074646964
  H   -0.59269603500386      2.05352137174709     -0.96967544343816
