14
Coordinates from ORCA-job run
  C   0.89347277026370     -0.14881268886449      0.14634233812955
  C   -0.41132928717088      0.06939673126374     -0.17605729904940
  N   1.47651331287741      0.23918871274384      1.38035178823167
  H   2.03188885414827      1.08264407666559      1.34515436670782
  H   0.80741567464341      0.26327529215855      2.13579884196430
  C   1.74402146070520     -0.87327772628018     -0.74584072880276
  N   2.45931985463117     -1.43743909196969     -1.49166535809624
  C   -1.08504411400302     -0.52974412681942     -1.37045526385161
  H   -1.52182682944391      0.25613609807905     -1.99549115114854
  H   -0.38936284361095     -1.10632745001466     -1.97826265303358
  H   -1.89635471004910     -1.19144700739482     -1.05144915243961
  N   -1.24333047220582      0.77024980599594      0.69328265870149
  H   -2.09059823434842      1.10910662601782      0.26371113822069
  H   -0.77378543643704      1.49505074841873      1.21758047446622
