14
Coordinates from ORCA-job run
  C   0.86822959848434      0.18626449409670      0.19968089181273
  C   -0.36147190881867     -0.10165729996450     -0.30915683021925
  N   2.00534735950774      0.46781081941095     -0.59993274767725
  H   2.25352646718152      1.44519228798182     -0.66250560358179
  H   1.95841281390149      0.03401622137057     -1.51006481239810
  C   1.09179262950313      0.14217172740640      1.61097304341114
  N   1.27270807989393      0.14448745331692      2.77438725572063
  C   -1.50030999085834     -0.62119485199190      0.51084073686466
  H   -1.24080347197674     -0.68343327878665      1.56665455652711
  H   -2.37445908729645      0.03001889388389      0.40678259217427
  H   -1.78559363305100     -1.62021160823918      0.16674531653768
  N   -0.58141019955527     -0.05557261274196     -1.68438303530893
  H   -1.55647876842314     -0.02718218832208     -1.94028591735783
  H   -0.04948988849255      0.65928994257903     -2.16073544650507
