14
Coordinates from ORCA-job run
  C   0.93209308749138      0.21157075364004      0.02653843497134
  C   -0.38741490814407      0.14085967846975     -0.31799884276989
  N   1.67446255947166     -0.76494175124465      0.75424629406694
  H   2.03216933072506     -1.50955524109244      0.17055481528838
  H   1.15369910985703     -1.15129668870837      1.52680514387453
  C   1.64790287690365      1.39616740904053     -0.33854612471918
  N   2.17200066300554      2.39562751585369     -0.67650097097034
  C   -1.24251580620538     -1.04750010939328      0.00065651824285
  H   -0.64122442460236     -1.90184837846812      0.30475820813657
  H   -1.82529069309661     -1.32780116351686     -0.88015619490725
  H   -1.94570139237171     -0.81771771140211      0.80856658098658
  N   -1.02488909608340      1.12937166796951     -1.04623478974422
  H   -0.53818687907873      2.01290731630580     -1.10706930900357
  H   -2.00910442787207      1.23415670254651     -0.85461976345273
