14
Coordinates from ORCA-job run
  C   0.82807624158991     -0.06640922925806      0.33487452202730
  C   -0.44268135178728      0.16525160059872     -0.10112020596069
  N   1.92294273605004     -0.49236829637052     -0.46154344533431
  H   1.75286457662926     -0.37924460442640     -1.44888615096403
  H   2.21838786035457     -1.43883706001898     -0.26027892803353
  C   1.14133671288628      0.23499166492693      1.69829606878799
  N   1.33838077404742      0.46092115085678      2.83738314878274
  C   -0.89246584316381     -0.17808576340405     -1.48910110525347
  H   -0.30133889842889     -0.98835089049633     -1.91558462039487
  H   -1.93795173625296     -0.49962647611775     -1.47840680549096
  H   -0.82967088093569      0.69262267410138     -2.14893550694904
  N   -1.36833682694539      0.88986956174889      0.64424162067411
  H   -2.31826386779767      0.56260742518571      0.54910716069555
  H   -1.11327949624581      1.03665824267367      1.61195424741317
