13
Coordinates from ORCA-job run
  C   0.92859343489408     -0.34975139911281      0.28491535547537
  C   -0.33127133442210     -0.02082740371737     -0.06586031912828
  H   1.16740134563193     -1.37096703900526      0.57685201115110
  N   1.93813500085012      0.66975947572737      0.29119793995746
  H   2.11619593722407      1.00296616574559      1.23173597823688
  H   2.80977862982531      0.31314571002598     -0.07750896435279
  C   -1.45475583999471     -1.00961190151144     -0.07452287050315
  H   -1.92221378125943     -1.05766124474583     -1.06428497004980
  H   -2.22949853618813     -0.71492589550905      0.63873400262100
  H   -1.10187722758376     -2.00897477092156      0.18302494512049
  N   -0.68684523458525      1.30325686763728     -0.33488163055574
  H   0.14383881849303      1.85391037793016     -0.51957898442120
  H   -1.37548121288514      1.38968105745697     -1.06882249355133
