13
Coordinates from ORCA-job run
  C   0.93762824671902      0.42970908474930      0.30633794399235
  C   -0.30301591014002      0.29229405107557     -0.20364112955466
  H   1.39945729842999      1.42201678740325      0.31351602455982
  N   1.67330973089042     -0.69596578689288      0.80207087066836
  H   2.00639826797522     -0.51151586800892      1.74005622884357
  H   2.48680343807900     -0.87077596261722      0.22401937623655
  C   -1.02739020288543     -1.01613163727826     -0.26308199358715
  H   -1.23231400609640     -1.28417526362564     -1.30332694075817
  H   -1.99180683174108     -0.94546766498681      0.25279380444740
  H   -0.42759042891141     -1.79234131594363      0.20622862312344
  N   -0.97798465363405      1.35543322002157     -0.82705531601807
  H   -0.57316340328145      2.25832544988204     -0.61970049869412
  H   -1.96833154540382      1.35759490622163     -0.62721699325932
