13
Coordinates from ORCA-job run
  C   1.03677140822004      0.44830689505790      0.05178478851302
  C   -0.28671163490060      0.30947151016131     -0.16366828078259
  H   1.51738098691591      1.39216461441176     -0.19997109824335
  N   1.94722403568138     -0.54039349681437      0.49226975801062
  H   2.53253519947431     -0.20214085311384      1.24451760192647
  H   1.48554928303280     -1.38891524025010      0.78655125829626
  C   -1.07384723313188     -0.93404660668419      0.12387317650047
  H   -2.01366349701173     -0.66106864390096      0.61013399890091
  H   -1.32038428019796     -1.47858981545879     -0.79496267224629
  H   -0.54386493285683     -1.62569430177056      0.78141606762511
  N   -1.09447745610619      1.38668214255501     -0.62350010611958
  H   -0.53175487907012      2.18549585919629     -0.88818995800762
  H   -1.65475700004913      1.10972793661054     -1.42125453437344
