13
Coordinates from ORCA-job run
  C   0.94579693306866     -0.36335843695641      0.19557377021459
  C   -0.33480023943016     -0.01864000780223     -0.04878311239522
  H   1.21054838049637     -1.40526691757912      0.36715237247099
  N   1.94469803959119      0.66522841552498      0.25428972227285
  H   2.79782397090801      0.36211189923613     -0.19653086638351
  H   2.17180218569432      0.89973522027126      1.21391248976328
  C   -1.44709495995303     -1.01863224763683     -0.10185312139483
  H   -2.18786682396488     -0.80924829637974      0.67487267054028
  H   -1.96347655832933     -0.97425214593499     -1.06716984193638
  H   -1.07140860711862     -2.03329049801099      0.03571269009179
  N   -0.71709840864690      1.32060332731662     -0.15820663388537
  H   -1.44669460526468      1.47292659004283     -0.84000346837480
  H   0.09677069294905      1.90008309790848     -0.32896667098367
