13
Coordinates from ORCA-job run
  C   0.92165833502873      0.40604285634909      0.37815582965927
  C   -0.32732191872303      0.31180991370147     -0.12096527433803
  H   1.32411944671751      1.39668770873096      0.61195339395640
  N   1.74022296912189     -0.75383668909754      0.57403395117908
  H   2.53590101723348     -0.73761130236678     -0.05292263572808
  H   2.10322351554814     -0.77119785417019      1.51882306600428
  C   -0.97631539939186     -0.99030770935420     -0.47249370516520
  H   -1.19991823317833     -1.02169872558381     -1.54254345164920
  H   -0.31712916504507     -1.81448678945071     -0.21023951296511
  H   -1.92554325721037     -1.10346744180357      0.06353293347874
  N   -1.08644869610397      1.44538601012147     -0.45776163679382
  H   -2.06641339578822      1.33587395053373     -0.23766423664595
  H   -0.72603521820890      2.29880607239009     -0.05290872099237
