13
Coordinates from ORCA-job run
  C   0.92770487729135      0.45755541130537      0.48818146422222
  C   -0.30857116981532      0.33222447496837     -0.03550056621634
  H   1.23532695944327      1.41804394923818      0.89857014741791
  N   1.89812358653957     -0.55948678518095      0.65515503875786
  H   2.78017144823519     -0.31987305960876      0.22162802537449
  H   1.58640191447240     -1.45464027853106      0.30818839788794
  C   -0.85622098080531     -0.92760135107040     -0.63689801055420
  H   -0.07120654426312     -1.63555740273521     -0.90809301497212
  H   -1.54436024511343     -1.43883798120062      0.04598548151725
  H   -1.41101217857432     -0.68146823418169     -1.54591807174506
  N   -1.20832259182175      1.42875215489479     -0.11734579176320
  H   -2.13685382919042      1.16687517281286      0.19057546116134
  H   -0.89218124639811      2.21501392928914      0.43547143891190
