13
Coordinates from ORCA-job run
  C   0.86686013499261     -0.21008303466343      0.51854608917464
  C   -0.31319862181869     -0.05775260616478     -0.11598078305002
  H   1.06020688716258     -1.10326205516083      1.11021069358083
  N   1.86781772621919      0.80873402477094      0.38191208686384
  H   2.57490238785111      0.54002655343684     -0.29275030798822
  H   2.33365174709685      0.97365462404989      1.26436017224321
  C   -1.40513060549961     -1.07935143090856     -0.05317411812812
  H   -1.61862982776876     -1.47363573268314     -1.05054329784431
  H   -1.13202522047119     -1.90798532610820      0.60133333484095
  H   -2.33107600252877     -0.63465265121861      0.32809348601104
  N   -0.54306046254934      1.02399177479636     -0.97023960466411
  H   0.13351071300286      1.75671271883241     -0.78872996829392
  H   -1.49382885568884      1.36360314102111     -0.93403778274580
