13
Coordinates from ORCA-job run
  C   0.96278857792444      0.43880680016888      0.19490179970892
  C   -0.33249661600355      0.29280368364945     -0.14991324560709
  H   1.42743815272099      1.42528370522571      0.10036559868471
  N   1.72904812045110     -0.65680779609830      0.71121136411136
  H   2.59143842159904     -0.75720340252074      0.19065142573854
  H   1.98027787646642     -0.49009330621274      1.67849943392264
  C   -1.06487987560810     -1.00964783296774     -0.06363101341253
  H   -1.89486876062734     -0.92724787931572      0.64369654288738
  H   -0.38474304973813     -1.79543146535645      0.25662720749991
  H   -1.49005500199911     -1.27675134309748     -1.03782352758033
  N   -1.13694030798068      1.38512385739428     -0.51640047520254
  H   -0.60259172048585      2.21103609933873     -0.74972005677341
  H   -1.78341581671923      1.16012887979211     -1.25946505397755
