13
Coordinates from ORCA-job run
  C   1.00255077307617      0.38871628563557      0.03362039883572
  C   -0.33069259248157      0.29728491974234     -0.14568277668560
  H   1.50891174223913      1.32319276530507     -0.22786563220200
  N   1.75995726609510     -0.69420387064358      0.58885017182385
  H   2.13446881523647     -0.43755207273492      1.49463041608509
  H   2.54673341999494     -0.91352537564247     -0.00924588823066
  C   -1.12114599002871     -0.93252381968186      0.17545522017484
  H   -0.45421581660545     -1.72396285609116      0.50906052521271
  H   -1.85516805609921     -0.71367554249406      0.95602982066018
  H   -1.67364388004277     -1.27504624239465     -0.70691661379138
  N   -1.10880218970353      1.39557633056341     -0.54856002205150
  H   -0.55944081485679      2.15055800899894     -0.93619842498180
  H   -1.85051267682379      1.13516146943737     -1.18317719484944
