13
Coordinates from ORCA-job run
  C   0.94689144272960      0.43460121731540      0.27059782347354
  C   -0.34148123686285      0.30132502290256     -0.10405583996171
  H   1.37599876877021      1.43908565028106      0.34004984311028
  N   1.74903570533865     -0.70264143270929      0.61276894101542
  H   1.99040926406147     -0.68471406409670      1.59657089283670
  H   2.61630195186687     -0.68944415420819      0.09086959779371
  C   -1.02779382051722     -1.02245839004267     -0.23431285920254
  H   -0.32176027349498     -1.82638409689655     -0.04007522809794
  H   -1.86135806023512     -1.08328157716776      0.47103246184051
  H   -1.44233107967793     -1.14257713157116     -1.24173490271338
  N   -1.18317104704713      1.40940667146280     -0.29850919076180
  H   -0.67893649485061      2.28077863523035     -0.39047842544937
  H   -1.81880512008096      1.28430364950017     -1.07372311388343
