13
Coordinates from ORCA-job run
  C   0.96242048476849      0.50877476494806      0.30391206437589
  C   -0.32257032237188      0.31218838199587     -0.05327535310306
  H   1.31387090537357      1.52468730919616      0.47576277593362
  N   1.98849907351303     -0.45995338635704      0.39950817614576
  H   1.63950798014391     -1.40364555891828      0.31427550678133
  H   2.50592727158030     -0.37312914945994      1.26400152298671
  C   -0.93777021811605     -1.02623836261530     -0.33279809457147
  H   -1.91902788019776     -1.07861713766867      0.14540047209430
  H   -0.33543500633791     -1.85456150929857      0.04482030639287
  H   -1.08191556899318     -1.18819197598221     -1.40727834712484
  N   -1.25840950592953      1.38192861779090     -0.12493375999657
  H   -0.80251474618046      2.27957525894490     -0.01863020801957
  H   -1.75258246725254      1.37618274742411     -1.00976506189496
