13
Coordinates from ORCA-job run
  C   0.95005331921502      0.48831598875243      0.36719791397620
  C   -0.30010507176293      0.32105453872168     -0.10873632656457
  H   1.33387363592723      1.49784566732662      0.50364750916108
  N   1.91128174009616     -0.51410844012438      0.63395578442007
  H   1.52470395720571     -1.44564792822738      0.58434942510598
  H   2.34841031986382     -0.38267480109556      1.53634151712015
  C   -0.94898380039221     -1.00767930258127     -0.35826797286535
  H   -0.43371152913925     -1.82911223792525      0.14322436265100
  H   -1.97754644673780     -0.98119706842572      0.00974795637935
  H   -0.98344927988299     -1.24650768432618     -1.42753824497498
  N   -1.17053539561253      1.42101692409104     -0.34999427622508
  H   -0.68604709311427      2.30465574131768     -0.25319703834327
  H   -1.56894435566594      1.37403860249629     -1.28073060984058
