13
Coordinates from ORCA-job run
  C   0.87602736041925     -0.18507784958937      0.51327254008318
  C   -0.31981400431598     -0.05600899037728     -0.09640716662372
  H   1.05182545731246     -1.00426017187694      1.20841467376152
  N   1.91633258816649      0.75621626101624      0.21183409222707
  H   2.58322345976609      0.36658295725647     -0.44457269797177
  H   2.42369419611215      1.00964779145349      1.04928461005835
  C   -1.45381433844827     -1.00524736112946      0.13403196861080
  H   -2.34342971423058     -0.46956197089464      0.48347331401568
  H   -1.72276019175293     -1.51337141958198     -0.79617824118832
  H   -1.19390886681671     -1.75539816609963      0.88191211899467
  N   -0.53357147918402      0.91736154624161     -1.07571632077867
  H   -1.46594842651265      1.30558891026005     -1.05407855899610
  H   0.18214395948471      1.63252846332144     -1.01427033219270
