17

C	0.0	0.0	0.0
C	-0.415445	-0.044167	-1.540783
Br	1.955594	0.0	0.0
H	-1.490741	-0.002849	-1.746651
N	-0.260422	1.320908	0.574786
H	-1.25323	1.415278	0.786366
H	0.25435	1.361559	1.442523
C	-0.387289	-1.160437	0.79768
N	-0.628652	-2.135802	1.401352
N	-0.057819	-1.404663	-2.128722
O	-0.880756	-2.305791	-1.939147
O	1.01026	-1.537251	-2.725388
C	0.216593	1.071312	-2.367825
H	-0.304422	1.112806	-3.331565
H	0.028324	2.00449	-1.837574
H	1.282256	0.95435	-2.548388
Cl	-3.119398	0.0	0.0
