17

C	0.0	0.0	0.0
C	-0.511639	0.01088	-1.469469
Br	1.965617	0.0	0.0
H	-1.545439	-0.350932	-1.396656
N	-0.485763	1.07768	0.807835
H	-0.256597	1.962185	0.369659
H	-1.508966	0.968069	0.833476
C	-0.346412	-1.262611	0.674389
N	-0.57082	-2.262222	1.249356
N	0.233145	-0.991966	-2.294095
O	0.100354	-2.171755	-1.974175
O	0.933282	-0.59172	-3.225099
C	-0.48234	1.38014	-2.105855
H	0.496133	1.856467	-2.013399
H	-1.255947	1.989326	-1.63867
H	-0.719577	1.296183	-3.165991
Cl	-3.454737	0.0	0.0
