17

C	0.0	0.0	0.0
C	-0.561415	-0.061716	-1.445226
Br	1.960804	0.0	0.0
H	-1.649543	-0.033595	-1.296842
N	-0.498174	1.117314	0.752542
H	-1.522994	1.007665	0.765076
H	-0.266154	1.978863	0.271365
C	-0.363649	-1.242761	0.700162
N	-0.591135	-2.256776	1.249173
N	-0.306349	-1.373656	-2.132138
O	0.859202	-1.745732	-2.270967
O	-1.290749	-1.967072	-2.571325
C	-0.082332	1.038602	-2.369253
H	-0.300771	2.017012	-1.937841
H	-0.626621	0.969478	-3.313294
H	0.988033	0.956655	-2.562068
Cl	-3.53099	0.0	0.0
