13

C	0.0	0.0	0.0
C	-0.458272	0.565709	-1.326994
Br	1.954941	0.0	0.0
H	-0.161869	-0.139383	-2.106211
H	-0.012253	1.539426	-1.513209
H	-1.549587	0.616131	-1.243088
N	-0.279578	1.084475	1.122556
O	-0.280479	2.270326	0.814372
O	-0.443429	0.652472	2.259221
N	-0.606188	-1.203694	0.297971
H	-1.65504	-0.917508	0.198887
H	-0.412036	-1.449241	1.262111
F	-2.824711	0.0	0.0
