13

C	0.0	0.0	0.0
C	-0.44097	0.070578	-1.455702
Br	1.938256	0.0	0.0
H	0.008299	0.90761	-1.98678
H	-1.532772	0.142668	-1.392655
H	-0.143126	-0.866648	-1.934911
N	-0.364279	1.339655	0.683012
O	-0.346017	2.342021	-0.026933
O	-0.585306	1.328818	1.884548
N	-0.574426	-1.025446	0.774913
H	-1.616106	-0.777878	0.632111
H	-0.387185	-1.9004	0.293456
F	-2.786778	0.0	0.0
