13

C	0.0	0.0	0.0
C	-0.43967	0.063086	-1.457109
Br	1.93922	0.0	0.0
H	0.003832	0.903633	-1.98824
H	-1.532398	0.128646	-1.397825
H	-0.135081	-0.872257	-1.93606
N	-0.357942	1.351161	0.668278
O	-0.24721	2.355339	-0.03137
O	-0.660788	1.345174	1.850442
N	-0.585847	-1.011557	0.780444
H	-0.41862	-1.889153	0.296548
H	-1.628494	-0.74854	0.637282
F	-2.795563	0.0	0.0
