17

C	0.0	0.0	0.0
C	-0.594447	0.201929	-1.398804
Cl	1.759459	0.0	0.0
H	-1.687414	0.216912	-1.227431
N	-0.414801	1.193223	0.873594
O	-0.057397	1.152765	2.045474
O	-1.073982	2.087343	0.357756
C	-0.527602	-1.249015	0.669421
H	-1.620864	-1.190417	0.696383
H	-0.216343	-2.126201	0.100197
H	-0.128712	-1.3167	1.680608
C	-0.279668	-0.976773	-2.207365
N	0.003629	-1.888976	-2.890827
N	-0.094106	1.405508	-2.06243
H	0.097433	1.216788	-3.036906
H	-0.80717	2.118748	-1.995962
Br	-3.925974	0.0	0.0
