15

C	0.0	0.0	0.0
C	-0.420226	-0.022165	-1.490973
Br	1.951239	0.0	0.0
H	0.45255	0.256038	-2.094552
H	-0.316027	0.931657	0.45419
C	-0.463994	-1.145241	0.771831
N	-0.571646	-2.135234	1.398957
N	-1.353416	1.122858	-1.783572
O	-2.184996	0.972401	-2.671584
O	-1.089644	2.196768	-1.251433
C	-0.976799	-1.341143	-1.970266
H	-1.901535	-1.504444	-1.421383
H	-1.161458	-1.305356	-3.043458
H	-0.252171	-2.134353	-1.763796
F	-2.34421	0.0	0.0
