15

C	-0.42366	-0.047015	-1.449831
C	0.0	0.0	0.0
F	0.018093	1.065487	-2.104017
H	1.09429	0.0	0.0
H	-0.322268	-0.9183	0.496219
N	0.277567	-1.241641	-2.089503
O	0.945824	-1.056308	-3.095505
O	0.047625	-2.327781	-1.563352
C	-1.901011	-0.205822	-1.737833
H	-2.429356	0.650275	-1.315693
H	-2.066891	-0.231254	-2.818206
H	-2.275131	-1.124316	-1.287102
C	-0.586399	1.148389	0.653742
N	-1.070373	2.080527	1.183704
F	2.521627	0.0	0.0
