15

C	-0.429723	-0.019672	-1.448424
C	0.0	0.0	0.0
F	0.023617	1.096651	-2.08827
H	1.094279	0.0	0.0
H	-0.323292	-0.926111	0.480868
N	0.252876	-1.214182	-2.108027
O	0.010227	-2.305198	-1.597059
O	0.920718	-1.023158	-3.113534
C	-1.910419	-0.154943	-1.732048
H	-2.425229	0.703091	-1.296844
H	-2.295648	-1.073876	-1.291219
H	-2.081064	-0.164274	-2.811901
C	-0.582031	1.137745	0.676101
N	-1.062422	2.060966	1.22442
F	2.522189	0.0	0.0
