15

C	-0.427396	0.094967	-1.449066
C	0.0	0.0	0.0
F	-0.169044	1.366872	-1.884773
H	1.092451	0.0	0.0
H	-0.325737	0.928673	0.479776
N	0.444225	-0.835086	-2.287405
O	1.043014	-0.370878	-3.247175
O	0.406242	-2.014419	-1.953786
C	-1.86324	-0.240439	-1.78488
H	-2.516291	0.440141	-1.234843
H	-2.091518	-1.265743	-1.498133
H	-2.030147	-0.106431	-2.856999
C	-0.579123	-1.124268	0.701194
N	-1.058763	-2.01586	1.299997
F	2.521905	0.0	0.0
