15

C	-0.324905	-0.164082	-1.472664
C	0.0	0.0	0.0
F	-1.592782	-0.667234	-1.684754
H	1.090922	0.0	0.0
H	-0.310678	-0.927759	0.492344
N	-0.3269	1.21235	-2.12918
O	0.771268	1.696492	-2.380732
O	-1.413411	1.746461	-2.33126
C	0.720939	-1.028143	-2.134452
H	0.560752	-2.055822	-1.797337
H	0.638985	-0.989568	-3.222431
H	1.697974	-0.69267	-1.768006
C	-0.634952	1.125841	0.651319
N	-1.136027	2.033359	1.205627
F	2.593796	0.0	0.0
