15

C	-0.40735	-0.00871	-1.458793
C	0.0	0.0	0.0
F	-0.193699	1.245324	-1.966741
H	1.093583	0.0	0.0
H	-0.333175	0.956629	0.413555
N	0.520767	-0.948593	-2.224364
O	0.519334	-2.107988	-1.824309
O	1.124017	-0.515081	-3.19587
C	-1.819788	-0.427951	-1.799233
H	-2.007545	-1.444906	-1.457786
H	-1.969214	-0.363836	-2.880193
H	-2.514442	0.251593	-1.301341
C	-0.57629	-1.081989	0.766407
N	-1.057671	-1.939417	1.412316
F	2.520805	0.0	0.0
