15

C	-0.244327	-0.022854	-1.493784
C	0.0	0.0	0.0
F	0.06097	-1.284203	-1.946521
H	1.093359	0.0	0.0
H	-0.416249	-0.902332	0.451645
N	-1.735338	0.126355	-1.80125
O	-2.446199	-0.841848	-1.545157
O	-2.137347	1.206504	-2.229722
C	0.605356	0.983942	-2.214665
H	1.61538	0.801696	-1.829702
H	0.29649	1.997429	-1.962976
H	0.546314	0.838571	-3.295284
C	-0.529491	1.192803	0.625629
N	-0.94341	2.158604	1.153233
F	2.579522	0.0	0.0
