15

C	0.0	0.0	0.0
C	-0.452245	0.143818	-1.429621
F	1.3827	0.0	0.0
H	-1.538473	0.291812	-1.377757
H	-0.224317	-0.84458	-1.868541
N	-0.226294	1.366539	0.751752
O	0.226152	1.376477	1.903256
O	-0.886474	2.284339	0.265708
N	-0.553252	-1.082049	0.626236
H	-1.606802	-0.888342	0.552211
H	-0.167897	-1.296628	1.523496
N	0.309219	1.182042	-2.135226
H	0.647189	0.852792	-3.031847
H	-0.283516	1.978299	-2.26575
F	-2.8186	0.0	0.0
