15

C	0.0	0.0	0.0
C	-0.466898	-0.093356	-1.447444
F	1.375262	0.0	0.0
H	-0.240254	-1.129458	-1.730074
H	-1.554226	0.026195	-1.376675
N	-0.330123	1.394313	0.577664
O	-0.693035	2.280659	-0.193203
O	-0.118378	1.558413	1.773238
N	-0.586328	-0.936674	0.869808
H	-0.417576	-1.852896	0.468361
H	-1.623123	-0.707571	0.709471
N	0.247186	0.783913	-2.388652
H	-0.032929	0.509318	-3.324062
H	-0.114694	1.717656	-2.242131
F	-2.830693	0.0	0.0
