15

C	0.0	0.0	0.0
C	-0.469425	0.491515	-1.389471
F	1.392096	0.0	0.0
H	0.454513	0.709608	-1.937129
H	-1.014943	1.420908	-1.255627
N	-0.225044	1.134916	1.070554
O	-0.094485	2.302261	0.714406
O	-0.41484	0.777756	2.231155
N	-0.550578	-1.201053	0.398553
H	-0.302794	-1.373203	1.366179
H	-1.586372	-0.976841	0.331741
N	-1.315029	-0.411025	-2.148773
H	-2.171434	-0.427792	-1.578659
H	-0.907256	-1.337854	-2.095507
F	-2.807007	0.0	0.0
