15

C	0.0	0.0	0.0
C	-0.491503	-0.063613	-1.459267
F	1.38398	0.0	0.0
H	-1.146211	0.788942	-1.627017
H	0.387014	0.017225	-2.106261
N	-0.293975	1.41286	0.546808
O	-0.670351	1.548636	1.700893
O	-0.01873	2.337252	-0.219321
N	-0.510824	-0.936429	0.908069
H	-0.43879	-1.825647	0.419293
H	-1.530553	-0.695805	0.876464
N	-1.18925	-1.334618	-1.668696
H	-1.404902	-1.406072	-2.657248
H	-2.071373	-1.14041	-1.167123
F	-2.787052	0.0	0.0
