18

C	0.0	0.0	0.0
C	-0.436289	-0.036193	-1.492246
Br	1.933699	0.0	0.0
H	-1.454821	0.351257	-1.405502
N	-0.427061	1.293069	0.686421
O	-0.502728	1.267509	1.906486
O	-0.560473	2.281096	-0.019845
C	-0.468742	-1.122632	0.800407
N	-0.586869	-2.106383	1.436108
C	-0.554379	-1.484155	-1.958221
H	0.369987	-2.050006	-1.79938
H	-0.777521	-1.498737	-3.029079
H	-1.37758	-1.963767	-1.426778
C	0.411934	0.781472	-2.463829
H	-0.188816	0.947312	-3.363747
H	1.324682	0.26321	-2.763569
H	0.676667	1.757453	-2.064864
F	-2.434554	0.0	0.0
