18

C	0.0	0.0	0.0
C	-0.339145	0.145289	-1.548197
Br	1.954108	0.0	0.0
H	0.624921	0.276709	-2.046689
N	-0.373987	1.156401	0.914616
O	-0.623721	0.880821	2.078097
O	-0.273844	2.284905	0.45339
C	-0.44952	-1.240867	0.615701
N	-0.565897	-2.315548	1.081287
C	-1.203252	1.332142	-1.980917
H	-1.424282	1.195586	-3.046445
H	-2.1209	1.314886	-1.400138
H	-0.681711	2.280834	-1.862532
C	-0.93168	-1.166052	-2.065755
H	-1.903773	-1.297398	-1.594801
H	-0.289094	-2.023088	-1.842082
H	-1.032239	-1.10047	-3.154429
F	-2.336965	0.0	0.0
