18

C	0.0	0.0	0.0
C	-0.344923	0.016565	-1.555743
Br	1.939578	0.0	0.0
H	0.618077	0.11154	-2.063718
N	-0.378825	1.230529	0.813534
O	-0.276764	2.316253	0.260314
O	-0.636349	1.052654	1.994571
C	-0.465697	-1.181369	0.715282
N	-0.556049	-2.215968	1.269895
C	-1.206864	1.165042	-2.086737
H	-1.413574	0.94756	-3.141816
H	-2.131029	1.194461	-1.516424
H	-0.68283	2.118766	-2.035935
C	-0.938624	-1.331935	-1.96459
H	-1.910755	-1.417368	-1.482757
H	-0.299018	-2.170065	-1.673449
H	-1.040738	-1.356998	-3.054621
F	-2.340894	0.0	0.0
