18

C	0.0	0.0	0.0
C	-0.345754	0.088112	-1.552443
Br	1.95688	0.0	0.0
H	0.61836	0.167179	-2.060821
N	-0.373285	1.181652	0.882886
O	-0.251265	2.298088	0.398025
O	-0.652388	0.935618	2.046252
C	-0.446188	-1.224582	0.64963
N	-0.561625	-2.292206	1.13084
C	-1.176248	1.290426	-2.009867
H	-0.620923	2.223362	-1.932156
H	-2.08284	1.321425	-1.412569
H	-1.426249	1.129196	-3.065179
C	-0.998128	-1.213213	-2.031712
H	-0.41805	-2.099045	-1.759112
H	-1.065185	-1.176931	-3.12366
H	-1.986279	-1.261284	-1.578104
F	-2.34446	0.0	0.0
