18

C	0.0	0.0	0.0
C	-0.433814	0.008771	-1.49322
Br	1.951084	0.0	0.0
H	-1.439906	0.422357	-1.403021
N	-0.414628	1.274516	0.724543
O	-0.498464	1.212302	1.942599
O	-0.525614	2.286417	0.047773
C	-0.460787	-1.14466	0.770647
N	-0.583905	-2.145648	1.377542
C	-0.593251	-1.424629	-1.985382
H	0.323709	-2.014385	-1.866755
H	-0.849453	-1.411757	-3.050202
H	-1.410035	-1.893187	-1.437552
C	0.430346	0.824396	-2.451895
H	0.691232	1.800429	-2.044734
H	1.346536	0.30436	-2.746248
H	-0.163702	0.989247	-3.357229
F	-2.422859	0.0	0.0
