14
Coordinates from ORCA-job run
  C   -0.44734862180516     -0.31425882973734      0.15010258206772
  C   0.77873482401926      0.55595596702902      0.40255036884908
  F   0.07567695844202     -1.55095001569653     -0.33983180649687
  H   0.46371949627515      1.58478337699960      0.57091823617585
  H   1.33790203506345      0.17157813635273      1.25153214648451
  N   -1.09174983044603     -0.53447052510368      1.40058590260685
  H   -2.08308298686642     -0.68903601144721      1.28036670194059
  H   -0.67273745884879     -1.32013165845614      1.88020232138863
  N   -1.34296858513106      0.26490193752494     -0.77599519106628
  H   -2.01570460662740     -0.42871480518909     -1.08041188934543
  H   -0.83704727011069      0.61074995449576     -1.58137383676651
  N   1.71218137616784      0.54832339067491     -0.75801205391473
  O   2.84994681565190      0.12987849384592     -0.57392464998816
  O   1.27347785421590      0.97339058870714     -1.82770883193524
