14
Coordinates from ORCA-job run
  C   -0.50834714744093     -0.10758061776153      0.22690155215064
  C   0.99667771396155     -0.28379137241921      0.05957251604573
  F   -0.66058578084616      1.17066876304318      0.84824194281604
  H   1.46395866154047     -0.42549588855627      1.03051502886158
  H   1.19121091978697     -1.12932509641301     -0.59869264644809
  N   -1.20179843498925     -0.16440229540797     -1.00238614990382
  H   -2.14853159984607      0.17357403583577     -0.87671098309902
  H   -0.73484184236867      0.40899346912226     -1.69330805093055
  N   -0.97159961979098     -1.12261952322438      1.11149364835624
  H   -0.86191345561536     -0.82971355170667      2.07328527778003
  H   -1.93719362394306     -1.35691182663669      0.92756101440236
  N   1.63174184440785      0.92050870866153     -0.54436696372229
  O   2.48833477703390      1.50440202413291      0.11055440518112
  O   1.25388758810973      1.24269317133008     -1.67166059148996
