14
Coordinates from ORCA-job run
  C   -0.42384376422323     -0.35370118169840      0.09278028832037
  C   0.89967547319813      0.31965069842956      0.44942058510872
  F   -0.15214998917977     -1.67646367714685     -0.26220682195569
  H   0.71772166010577      1.31986118112445      0.83472828508929
  H   1.44538303689133     -0.29277661215766      1.16724952098760
  N   -1.26374198623176     -0.30083476553064      1.24922633896538
  H   -0.85601306300392     -0.82826799868523      2.01351236632849
  H   -2.16717046699808     -0.70477594623301      1.03100983067122
  N   -0.99503932201405      0.24009805634739     -1.07487814756910
  H   -1.72469820505154     -0.35431044659699     -1.44659475497238
  H   -1.36602559831921      1.15730427036902     -0.86618468493545
  N   1.75377609814195      0.45767914528094     -0.75788825722221
  O   2.36699343129009     -0.54013819661991     -1.12448695046547
  O   1.76413269539430      1.55767547311733     -1.30468759835076
