14
Coordinates from ORCA-job run
  C   -0.50659238166640     -0.11972199348860      0.22457432902651
  C   1.00733609935289     -0.23612677597975      0.08731450679246
  F   -0.72441994795743      1.17735256879237      0.78415619011904
  H   1.46409278290064     -0.31136805847691      1.07060534042638
  H   1.25012757177021     -1.10170142425839     -0.52741288587704
  N   -1.17685203258041     -0.26329980853048     -1.01047956552510
  H   -2.13897721585054      0.03889296130723     -0.91371650277351
  H   -0.72392184098452      0.29738847699927     -1.72089407169765
  N   -0.93965685867320     -1.11308135093489      1.14846827100456
  H   -0.86229324450097     -0.77053386853572      2.09694402010992
  H   -1.88981114214001     -1.40018582113637      0.95902241417320
  N   1.59824992156352      0.96608363354316     -0.56368557186162
  O   2.41699751009890      1.61794981449309      0.07518095830162
  O   1.22472077866732      1.21835164620602     -1.71007743221877
