14
Coordinates from ORCA-job run
  C   -0.49639736391451     -0.40927038197451      0.17424430622555
  C   0.89398483410822      0.20371340237883      0.41392607200903
  F   -0.28905691379679     -1.75793241731418     -0.12942064332724
  H   1.52583724425250     -0.48225807235592      0.98086024684819
  H   0.79516454220529      1.15971080212241      0.92138668015911
  N   -1.25686317465759     -0.23064722487167      1.35920721768453
  H   -2.16945102781800     -0.64707198266884      1.21852536721087
  H   -0.80620612714518     -0.66837160629831      2.15316825330543
  N   -1.25308440871661      0.11977267935783     -0.91586274598377
  H   -0.79040897715633     -0.05146952913379     -1.79838283460498
  H   -1.43202998156107      1.10620937918700     -0.78774860271379
  N   1.59050647598163      0.48018958000173     -0.87080278361547
  O   1.72661274018523     -0.45833716680226     -1.65152279145026
  O   1.96239213803321      1.63576253837168     -1.06857774174720
