14
Coordinates from ORCA-job run
  C   -0.57569951203010     -0.05189694553301      0.33089693599254
  C   0.95584626731407     -0.17507543671873      0.26066355393302
  F   -0.85044827191537      0.99776448116310      1.21223505632440
  H   1.23045675560187     -1.12981666270160     -0.18009278117678
  H   1.39970021697205     -0.05277800330249      1.25020893159985
  N   -1.24983753673331      0.27813405490835     -0.88445699035611
  H   -0.97672887287666      1.19258461883031     -1.21810508440782
  H   -1.09010191959815     -0.42702562680910     -1.59057074718835
  N   -1.08800218988818     -1.29345615505079      0.78953816542949
  H   -2.09582552672038     -1.21774247791921      0.85705829616154
  H   -0.70730296392276     -1.53438132736144      1.69620070046103
  N   1.54094325018729      0.87450994715659     -0.61594771892375
  O   2.22882932041273      0.49412285266893     -1.56198212185494
  O   1.27817098319691      2.04405668066908     -0.34764619599413
