14
Coordinates from ORCA-job run
  C   -0.57360594370236      0.01341955841521      0.25743376626945
  C   0.91610524106851     -0.29483921603025      0.06669262168101
  F   -0.58468925839156      1.27300870594653      0.89162733928542
  H   1.39261611956019     -0.43788609528121      1.03376241694116
  H   1.03902080057787     -1.17104597818364     -0.57029829540211
  N   -1.27642127184407     -0.00849463492431     -0.96250065139618
  H   -0.83400765436882      0.58114710635025     -1.65434499006202
  H   -2.23403780770569      0.27517815842142     -0.80027094151953
  N   -1.23752586092320     -0.87096113341223      1.16349670105216
  H   -1.31864085911798     -1.79633791108611      0.76714292250789
  H   -0.78080480649591     -0.90094736144714      2.06471260821328
  N   1.64716221027506      0.83100098351497     -0.58518767258184
  O   1.25919926544392      1.17858219969257     -1.70038504380004
  O   2.58562982562402      1.32817561802395      0.02811921881135
