14
Coordinates from ORCA-job run
  C   -0.57787479267998      0.06939534573971      0.30123162097496
  C   0.86841521918673      0.52981024313232      0.48770460622857
  F   -1.26632534165536      0.80578571401497      1.30140260767180
  H   0.86852763886857      1.61488429356953      0.53266996116207
  H   1.32461236860289      0.09686702872109      1.37931965826731
  N   -1.09881517544881      0.51469934245807     -0.95899056621288
  H   -1.92888796874603      1.07342089858469     -0.82847443751026
  H   -1.27735806058537     -0.26781251548431     -1.57089231280996
  N   -0.73079011071613     -1.32017052034672      0.46616671191137
  H   -1.71106781652572     -1.56911627083883      0.49864449820174
  H   -0.24739774835679     -1.68025734160158      1.27653484534799
  N   1.71209227862438      0.14263903977604     -0.67306822953393
  O   2.13894057350392      1.04665106617609     -1.38626474957460
  O   1.92692893592769     -1.05779632390108     -0.82598421412415
