14
Coordinates from ORCA-job run
  C   -0.56464520874072      0.04958679472765      0.32944465590904
  C   0.84419359398555      0.64177156194266      0.38650215695622
  F   -1.15771732313466      0.55327478035029      1.51743831240635
  H   1.24659110866435      0.44678994689172      1.37619200362255
  H   0.84886243470163      1.70903178411070      0.16005053789882
  N   -1.27068208386458      0.44116322034031     -0.82359162298801
  H   -1.18841643233851      1.42719772750440     -1.02576372482265
  H   -2.24382106633158      0.17275070600044     -0.75420730548806
  N   -0.52796540504773     -1.37730129053893      0.47005845182986
  H   -1.08591536800804     -1.67698998991825      1.25556116475258
  H   -0.82218093627799     -1.83073819129924     -0.38219650609215
  N   1.74741365228959     -0.02141297571853     -0.58970927528814
  O   2.64764313679691     -0.72434320673042     -0.13849787049296
  O   1.52763989730579      0.19121913233720     -1.78028097820346
