14
Coordinates from ORCA-job run
  C   -0.48195098357204      0.00036622150988      0.35335252966913
  C   0.98875603336338     -0.31867091777182      0.08700908669966
  F   -0.47284538788612      0.98561854190320      1.36361690960400
  H   1.47761766043049     -0.51183274010292      1.03784336745310
  H   1.06339636027589     -1.17086107333463     -0.58491211511125
  N   -1.12230078750559      0.47309142865013     -0.79352365863866
  H   -0.61394549454145      0.51164734129636     -1.65846270060443
  H   -2.11723057354496      0.36010713746561     -0.85652790151688
  N   -1.07770728107482     -1.16985044288300      0.95529635912698
  H   -1.82303312701076     -1.54079482564612      0.38594215145922
  H   -1.41340009371547     -0.95280429311345      1.88273076505380
  N   1.69340896268401      0.82254389459981     -0.55573027991729
  O   2.34767548466220      1.57206470467608      0.16127502004169
  O   1.55155922743523      0.94037502275087     -1.77590953331905
