14
Coordinates from ORCA-job run
  C   -0.53203636471659      0.14340627653312      0.23021975112348
  C   0.72456412942375      0.48892210649912     -0.56810081884044
  F   -0.47483051744593      0.95390661801923      1.38430662795132
  H   0.68620170180212      0.00331337337163     -1.54071446525577
  H   0.78884665625278      1.56957479046108     -0.66002595301978
  N   -1.66924715616587      0.61727640593420     -0.52376630257081
  H   -2.28605308052297     -0.13878096204572     -0.77905567872652
  H   -2.16805254017251      1.32080212551701      0.00174776124802
  N   -0.56734255916032     -1.20858943092950      0.57555335312817
  H   0.16130773935321     -1.81756532159540      0.24967622823861
  H   -1.46244739269897     -1.62563914299003      0.75280343878420
  N   1.95942491160863      0.02317252129742      0.11763305656490
  O   2.58664804002725      0.83621241955020      0.78807836465494
  O   2.25501643241541     -1.16601177962235     -0.02835536328034
