14
Coordinates from ORCA-job run
  C   -0.55622824712899      0.04463554752673      0.41014768412650
  C   0.97963277577195     -0.02892243532887      0.34937689281371
  F   -0.88063321397027      1.25578229611980      0.98360923959935
  H   1.31649109638698     -1.04513155549342      0.15098657556082
  H   1.39371766205292      0.35784183626123      1.27772044977564
  N   -1.25293605943278      0.03728788595403     -0.84931143719230
  H   -1.08383482297651      0.89545767749031     -1.36075296737626
  H   -0.96564007743905     -0.74521787537467     -1.42316526412957
  N   -0.98251556676458     -0.98454224537072      1.30845417826726
  H   -1.99517353171222     -0.95328153621361      1.35636875102516
  H   -0.70927190699177     -1.89809887049956      0.96872880155324
  N   1.47511540280550      0.80882288367714     -0.76768583789515
  O   1.66400627474203      0.24326371791261     -1.84578503521258
  O   1.59727021465680      2.01310267333901     -0.55769203091581
