14
Coordinates from ORCA-job run
  C   -0.61245742872187      0.10583191977128      0.21561556416144
  C   0.71445351137857      0.49966503734611     -0.45641282447104
  F   -0.57252771383987      0.71129188912089      1.46378001646668
  H   0.72862268255681      1.57121510815531     -0.64152467072052
  H   0.87611753928746     -0.07151684019732     -1.37183051807903
  N   -1.66751464339189      0.68726561672652     -0.54554623207523
  H   -1.51529918856604      0.63290531735049     -1.54271199734198
  H   -2.54300381434709      0.24221152049888     -0.30041253359454
  N   -0.84202755761705     -1.28372594910098      0.48468777010673
  H   -0.09227383983503     -1.67189663168656      1.04407010765653
  H   -0.90092747979474     -1.80361084695733     -0.38112860605778
  N   1.85706527671326      0.20562656764206      0.44733509158903
  O   2.48847035574240      1.15630520557933      0.89596553689217
  O   2.08030230043507     -0.98156791424870      0.68711329546755
