14
Coordinates from ORCA-job run
  C   -0.58252638285010     -0.04269722390732      0.23154336016761
  C   0.92015933839685     -0.28683844980832      0.05179707853239
  F   -0.64788609427531      1.08219151771315      1.07986194665764
  H   1.08871593470814     -1.03277680382067     -0.72520813572988
  H   1.36230649940987     -0.59217656452859      0.99731438395294
  N   -1.23829446134980      0.14370593067053     -1.00063182657289
  H   -2.20777911696892      0.37673172207946     -0.82820447424352
  H   -0.78577680749315      0.85698319195674     -1.55602069406074
  N   -1.25901844129691     -1.08677550996618      0.93549717444853
  H   -1.30803405244064     -1.92510517114884      0.37457411374473
  H   -0.83544747601013     -1.27469557007970      1.83370965001574
  N   1.64881668031231      0.94967984042475     -0.35788499139671
  O   1.29250093114639      1.48797597262441     -1.40585990851223
  O   2.55426344871140      1.34179711779060      0.37051232299640
