14
Coordinates from ORCA-job run
  C   -0.55945182561858     -0.07908654447685      0.25577867512523
  C   0.94393256414394     -0.28301807244454      0.01053577094873
  F   -0.62233002968526      1.00134102753532      1.15247892461462
  H   1.09769950950539     -0.95690353938235     -0.83126263309122
  H   1.44022281039355     -0.65358227974174      0.90571795207903
  N   -1.37383803207458      0.28508562541714     -0.85631296809378
  H   -1.41442058121720     -0.48112309415655     -1.51525707564257
  H   -0.99381472728804      1.10092208125318     -1.31810510400603
  N   -1.07529124330551     -1.27952142670916      0.80197405664484
  H   -2.07555479783105     -1.17554789146637      0.92407876166175
  H   -0.64663078914372     -1.49150235739376      1.69335902131278
  N   1.59962645074577      1.01013277321947     -0.32083392949057
  O   1.23752082879234      1.56359840475406     -1.35936005711679
  O   2.44432986258295      1.43920529359215      0.45820860505399
