14
Coordinates from ORCA-job run
  C   -0.52219435817392     -0.31687049691702      0.10845104533549
  C   0.84821085240149      0.32153708903623      0.38467811480149
  F   -0.21611730301752     -1.57402532405316     -0.44041553879984
  H   0.72871026475686      1.37960852410153      0.61401538760548
  H   1.36769864441793     -0.19797309144624      1.18792982132447
  N   -1.21362791753411     -0.40705993027402      1.34103411647365
  H   -0.72429340585031     -1.00513252565639      1.99380989318809
  H   -2.13819800970927     -0.78243694929755      1.16635682956959
  N   -1.37998495923502      0.32459538152745     -0.83244894559975
  H   -0.89421864095079      0.47216210233495     -1.70738403994775
  H   -1.68245590916936      1.21723883150595     -0.46553282085680
  N   1.72510660971535      0.21527165484300     -0.81188828400321
  O   2.74415233868797     -0.46064591522387     -0.71590314377586
  O   1.35621179366070      0.81373064951914     -1.82270243531503
