14
Coordinates from ORCA-job run
  C   -0.56397860396324      0.18172629954919      0.44315430430451
  C   0.91181589750351      0.56468802476723      0.42466389845185
  F   -1.04238434154415      0.67035124100051      1.64944441169565
  H   1.35253916970212      0.29541730445244      1.38064507004428
  H   1.03230371501810      1.63025906683835      0.22405385885755
  N   -1.28393965276347      0.87077502028746     -0.58610435522948
  H   -2.25311016656788      0.57480156591785     -0.58455921927211
  H   -0.87280816762687      0.65183986193015     -1.48461717870094
  N   -0.68417357068198     -1.25759994618654      0.55433994134768
  H   -1.55998486069571     -1.47726053698875      1.01343344299785
  H   -0.67893898590474     -1.67791901447290     -0.36589376175553
  N   1.68197452587808     -0.16833930613575     -0.61890930482621
  O   2.86203950569364     -0.39551643963104     -0.38430569548883
  O   1.09664553595259     -0.46422314132820     -1.66334541242627
