14
Coordinates from ORCA-job run
  C   -0.55889631296810      0.14655928780091      0.46202915417563
  C   0.89780689111065      0.59457471237617      0.41418756464830
  F   -1.14303272911362      0.94180254755435      1.43626917222143
  H   1.44699221645873      0.21723581209887      1.27802416355410
  H   0.92630564112413      1.68015475874970      0.37753821569242
  N   -1.21829749728439      0.52819575100141     -0.77005377881415
  H   -1.11019460893449     -0.20223964423996     -1.46164730605752
  H   -2.20463677470056      0.66395452696990     -0.58360375392117
  N   -0.66327283165786     -1.20451987736756      0.92696258490526
  H   -1.63304474324207     -1.49824843472614      0.91445295296858
  H   -0.12673458839269     -1.80925955221228      0.31811115358338
  N   1.60744310551885      0.11035209825981     -0.80296058890811
  O   1.27046338089203     -0.98080964810996     -1.26859581487751
  O   2.50909885118939      0.81424766184477     -1.23971371917066
