14
Coordinates from ORCA-job run
  C   -0.57510049285172      0.01376370678857      0.33321396768147
  C   0.91630806400376     -0.27837136507933      0.09008745399013
  F   -0.56567499556739      1.19077155667521      1.10000535819067
  H   1.40403241378257     -0.56678099662631      1.01998365221653
  H   1.03683051239759     -1.04093646505349     -0.67970034090557
  N   -1.38917936305843      0.32931225598327     -0.80182805495877
  H   -1.06415737109815      1.18039400376505     -1.24177840997838
  H   -1.35052880448958     -0.42057320003691     -1.47973090083143
  N   -1.13379375761435     -1.06167967426846      1.03162580029915
  H   -0.55825484767831     -1.82575422294854      1.33167503567024
  H   -2.09239808013240     -1.26958060152872      0.81738732226791
  N   1.61917964259761      0.94193098590310     -0.38442372419758
  O   1.29322469395909      1.36688238667923     -1.49295361475946
  O   2.45951238574971      1.44262162974733      0.35543645531509
