14
Coordinates from ORCA-job run
  C   -0.62977758131021      0.11833701786972      0.50551112954974
  C   0.89119066275668      0.34925120415104      0.55498926017882
  F   -1.07561042016312      0.82134085709551      1.62522851954330
  H   1.09052575166108      1.41081948125308      0.67654198229468
  H   1.33552607621020     -0.23680734958474      1.35851929196283
  N   -1.32042685290709      0.71106579458148     -0.60228245853878
  H   -1.08607474913594      0.25552205772736     -1.47360978023031
  H   -1.14080727241864      1.70439839628831     -0.67553262372099
  N   -0.92852625208326     -1.25493998211161      0.65298730667228
  H   -0.23042424922940     -1.85866172715696      0.24398617333520
  H   -1.85281236602382     -1.46169198254804      0.30061010740149
  N   1.50898287727505     -0.07414296358119     -0.72398214556186
  O   1.80868345388305      0.80229241696554     -1.53224020885554
  O   1.63055092148541     -1.28678322094950     -0.91072655403086
