14
Coordinates from ORCA-job run
  C   -0.69337876274093      0.13343273986722      0.40913145248124
  C   0.76378414367505      0.61960721190422      0.50688315511022
  F   -1.23738115359425      0.57481255597001      1.61603593082284
  H   1.18071455330440      0.31612191713213      1.46370751382562
  H   0.81096128894878      1.69965412146978      0.37337866340269
  N   -1.35440310033000      0.75970875914055     -0.67104720522579
  H   -0.74541887276269      0.95125479457873     -1.45292905213237
  H   -2.16811214304877      0.23038164712102     -0.95164264431842
  N   -0.88427390546002     -1.28746995813987      0.41555829435446
  H   -0.54265851483469     -1.71284291758712     -0.43530080225225
  H   -0.44976496829724     -1.72632322636321      1.21737551711298
  N   1.58077218955390     -0.01486363072675     -0.55449222489924
  O   1.44226469054323      0.41958751003560     -1.69999606268956
  O   2.29789455504322     -0.96106152440230     -0.23566253559243
