14
Coordinates from ORCA-job run
  C   -0.53355690946542      0.01411383627115     -0.16732822620386
  C   0.78684165156869      0.65804437294228      0.24995287239554
  F   -0.69735589718653      0.21568906981428     -1.53895916570401
  H   0.83312375920728      1.68360985476429     -0.11658066487119
  H   0.89693873066695      0.61570534083760      1.33074251835192
  N   -0.48002834688402     -1.40426509407670      0.00140084175376
  H   -0.53349923649040     -1.65132405685369      0.98042065723283
  H   -1.23335665181905     -1.84451659196381     -0.51086874177540
  N   -1.58047520680486      0.65237587528946      0.56896031690465
  H   -1.63607305093725      1.63738690399744      0.33395862239016
  H   -2.46803733308065      0.22040548587929      0.33952412154811
  N   1.93305845838095     -0.07776028347332     -0.34246276777151
  O   2.19242727111535      0.14953199437013     -1.52024205000001
  O   2.52099276172895     -0.86899670779840      0.39048166574901
