14
Coordinates from ORCA-job run
  C   -0.59172133951341      0.01299794688259      0.25480479220971
  C   0.81558171855047      0.56505961782466      0.44773929358969
  F   -1.29284299087729      0.61682877475524      1.36334126995811
  H   0.79790186980462      1.65154594068803      0.38441591260563
  H   1.20905730829841      0.24475435812440      1.41073274587161
  N   -1.14885187919020      0.43171045641369     -0.97153053557091
  H   -2.08087605083303      0.05974375052357     -1.10186791585928
  H   -1.18159827877873      1.44004703164390     -1.02981180054387
  N   -0.61543206309511     -1.39340988666200      0.36001195080399
  H   -0.26514414536764     -1.69610817161233      1.25827901699614
  H   -1.54904145280355     -1.75986039951453      0.22546892697937
  N   1.73775209967698      0.06672636909077     -0.60477247370443
  O   2.33434410929488     -0.98127815258855     -0.37056508410595
  O   1.83087109483361      0.74124236443054     -1.62724609922982
