14
Coordinates from ORCA-job run
  C   -0.51464530883878     -0.18741009552732      0.14672178707001
  C   0.93363722155050      0.21683361801347      0.39836447489600
  F   -0.43054474875215     -1.41530658922005     -0.58058201274404
  H   0.96620932903749      1.24544298258160      0.75473669575361
  H   1.38954953655117     -0.46245052525282      1.11381726848087
  N   -1.12757608163147     -0.42628649240779      1.40984485578830
  H   -2.12306857872913     -0.25664062269475      1.37157568170366
  H   -0.94845429003595     -1.37409801505054      1.71412786273411
  N   -1.23294064954337      0.78871702851348     -0.57838923917580
  H   -0.68906979201468      1.10525487526821     -1.37097524894276
  H   -2.10514011445709      0.39503926498462     -0.91094590788673
  N   1.75438930812196      0.13828774839411     -0.84201796933118
  O   1.41250874361567      0.85734973889156     -1.78189361620261
  O   2.71414542512583     -0.62473291649378     -0.84538463214342
