14
Coordinates from ORCA-job run
  C   -0.50580049715386     -0.19508297047792      0.16621721903438
  C   0.98119137816728      0.10249054432236      0.32302471788930
  F   -1.14184030365785      1.08432337364571      0.21426868253070
  H   1.55684372126108     -0.78993173769818      0.08151903149286
  H   1.18707593114307      0.44205006593601      1.33469328068768
  N   -0.80091588246283     -0.86818806351715     -1.03983761954137
  H   -1.79997114716247     -0.84915216057374     -1.20672009158805
  H   -0.32740869096673     -0.42057420871102     -1.81420834485502
  N   -0.91696105794766     -0.97082421121900      1.28748735346822
  H   -1.70453191230190     -1.56018796614845      1.05586453571361
  H   -1.15136293894067     -0.36820346808787      2.06527589338560
  N   1.42710964023205      1.19283860642072     -0.58847790398913
  O   1.89754358991510      2.20534630139978     -0.08170271612288
  O   1.29802816987538      0.99509589470875     -1.79740403810590
