14
Coordinates from ORCA-job run
  C   -0.61698738815096     -0.01714873619016      0.11953839278423
  C   0.74131336365505      0.47943384903545     -0.38953531549213
  F   -0.67429293721685      0.44417682573736      1.45072607366051
  H   0.96500570710508      0.03154672117951     -1.35799051489472
  H   0.74290181492215      1.56555504015468     -0.44500340627075
  N   -1.73681970803497      0.58277446961792     -0.53621357282803
  H   -1.70679836683736      1.59193741456019     -0.48743446604507
  H   -1.80338837334612      0.26779558113798     -1.49346688693218
  N   -0.74413138846848     -1.41473632776966      0.00243270532997
  H   0.03907082046185     -1.89352454343820      0.42607563708967
  H   -1.61838152767684     -1.70535111001956      0.42089887760467
  N   1.85679336374755      0.11725870551753      0.53329662530913
  O   2.52484325164668      1.03285714327430      1.00176815610827
  O   2.03187136819323     -1.08057503279732      0.75590769457642
