14
Coordinates from ORCA-job run
  C   -0.51310993315825     -0.33159943809188      0.10956626743458
  C   0.82896542448520      0.36360102782766      0.38867979234795
  F   -0.15425639198419     -1.59418936069425     -0.39166616089886
  H   0.66806308233465      1.42407078341474      0.57822714469401
  H   1.35031884896228     -0.10812501073393      1.21975241247396
  N   -1.22418664235607     -0.40487169602055      1.33180568263678
  H   -0.72848189134904     -0.96455290269598      2.01309685139227
  H   -2.13349186297632     -0.81419933499538      1.15372489121491
  N   -1.37419766397877      0.24907010090129     -0.86756952928880
  H   -1.70927051118440      1.14467043319668     -0.53801279335580
  H   -0.87733825736585      0.38054373609299     -1.73886101492781
  N   1.73252927082041      0.24683121968442     -0.78654876791608
  O   2.77120492123292     -0.39077115655683     -0.64830776359908
  O   1.36425160651742      0.79852159867101     -1.82388701220803
