14
Coordinates from ORCA-job run
  C   -0.57634931083768      0.06614918312633      0.41892532011056
  C   0.86269196969402      0.57534830098663      0.45447757488773
  F   -1.23017344221131      0.81485287389960      1.41529344404356
  H   1.35253290625298      0.20642667071923      1.35402057023953
  H   0.87680021814614      1.66221053338697      0.41335681362654
  N   -1.13943053668010      0.33131555934526     -0.86209526260414
  H   -1.16200375738475      1.32453787701082     -1.06156229636709
  H   -2.07834186861006     -0.04070046041770     -0.92837106752737
  N   -0.65188663306221     -1.29539840364163      0.83266288612199
  H   -0.06362671083294     -1.86545914837600      0.23848854265427
  H   -1.60734649076828     -1.62892897058853      0.79284641775678
  N   1.61863625919282      0.07860198033891     -0.72490794612367
  O   1.82134539871013     -1.13316130032584     -0.78330202567628
  O   1.97515199839123      0.90420530453595     -1.55983297114242
