14
Coordinates from ORCA-job run
  C   -0.60449668647878      0.15209995556746      0.35098374809295
  C   0.85612915034590      0.58437131328340      0.45590494428548
  F   -1.19043935902971      0.63170409111754      1.53752835377391
  H   0.92434668617138      1.66060184749622      0.30660194651421
  H   1.26481916606099      0.29210970664738      1.42066307984913
  N   -1.26590158473561      0.82451119125081     -0.71748682135396
  H   -0.78289453051385      0.63921494078292     -1.58726715411050
  H   -2.22961428341853      0.52107803531538     -0.78821907207740
  N   -0.67356361503685     -1.26922802272366      0.29328014430304
  H   -0.28860629398610     -1.69563071577841      1.12803446768223
  H   -1.62935494855432     -1.58009161409770      0.17411860553797
  N   1.67195549553240     -0.08383078856955     -0.59132903072038
  O   2.50599692883918     -0.90545135447364     -0.22374462948818
  O   1.44062387480391      0.22954141418185     -1.75806858228849
