14
Coordinates from ORCA-job run
  C   -0.57169399101226      0.02963340057386      0.38806941430938
  C   0.96535955447115      0.10736046677034      0.37554083064584
  F   -1.03443319721030      1.25291690201414      0.82378930745396
  H   1.40759595136265     -0.88433435299751      0.29517105680311
  H   1.30412433550022      0.62682061995395      1.26895322552437
  N   -1.21869426473508     -0.17732598491859     -0.88042641776088
  H   -0.83975060733639     -0.98500332731097     -1.35812361098879
  H   -1.11179214355773      0.63384324759884     -1.47811852848864
  N   -0.92550852832008     -0.94114316403455      1.37884923573130
  H   -1.93782723610387     -0.99843024011530      1.40694905188862
  H   -0.56359157730450     -1.85465948881106      1.13519601576080
  N   1.41641967926046      0.87178613984350     -0.81063429630985
  O   1.70015160394879      0.22007547885653     -1.81691866155050
  O   1.41064042103693      2.09746030257680     -0.72729662301873
