14
Coordinates from ORCA-job run
  C   -0.42252951371184     -0.51445199864949      0.18757999606149
  C   0.90405891487182      0.21256448296399      0.47101252282511
  F   -0.10690061395036     -1.81199942407919     -0.15469485048586
  H   1.55881409665916     -0.44631026294079      1.03666838865609
  H   0.73238382856914      1.15293751516465      0.99227732068332
  N   -1.13888127676442     -0.55909392861009      1.42615854307768
  H   -2.01384893199609     -1.04428511219606      1.25918275465741
  H   -1.35245337967065      0.37459178041111      1.75399951406139
  N   -1.20563582716107     -0.02367287287058     -0.91533136065507
  H   -1.37210034668181      0.97114744141879     -0.83312703728531
  H   -0.74132703792381     -0.20392327495829     -1.79770680160393
  N   1.57067618055414      0.55066068615969     -0.80810425759385
  O   2.23368817190173     -0.33100940807948     -1.34878317350570
  O   1.35405573530405      1.67284437626572     -1.26813155889276
