14
Coordinates from ORCA-job run
  C   -0.51453355346100     -0.39330074728772      0.11559675878519
  C   0.90179735933914      0.15546904449369      0.36168742840429
  F   -0.31815777258701     -1.61828137714487     -0.50672614611299
  H   0.86910939703409      1.19896012025932      0.67861682904240
  H   1.41729614447584     -0.47044846386781      1.08638071251095
  N   -1.11587140770372     -0.61320316985654      1.38845997409999
  H   -0.91197749142282      0.11669619785024      2.05633786288686
  H   -2.11661449033961     -0.71393126504550      1.27481265992036
  N   -1.37344327639572      0.33833605767018     -0.76907189389432
  H   -0.93685817627462      0.46491330545371     -1.67407560646137
  H   -1.58281643095190      1.24891187353762     -0.38134012193702
  N   1.69831291427105      0.10678359717630     -0.89189864870102
  O   2.64781213800187     -0.66799805305294     -0.93445424478100
  O   1.33594464601441      0.84909287981432     -1.80532556376232
