14
Coordinates from ORCA-job run
  C   -0.60935205472856      0.00407684758262      0.24839220453402
  C   0.92527953761558      0.08824239588234      0.32267183384930
  F   -1.04515177099295      1.31296552904407      0.40145310596820
  H   1.22863289833020      0.39063648681206      1.32228454494722
  H   1.38503917219721     -0.85643560992670      0.02840068711662
  N   -1.19824912771175     -0.44128156198417     -0.98063337978756
  H   -0.88887267799885      0.12991687651033     -1.75759445421995
  H   -0.94214207126438     -1.40252187551646     -1.16430863026730
  N   -1.05088848778764     -0.76311390312566      1.36486634037155
  H   -2.00463516376408     -1.06459360231167      1.20986810456905
  H   -0.46022242591473     -1.55915817274515      1.55932314354638
  N   1.43022443806383      1.12709394054060     -0.61232461010900
  O   1.94412756748855      2.12932577103880     -0.12747394600901
  O   1.28521016646759      0.90484687819900     -1.81492494450953
