14
Coordinates from ORCA-job run
  C   -0.69730168169702      0.13578322068650      0.40171881305381
  C   0.76163347640390      0.61236531764875      0.51814423209808
  F   -1.25221647563122      0.57528165642892      1.60432834721019
  H   0.81691728993353      1.69272039156057      0.39036348386045
  H   1.16579034811512      0.30185591420535      1.47819023638913
  N   -1.34209141828208      0.77094036029130     -0.68313116762042
  H   -0.72310188679573      0.96145108034380     -1.45737153822204
  H   -2.15614670743100      0.24824780401812     -0.97490638081782
  N   -0.89711317498748     -1.28393767960616      0.39966347369085
  H   -0.47415341952166     -1.72903152388850      1.20422756926637
  H   -0.54832335724769     -1.70732069787460     -0.44928540599833
  N   1.58672672906569     -0.02229438331047     -0.53686679300634
  O   1.46340028706136      0.41778667101210     -1.68197748852373
  O   2.29497999101426     -0.97384813151569     -0.21409738138020
