13

C	0.0	0.0	0.0
C	-0.295465	0.039944	-1.52251
Br	1.937685	0.0	0.0
H	0.262944	0.872942	-1.951278
H	-1.365082	0.209674	-1.650681
N	-0.446019	1.283703	0.641732
O	-0.457091	2.284077	-0.084202
O	-0.498472	1.295894	1.872011
C	-0.575699	-1.131548	0.699038
N	-0.6277	-2.164529	1.277031
C	0.081679	-1.204925	-2.181876
N	0.334836	-2.188865	-2.771386
H	-2.075267	0.0	0.0
