13

C	0.0	0.0	0.0
C	-0.300072	-0.047217	-1.521781
Br	1.937828	0.0	0.0
H	0.281641	0.74167	-1.999658
H	-1.36335	0.145004	-1.660605
N	-0.479411	1.299883	0.566934
O	-0.491392	2.261967	-0.213329
O	-0.517143	1.384166	1.797372
C	-0.51435	-1.108327	0.777412
N	-0.560554	-2.089675	1.436463
C	0.044483	-1.338073	-2.104211
N	0.304192	-2.359934	-2.62066
H	-2.073349	0.0	0.0
