13

C	0.0	0.0	0.0
C	-0.306664	-0.116858	-1.516741
Br	1.923165	0.0	0.0
H	-1.380415	0.029408	-1.644597
H	0.238369	0.673622	-2.032572
N	-0.453586	1.345802	0.504189
O	-0.473024	2.262351	-0.323337
O	-0.50543	1.48702	1.725466
C	-0.590082	-1.049945	0.809134
N	-0.638075	-2.019298	1.489345
C	0.076391	-1.417968	-2.049774
N	0.338954	-2.454021	-2.536177
H	-2.098981	0.0	0.0
