19

C	-0.33953	-0.040814	-1.513931
C	0.0	0.0	0.0
F	-0.214672	-1.395574	-1.866697
H	1.092496	0.0	0.0
C	-1.763823	0.354039	-1.852126
H	-2.466581	-0.258158	-1.281493
H	-1.941608	1.407123	-1.630751
H	-1.91767	0.179728	-2.918736
N	0.607564	0.666012	-2.332371
H	1.53268	0.42148	-1.965237
H	0.494901	1.649162	-2.110346
C	-0.497812	-1.164882	0.821825
H	-0.129838	-1.069795	1.843591
H	-1.589536	-1.227498	0.85207
H	-0.093602	-2.07983	0.391855
N	-0.414244	1.276362	0.574691
O	-0.19044	2.312113	-0.076705
O	-0.906399	1.299221	1.714046
H	2.664355	0.0	0.0
