19

C	-0.284001	-0.044932	-1.504224
C	0.0	0.0	0.0
F	-1.628495	-0.440557	-1.729812
H	1.091799	0.0	0.0
C	-0.121663	1.268338	-2.245425
H	-0.274062	1.06778	-3.312842
H	-0.849644	2.015335	-1.924035
H	0.885567	1.653149	-2.079165
N	0.570016	-1.092237	-2.002337
H	0.661473	-1.004575	-3.008727
H	1.501467	-0.968478	-1.582116
C	-0.522819	-1.218442	0.724485
H	-0.174704	-1.206993	1.759163
H	-0.121346	-2.100479	0.226934
H	-1.611115	-1.259998	0.715331
N	-0.466966	1.243088	0.64317
O	-1.365937	1.176742	1.494668
O	0.099375	2.297168	0.331672
H	2.736253	0.0	0.0
