19

C	-0.454703	0.088843	-1.460038
C	0.0	0.0	0.0
F	-1.79836	0.607636	-1.473335
H	1.090287	0.0	0.0
C	0.400506	1.002263	-2.305642
H	1.449445	0.758867	-2.115554
H	0.155045	0.862711	-3.363661
H	0.226388	2.036667	-2.027776
N	-0.465207	-1.219585	-2.028475
H	-1.160716	-1.7902	-1.566239
H	-0.710286	-1.14962	-3.009058
C	-0.469478	-1.230408	0.745089
H	-0.126336	-1.173855	1.777216
H	-1.558497	-1.334404	0.753379
H	-0.001627	-2.10308	0.287627
N	-0.402055	1.226877	0.721814
O	-0.041081	2.308852	0.254545
O	-1.023172	1.123732	1.786285
H	2.729461	0.0	0.0
