16

C	-0.540624	0.000471	-1.432051
C	0.0	0.0	0.0
Cl	0.092353	-1.482728	-2.245885
H	1.089473	0.0	0.0
N	-1.988234	-0.110516	-1.43908
H	-2.315663	-0.169773	-2.397715
H	-2.338278	0.751649	-1.031247
C	-0.043447	1.119578	-2.254347
N	0.268564	1.97542	-2.997794
N	-0.372358	-1.143744	0.76519
H	0.43701	-1.752868	0.831557
H	-1.158181	-1.625505	0.348766
N	-0.417615	1.231308	0.691039
O	-1.001121	2.12559	0.040682
O	-0.063274	1.356948	1.862176
H	2.528832	0.0	0.0
