16

C	-0.549238	-0.043152	-1.431615
C	0.0	0.0	0.0
Cl	0.018851	-1.609776	-2.138669
H	1.092745	0.0	0.0
N	-1.995354	-0.029903	-1.523209
H	-2.308371	-0.715136	-0.839684
H	-2.282116	0.889076	-1.19875
C	0.01155	0.999873	-2.299343
N	0.447954	1.794469	-3.045102
N	-0.404985	-1.178973	0.741918
H	-0.611987	-0.852928	1.679344
H	0.429577	-1.759962	0.823188
N	-0.416983	1.183533	0.664956
O	-0.712355	2.192563	-0.024479
O	-0.333044	1.213337	1.916278
H	2.379928	0.0	0.0
