16

C	-0.557373	0.007515	-1.425787
C	0.0	0.0	0.0
Cl	0.35275	-1.348831	-2.318173
H	1.088283	0.0	0.0
N	-1.955464	-0.242461	-1.389767
H	-2.321056	-0.394705	-2.320325
H	-2.083595	-1.075086	-0.823914
C	-0.290063	1.198421	-2.236577
N	-0.160632	2.06859	-3.014288
N	-0.449123	-1.185066	0.683204
H	-0.988855	-0.891367	1.489662
H	0.390682	-1.652117	1.018138
N	-0.394484	1.224115	0.699118
O	-0.893194	1.140207	1.836704
O	-0.095593	2.294729	0.152217
H	2.513464	0.0	0.0
