16

C	-0.35758	-0.031236	-1.50581
C	0.0	0.0	0.0
Cl	-0.451823	1.696645	-2.220114
H	1.091895	0.0	0.0
N	0.630919	-0.822842	-2.104897
H	0.608247	-0.791988	-3.114094
H	1.558344	-0.60488	-1.716389
C	-1.707786	-0.563293	-1.748635
N	-2.780255	-1.001598	-1.944673
N	-0.452613	-1.196943	0.621246
H	0.222082	-1.474586	1.323696
H	-1.371462	-1.076808	1.027341
N	-0.525944	1.231565	0.678137
O	0.179559	2.234372	0.689998
O	-1.642379	1.1484	1.206988
H	2.73575	0.0	0.0
