16

C	-0.48702	-0.038274	-1.463742
C	0.0	0.0	0.0
Cl	0.12633	1.318279	-2.459009
H	1.094216	0.0	0.0
N	-0.026946	-1.260202	-2.099196
H	-0.278311	-1.99868	-1.446751
H	0.991051	-1.203881	-2.08049
C	-1.958732	0.007864	-1.493498
N	-3.13272	0.042351	-1.447299
N	-0.397503	-1.222952	0.640624
H	0.391236	-1.527033	1.205383
H	-1.182512	-1.054252	1.25699
N	-0.457497	1.193652	0.756135
O	-0.205526	2.302522	0.282562
O	-1.001321	1.020049	1.856529
H	2.591432	0.0	0.0
